MODEL 1
REMARK VINA RESULT:      -9.2      0.000      0.000
REMARK  Name = 
REMARK  6 active torsions:
REMARK  status: ('A' for Active; 'I' for Inactive)
REMARK    1  A    between atoms: C_2  and  C_11
REMARK    2  A    between atoms: N_3  and  C_4
REMARK    3  A    between atoms: C_16  and  S_17
REMARK    4  A    between atoms: S_17  and  N_20
REMARK    5  A    between atoms: N_20  and  C_21
REMARK    6  A    between atoms: C_21  and  C_22
REMARK                            x       y       z     vdW  Elec       q    Type
REMARK                         _______ _______ _______ _____ _____    ______ ____
ROOT
ATOM      1  C   UNL     1       8.087   7.993  18.253  0.00  0.00    +0.000 A 
ATOM      2  C   UNL     1       8.407   7.106  19.291  0.00  0.00    +0.000 A 
ATOM      3  C   UNL     1       8.079   5.757  19.190  0.00  0.00    +0.000 A 
ATOM      4  C   UNL     1       7.435   5.289  18.049  0.00  0.00    +0.000 A 
ATOM      5  F   UNL     1       7.111   3.994  18.016  0.00  0.00    +0.000 F 
ATOM      6  C   UNL     1       7.149   6.148  16.995  0.00  0.00    +0.000 A 
ATOM      7  C   UNL     1       7.459   7.517  17.095  0.00  0.00    +0.000 A 
ENDROOT
BRANCH   1   9
ATOM      8  O   UNL     1       8.134  10.191  17.546  0.00  0.00    +0.000 OA
ATOM      9  C   UNL     1       8.530   9.402  18.401  0.00  0.00    +0.000 C 
ATOM     10  N   UNL     1       9.389   9.684  19.450  0.00  0.00    +0.000 N 
ATOM     11  H   UNL     1       9.801   8.906  19.952  0.00  0.00    +0.000 HD
BRANCH  10  12
ATOM     12  C   UNL     1       9.893  10.976  19.756  0.00  0.00    +0.000 A 
ATOM     13  C   UNL     1      10.942  11.570  19.045  0.00  0.00    +0.000 A 
ATOM     14  C   UNL     1      11.426  12.834  19.391  0.00  0.00    +0.000 A 
ATOM     15  C   UNL     1      10.861  13.525  20.458  0.00  0.00    +0.000 A 
ATOM     16  C   UNL     1       9.805  12.949  21.161  0.00  0.00    +0.000 A 
ATOM     17 CL   UNL     1       9.119  13.799  22.494  0.00  0.00    +0.000 Cl
ATOM     18  C   UNL     1       9.311  11.688  20.812  0.00  0.00    +0.000 A 
ENDBRANCH  10  12
ENDBRANCH   1   9
BRANCH   6  19
ATOM     19  S   UNL     1       6.327   5.543  15.549  0.00  0.00    +0.000 S 
ATOM     20  O   UNL     1       5.341   6.525  15.162  0.00  0.00    +0.000 OA
ATOM     21  O   UNL     1       7.376   5.134  14.638  0.00  0.00    +0.000 OA
BRANCH  19  22
ATOM     22  N   UNL     1       5.558   4.117  16.030  0.00  0.00    +0.000 NA
ATOM     23  H   UNL     1       5.991   3.669  16.836  0.00  0.00    +0.000 HD
BRANCH  22  24
ATOM     24  C   UNL     1       4.089   4.162  16.096  0.00  0.00    +0.000 C 
BRANCH  24  25
ATOM     25  C   UNL     1       3.574   4.298  17.510  0.00  0.00    +0.000 A 
ATOM     26  C   UNL     1       3.730   5.511  18.217  0.00  0.00    +0.000 A 
ATOM     27  C   UNL     1       3.331   5.621  19.554  0.00  0.00    +0.000 A 
ATOM     28  C   UNL     1       2.783   4.508  20.154  0.00  0.00    +0.000 A 
ATOM     29  C   UNL     1       2.615   3.328  19.470  0.00  0.00    +0.000 A 
ATOM     30  C   UNL     1       2.991   3.191  18.152  0.00  0.00    +0.000 A 
ATOM     31  O   UNL     1       2.072   2.350  20.243  0.00  0.00    +0.000 OA
ATOM     32  C   UNL     1       1.977   3.032  21.511  0.00  0.00    +0.000 C 
ATOM     33  O   UNL     1       2.367   4.420  21.446  0.00  0.00    +0.000 OA
ENDBRANCH  24  25
ENDBRANCH  22  24
ENDBRANCH  19  22
ENDBRANCH   6  19
TORSDOF 6
ENDMDL
MODEL 2
REMARK VINA RESULT:      -9.0      1.204      1.816
REMARK  Name = 
REMARK  6 active torsions:
REMARK  status: ('A' for Active; 'I' for Inactive)
REMARK    1  A    between atoms: C_2  and  C_11
REMARK    2  A    between atoms: N_3  and  C_4
REMARK    3  A    between atoms: C_16  and  S_17
REMARK    4  A    between atoms: S_17  and  N_20
REMARK    5  A    between atoms: N_20  and  C_21
REMARK    6  A    between atoms: C_21  and  C_22
REMARK                            x       y       z     vdW  Elec       q    Type
REMARK                         _______ _______ _______ _____ _____    ______ ____
ROOT
ATOM      1  C   UNL     1       8.065   7.925  18.207  0.00  0.00    +0.000 A 
ATOM      2  C   UNL     1       8.334   7.057  19.275  0.00  0.00    +0.000 A 
ATOM      3  C   UNL     1       8.036   5.702  19.172  0.00  0.00    +0.000 A 
ATOM      4  C   UNL     1       7.474   5.208  18.000  0.00  0.00    +0.000 A 
ATOM      5  F   UNL     1       7.174   3.907  17.964  0.00  0.00    +0.000 F 
ATOM      6  C   UNL     1       7.240   6.049  16.918  0.00  0.00    +0.000 A 
ATOM      7  C   UNL     1       7.520   7.424  17.019  0.00  0.00    +0.000 A 
ENDROOT
BRANCH   1   9
ATOM      8  O   UNL     1       8.019  10.136  17.541  0.00  0.00    +0.000 OA
ATOM      9  C   UNL     1       8.473   9.344  18.363  0.00  0.00    +0.000 C 
ATOM     10  N   UNL     1       9.368   9.632  19.381  0.00  0.00    +0.000 N 
ATOM     11  H   UNL     1       9.822   8.858  19.850  0.00  0.00    +0.000 HD
BRANCH  10  12
ATOM     12  C   UNL     1       9.847  10.932  19.689  0.00  0.00    +0.000 A 
ATOM     13  C   UNL     1       9.441  11.643  20.825  0.00  0.00    +0.000 A 
ATOM     14  C   UNL     1       9.918  12.931  21.081  0.00  0.00    +0.000 A 
ATOM     15  C   UNL     1      10.814  13.527  20.201  0.00  0.00    +0.000 A 
ATOM     16  C   UNL     1      11.237  12.822  19.076  0.00  0.00    +0.000 A 
ATOM     17 CL   UNL     1      12.333  13.570  17.977  0.00  0.00    +0.000 Cl
ATOM     18  C   UNL     1      10.770  11.528  18.821  0.00  0.00    +0.000 A 
ENDBRANCH  10  12
ENDBRANCH   1   9
BRANCH   6  19
ATOM     19  S   UNL     1       6.521   5.410  15.431  0.00  0.00    +0.000 S 
ATOM     20  O   UNL     1       5.381   6.236  15.106  0.00  0.00    +0.000 OA
ATOM     21  O   UNL     1       7.618   5.245  14.500  0.00  0.00    +0.000 OA
BRANCH  19  22
ATOM     22  N   UNL     1       6.006   3.847  15.814  0.00  0.00    +0.000 NA
ATOM     23  H   UNL     1       6.485   3.442  16.617  0.00  0.00    +0.000 HD
BRANCH  22  24
ATOM     24  C   UNL     1       4.552   3.625  15.815  0.00  0.00    +0.000 C 
BRANCH  24  25
ATOM     25  C   UNL     1       3.961   3.655  17.205  0.00  0.00    +0.000 A 
ATOM     26  C   UNL     1       3.732   2.455  17.915  0.00  0.00    +0.000 A 
ATOM     27  C   UNL     1       3.110   2.467  19.168  0.00  0.00    +0.000 A 
ATOM     28  C   UNL     1       2.728   3.686  19.684  0.00  0.00    +0.000 A 
ATOM     29  C   UNL     1       2.958   4.860  19.008  0.00  0.00    +0.000 A 
ATOM     30  C   UNL     1       3.575   4.881  17.776  0.00  0.00    +0.000 A 
ATOM     31  O   UNL     1       2.495   5.948  19.679  0.00  0.00    +0.000 OA
ATOM     32  C   UNL     1       1.889   5.317  20.826  0.00  0.00    +0.000 C 
ATOM     33  O   UNL     1       2.089   3.889  20.867  0.00  0.00    +0.000 OA
ENDBRANCH  24  25
ENDBRANCH  22  24
ENDBRANCH  19  22
ENDBRANCH   6  19
TORSDOF 6
ENDMDL
MODEL 3
REMARK VINA RESULT:      -8.9      0.661      1.239
REMARK  Name = 
REMARK  6 active torsions:
REMARK  status: ('A' for Active; 'I' for Inactive)
REMARK    1  A    between atoms: C_2  and  C_11
REMARK    2  A    between atoms: N_3  and  C_4
REMARK    3  A    between atoms: C_16  and  S_17
REMARK    4  A    between atoms: S_17  and  N_20
REMARK    5  A    between atoms: N_20  and  C_21
REMARK    6  A    between atoms: C_21  and  C_22
REMARK                            x       y       z     vdW  Elec       q    Type
REMARK                         _______ _______ _______ _____ _____    ______ ____
ROOT
ATOM      1  C   UNL     1       8.079   7.979  18.215  0.00  0.00    +0.000 A 
ATOM      2  C   UNL     1       8.344   7.092  19.268  0.00  0.00    +0.000 A 
ATOM      3  C   UNL     1       8.029   5.742  19.146  0.00  0.00    +0.000 A 
ATOM      4  C   UNL     1       7.453   5.273  17.970  0.00  0.00    +0.000 A 
ATOM      5  F   UNL     1       7.138   3.977  17.916  0.00  0.00    +0.000 F 
ATOM      6  C   UNL     1       7.224   6.133  16.903  0.00  0.00    +0.000 A 
ATOM      7  C   UNL     1       7.521   7.504  17.023  0.00  0.00    +0.000 A 
ENDROOT
BRANCH   1   9
ATOM      8  O   UNL     1       8.085  10.195  17.563  0.00  0.00    +0.000 OA
ATOM      9  C   UNL     1       8.507   9.390  18.391  0.00  0.00    +0.000 C 
ATOM     10  N   UNL     1       9.381   9.658  19.431  0.00  0.00    +0.000 N 
ATOM     11  H   UNL     1       9.812   8.874  19.906  0.00  0.00    +0.000 HD
BRANCH  10  12
ATOM     12  C   UNL     1       9.873  10.948  19.760  0.00  0.00    +0.000 A 
ATOM     13  C   UNL     1      10.916  11.565  19.059  0.00  0.00    +0.000 A 
ATOM     14  C   UNL     1      11.389  12.827  19.428  0.00  0.00    +0.000 A 
ATOM     15  C   UNL     1      10.820  13.493  20.508  0.00  0.00    +0.000 A 
ATOM     16  C   UNL     1       9.770  12.895  21.202  0.00  0.00    +0.000 A 
ATOM     17 CL   UNL     1       9.078  13.713  22.551  0.00  0.00    +0.000 Cl
ATOM     18  C   UNL     1       9.286  11.636  20.830  0.00  0.00    +0.000 A 
ENDBRANCH  10  12
ENDBRANCH   1   9
BRANCH   6  19
ATOM     19  S   UNL     1       6.487   5.527  15.411  0.00  0.00    +0.000 S 
ATOM     20  O   UNL     1       5.374   6.390  15.089  0.00  0.00    +0.000 OA
ATOM     21  O   UNL     1       7.580   5.333  14.481  0.00  0.00    +0.000 OA
BRANCH  19  22
ATOM     22  N   UNL     1       5.923   3.978  15.783  0.00  0.00    +0.000 NA
ATOM     23  H   UNL     1       6.392   3.551  16.581  0.00  0.00    +0.000 HD
BRANCH  22  24
ATOM     24  C   UNL     1       4.463   3.803  15.789  0.00  0.00    +0.000 C 
BRANCH  24  25
ATOM     25  C   UNL     1       3.882   3.814  17.184  0.00  0.00    +0.000 A 
ATOM     26  C   UNL     1       3.703   2.607  17.896  0.00  0.00    +0.000 A 
ATOM     27  C   UNL     1       3.091   2.598  19.154  0.00  0.00    +0.000 A 
ATOM     28  C   UNL     1       2.668   3.802  19.671  0.00  0.00    +0.000 A 
ATOM     29  C   UNL     1       2.849   4.983  18.992  0.00  0.00    +0.000 A 
ATOM     30  C   UNL     1       3.455   5.025  17.756  0.00  0.00    +0.000 A 
ATOM     31  O   UNL     1       2.350   6.054  19.665  0.00  0.00    +0.000 OA
ATOM     32  C   UNL     1       1.778   5.403  20.818  0.00  0.00    +0.000 C 
ATOM     33  O   UNL     1       2.031   3.983  20.859  0.00  0.00    +0.000 OA
ENDBRANCH  24  25
ENDBRANCH  22  24
ENDBRANCH  19  22
ENDBRANCH   6  19
TORSDOF 6
ENDMDL
MODEL 4
REMARK VINA RESULT:      -8.7      5.646      8.067
REMARK  Name = 
REMARK  6 active torsions:
REMARK  status: ('A' for Active; 'I' for Inactive)
REMARK    1  A    between atoms: C_2  and  C_11
REMARK    2  A    between atoms: N_3  and  C_4
REMARK    3  A    between atoms: C_16  and  S_17
REMARK    4  A    between atoms: S_17  and  N_20
REMARK    5  A    between atoms: N_20  and  C_21
REMARK    6  A    between atoms: C_21  and  C_22
REMARK                            x       y       z     vdW  Elec       q    Type
REMARK                         _______ _______ _______ _____ _____    ______ ____
ROOT
ATOM      1  C   UNL     1       1.303   8.849  20.377  0.00  0.00    +0.000 A 
ATOM      2  C   UNL     1       1.493   9.322  19.070  0.00  0.00    +0.000 A 
ATOM      3  C   UNL     1       1.986   8.475  18.081  0.00  0.00    +0.000 A 
ATOM      4  C   UNL     1       2.285   7.154  18.393  0.00  0.00    +0.000 A 
ATOM      5  F   UNL     1       2.787   6.392  17.417  0.00  0.00    +0.000 F 
ATOM      6  C   UNL     1       2.062   6.660  19.673  0.00  0.00    +0.000 A 
ATOM      7  C   UNL     1       1.583   7.513  20.685  0.00  0.00    +0.000 A 
ENDROOT
BRANCH   1   9
ATOM      8  O   UNL     1       0.713   9.425  22.534  0.00  0.00    +0.000 OA
ATOM      9  C   UNL     1       0.710   9.789  21.361  0.00  0.00    +0.000 C 
ATOM     10  N   UNL     1       0.160  10.958  20.861  0.00  0.00    +0.000 N 
ATOM     11  H   UNL     1       0.037  11.038  19.858  0.00  0.00    +0.000 HD
BRANCH  10  12
ATOM     12  C   UNL     1      -0.428  11.978  21.655  0.00  0.00    +0.000 A 
ATOM     13  C   UNL     1       0.124  13.258  21.780  0.00  0.00    +0.000 A 
ATOM     14  C   UNL     1      -0.471  14.227  22.591  0.00  0.00    +0.000 A 
ATOM     15  C   UNL     1      -1.635  13.927  23.290  0.00  0.00    +0.000 A 
ATOM     16  C   UNL     1      -2.202  12.661  23.160  0.00  0.00    +0.000 A 
ATOM     17 CL   UNL     1      -3.634  12.285  24.041  0.00  0.00    +0.000 Cl
ATOM     18  C   UNL     1      -1.615  11.691  22.341  0.00  0.00    +0.000 A 
ENDBRANCH  10  12
ENDBRANCH   1   9
BRANCH   6  19
ATOM     19  S   UNL     1       2.449   4.977  20.060  0.00  0.00    +0.000 S 
ATOM     20  O   UNL     1       2.236   4.792  21.477  0.00  0.00    +0.000 OA
ATOM     21  O   UNL     1       1.742   4.173  19.084  0.00  0.00    +0.000 OA
BRANCH  19  22
ATOM     22  N   UNL     1       4.090   4.795  19.698  0.00  0.00    +0.000 NA
ATOM     23  H   UNL     1       4.696   4.825  20.516  0.00  0.00    +0.000 HD
BRANCH  22  24
ATOM     24  C   UNL     1       4.430   3.727  18.746  0.00  0.00    +0.000 C 
BRANCH  24  25
ATOM     25  C   UNL     1       5.381   4.191  17.667  0.00  0.00    +0.000 A 
ATOM     26  C   UNL     1       6.339   5.194  17.938  0.00  0.00    +0.000 A 
ATOM     27  C   UNL     1       7.169   5.688  16.926  0.00  0.00    +0.000 A 
ATOM     28  C   UNL     1       7.019   5.166  15.660  0.00  0.00    +0.000 A 
ATOM     29  C   UNL     1       6.099   4.181  15.389  0.00  0.00    +0.000 A 
ATOM     30  C   UNL     1       5.274   3.669  16.366  0.00  0.00    +0.000 A 
ATOM     31  O   UNL     1       6.098   3.813  14.080  0.00  0.00    +0.000 OA
ATOM     32  C   UNL     1       7.080   4.725  13.545  0.00  0.00    +0.000 C 
ATOM     33  O   UNL     1       7.712   5.542  14.552  0.00  0.00    +0.000 OA
ENDBRANCH  24  25
ENDBRANCH  22  24
ENDBRANCH  19  22
ENDBRANCH   6  19
TORSDOF 6
ENDMDL
MODEL 5
REMARK VINA RESULT:      -8.6      3.858      8.185
REMARK  Name = 
REMARK  6 active torsions:
REMARK  status: ('A' for Active; 'I' for Inactive)
REMARK    1  A    between atoms: C_2  and  C_11
REMARK    2  A    between atoms: N_3  and  C_4
REMARK    3  A    between atoms: C_16  and  S_17
REMARK    4  A    between atoms: S_17  and  N_20
REMARK    5  A    between atoms: N_20  and  C_21
REMARK    6  A    between atoms: C_21  and  C_22
REMARK                            x       y       z     vdW  Elec       q    Type
REMARK                         _______ _______ _______ _____ _____    ______ ____
ROOT
ATOM      1  C   UNL     1       3.278   6.823  18.007  0.00  0.00    +0.000 A 
ATOM      2  C   UNL     1       2.678   5.565  17.855  0.00  0.00    +0.000 A 
ATOM      3  C   UNL     1       3.422   4.482  17.395  0.00  0.00    +0.000 A 
ATOM      4  C   UNL     1       4.767   4.652  17.089  0.00  0.00    +0.000 A 
ATOM      5  F   UNL     1       5.428   3.591  16.618  0.00  0.00    +0.000 F 
ATOM      6  C   UNL     1       5.385   5.883  17.275  0.00  0.00    +0.000 A 
ATOM      7  C   UNL     1       4.638   6.989  17.721  0.00  0.00    +0.000 A 
ENDROOT
BRANCH   1   9
ATOM      8  O   UNL     1       2.227   8.872  17.831  0.00  0.00    +0.000 OA
ATOM      9  C   UNL     1       2.440   7.913  18.569  0.00  0.00    +0.000 C 
ATOM     10  N   UNL     1       2.026   7.774  19.883  0.00  0.00    +0.000 N 
ATOM     11  H   UNL     1       2.444   7.038  20.440  0.00  0.00    +0.000 HD
BRANCH  10  12
ATOM     12  C   UNL     1       1.204   8.704  20.572  0.00  0.00    +0.000 A 
ATOM     13  C   UNL     1       1.145   8.778  21.969  0.00  0.00    +0.000 A 
ATOM     14  C   UNL     1       0.305   9.691  22.611  0.00  0.00    +0.000 A 
ATOM     15  C   UNL     1      -0.490  10.549  21.859  0.00  0.00    +0.000 A 
ATOM     16  C   UNL     1      -0.428  10.494  20.468  0.00  0.00    +0.000 A 
ATOM     17 CL   UNL     1      -1.428  11.545  19.539  0.00  0.00    +0.000 Cl
ATOM     18  C   UNL     1       0.420   9.589  19.821  0.00  0.00    +0.000 A 
ENDBRANCH  10  12
ENDBRANCH   1   9
BRANCH   6  19
ATOM     19  S   UNL     1       7.099   6.090  16.880  0.00  0.00    +0.000 S 
ATOM     20  O   UNL     1       7.860   5.254  17.779  0.00  0.00    +0.000 OA
ATOM     21  O   UNL     1       7.197   5.930  15.444  0.00  0.00    +0.000 OA
BRANCH  19  22
ATOM     22  N   UNL     1       7.440   7.717  17.183  0.00  0.00    +0.000 NA
ATOM     23  H   UNL     1       6.635   8.333  17.071  0.00  0.00    +0.000 HD
BRANCH  22  24
ATOM     24  C   UNL     1       8.240   8.000  18.384  0.00  0.00    +0.000 C 
BRANCH  24  25
ATOM     25  C   UNL     1       8.593   9.463  18.517  0.00  0.00    +0.000 A 
ATOM     26  C   UNL     1       8.111  10.405  17.581  0.00  0.00    +0.000 A 
ATOM     27  C   UNL     1       8.497  11.748  17.648  0.00  0.00    +0.000 A 
ATOM     28  C   UNL     1       9.363  12.118  18.653  0.00  0.00    +0.000 A 
ATOM     29  C   UNL     1       9.827  11.212  19.576  0.00  0.00    +0.000 A 
ATOM     30  C   UNL     1       9.458   9.885  19.542  0.00  0.00    +0.000 A 
ATOM     31  O   UNL     1      10.680  11.772  20.475  0.00  0.00    +0.000 OA
ATOM     32  C   UNL     1      10.748  13.123  19.973  0.00  0.00    +0.000 C 
ATOM     33  O   UNL     1       9.868  13.364  18.856  0.00  0.00    +0.000 OA
ENDBRANCH  24  25
ENDBRANCH  22  24
ENDBRANCH  19  22
ENDBRANCH   6  19
TORSDOF 6
ENDMDL
MODEL 6
REMARK VINA RESULT:      -8.6      0.680      1.327
REMARK  Name = 
REMARK  6 active torsions:
REMARK  status: ('A' for Active; 'I' for Inactive)
REMARK    1  A    between atoms: C_2  and  C_11
REMARK    2  A    between atoms: N_3  and  C_4
REMARK    3  A    between atoms: C_16  and  S_17
REMARK    4  A    between atoms: S_17  and  N_20
REMARK    5  A    between atoms: N_20  and  C_21
REMARK    6  A    between atoms: C_21  and  C_22
REMARK                            x       y       z     vdW  Elec       q    Type
REMARK                         _______ _______ _______ _____ _____    ______ ____
ROOT
ATOM      1  C   UNL     1       8.018   7.801  18.222  0.00  0.00    +0.000 A 
ATOM      2  C   UNL     1       8.318   6.990  19.327  0.00  0.00    +0.000 A 
ATOM      3  C   UNL     1       8.000   5.635  19.311  0.00  0.00    +0.000 A 
ATOM      4  C   UNL     1       7.387   5.085  18.191  0.00  0.00    +0.000 A 
ATOM      5  F   UNL     1       7.071   3.788  18.240  0.00  0.00    +0.000 F 
ATOM      6  C   UNL     1       7.122   5.867  17.073  0.00  0.00    +0.000 A 
ATOM      7  C   UNL     1       7.422   7.242  17.085  0.00  0.00    +0.000 A 
ENDROOT
BRANCH   1   9
ATOM      8  O   UNL     1       7.997   9.965  17.416  0.00  0.00    +0.000 OA
ATOM      9  C   UNL     1       8.449   9.220  18.283  0.00  0.00    +0.000 C 
ATOM     10  N   UNL     1       9.359   9.559  19.270  0.00  0.00    +0.000 N 
ATOM     11  H   UNL     1       9.808   8.810  19.784  0.00  0.00    +0.000 HD
BRANCH  10  12
ATOM     12  C   UNL     1       9.861  10.869  19.489  0.00  0.00    +0.000 A 
ATOM     13  C   UNL     1      10.810  11.469  18.654  0.00  0.00    +0.000 A 
ATOM     14  C   UNL     1      11.298  12.752  18.917  0.00  0.00    +0.000 A 
ATOM     15  C   UNL     1      10.837  13.456  20.024  0.00  0.00    +0.000 A 
ATOM     16  C   UNL     1       9.881  12.874  20.853  0.00  0.00    +0.000 A 
ATOM     17 CL   UNL     1       9.325  13.740  22.235  0.00  0.00    +0.000 Cl
ATOM     18  C   UNL     1       9.382  11.594  20.588  0.00  0.00    +0.000 A 
ENDBRANCH  10  12
ENDBRANCH   1   9
BRANCH   6  19
ATOM     19  S   UNL     1       6.339   5.157  15.653  0.00  0.00    +0.000 S 
ATOM     20  O   UNL     1       6.948   5.738  14.479  0.00  0.00    +0.000 OA
ATOM     21  O   UNL     1       6.347   3.725  15.871  0.00  0.00    +0.000 OA
BRANCH  19  22
ATOM     22  N   UNL     1       4.718   5.624  15.750  0.00  0.00    +0.000 NA
ATOM     23  H   UNL     1       4.076   4.976  15.297  0.00  0.00    +0.000 HD
BRANCH  22  24
ATOM     24  C   UNL     1       4.256   6.095  17.065  0.00  0.00    +0.000 C 
BRANCH  24  25
ATOM     25  C   UNL     1       3.600   5.003  17.876  0.00  0.00    +0.000 A 
ATOM     26  C   UNL     1       3.123   3.830  17.248  0.00  0.00    +0.000 A 
ATOM     27  C   UNL     1       2.441   2.850  17.977  0.00  0.00    +0.000 A 
ATOM     28  C   UNL     1       2.249   3.069  19.324  0.00  0.00    +0.000 A 
ATOM     29  C   UNL     1       2.720   4.200  19.946  0.00  0.00    +0.000 A 
ATOM     30  C   UNL     1       3.402   5.178  19.257  0.00  0.00    +0.000 A 
ATOM     31  O   UNL     1       2.416   4.231  21.271  0.00  0.00    +0.000 OA
ATOM     32  C   UNL     1       1.644   3.019  21.398  0.00  0.00    +0.000 C 
ATOM     33  O   UNL     1       1.587   2.246  20.181  0.00  0.00    +0.000 OA
ENDBRANCH  24  25
ENDBRANCH  22  24
ENDBRANCH  19  22
ENDBRANCH   6  19
TORSDOF 6
ENDMDL
MODEL 7
REMARK VINA RESULT:      -8.5      5.685      8.197
REMARK  Name = 
REMARK  6 active torsions:
REMARK  status: ('A' for Active; 'I' for Inactive)
REMARK    1  A    between atoms: C_2  and  C_11
REMARK    2  A    between atoms: N_3  and  C_4
REMARK    3  A    between atoms: C_16  and  S_17
REMARK    4  A    between atoms: S_17  and  N_20
REMARK    5  A    between atoms: N_20  and  C_21
REMARK    6  A    between atoms: C_21  and  C_22
REMARK                            x       y       z     vdW  Elec       q    Type
REMARK                         _______ _______ _______ _____ _____    ______ ____
ROOT
ATOM      1  C   UNL     1       1.136   9.156  20.690  0.00  0.00    +0.000 A 
ATOM      2  C   UNL     1       1.361   9.711  19.422  0.00  0.00    +0.000 A 
ATOM      3  C   UNL     1       1.880   8.929  18.394  0.00  0.00    +0.000 A 
ATOM      4  C   UNL     1       2.170   7.590  18.628  0.00  0.00    +0.000 A 
ATOM      5  F   UNL     1       2.698   6.892  17.619  0.00  0.00    +0.000 F 
ATOM      6  C   UNL     1       1.914   7.016  19.867  0.00  0.00    +0.000 A 
ATOM      7  C   UNL     1       1.408   7.802  20.919  0.00  0.00    +0.000 A 
ENDROOT
BRANCH   1   9
ATOM      8  O   UNL     1       0.762   9.757  22.888  0.00  0.00    +0.000 OA
ATOM      9  C   UNL     1       0.517  10.032  21.716  0.00  0.00    +0.000 C 
ATOM     10  N   UNL     1      -0.321  11.038  21.262  0.00  0.00    +0.000 N 
ATOM     11  H   UNL     1      -0.600  11.023  20.288  0.00  0.00    +0.000 HD
BRANCH  10  12
ATOM     12  C   UNL     1      -0.977  11.980  22.097  0.00  0.00    +0.000 A 
ATOM     13  C   UNL     1      -2.187  11.708  22.745  0.00  0.00    +0.000 A 
ATOM     14  C   UNL     1      -2.815  12.670  23.541  0.00  0.00    +0.000 A 
ATOM     15  C   UNL     1      -2.235  13.923  23.700  0.00  0.00    +0.000 A 
ATOM     16  C   UNL     1      -1.022  14.199  23.073  0.00  0.00    +0.000 A 
ATOM     17 CL   UNL     1      -0.314  15.759  23.258  0.00  0.00    +0.000 Cl
ATOM     18  C   UNL     1      -0.385  13.235  22.284  0.00  0.00    +0.000 A 
ENDBRANCH  10  12
ENDBRANCH   1   9
BRANCH   6  19
ATOM     19  S   UNL     1       2.291   5.310  20.155  0.00  0.00    +0.000 S 
ATOM     20  O   UNL     1       2.066   5.042  21.557  0.00  0.00    +0.000 OA
ATOM     21  O   UNL     1       1.588   4.570  19.128  0.00  0.00    +0.000 OA
BRANCH  19  22
ATOM     22  N   UNL     1       3.933   5.143  19.796  0.00  0.00    +0.000 NA
ATOM     23  H   UNL     1       4.548   5.346  20.583  0.00  0.00    +0.000 HD
BRANCH  22  24
ATOM     24  C   UNL     1       4.313   3.940  19.041  0.00  0.00    +0.000 C 
BRANCH  24  25
ATOM     25  C   UNL     1       5.285   4.238  17.923  0.00  0.00    +0.000 A 
ATOM     26  C   UNL     1       6.509   4.891  18.191  0.00  0.00    +0.000 A 
ATOM     27  C   UNL     1       7.378   5.244  17.153  0.00  0.00    +0.000 A 
ATOM     28  C   UNL     1       6.999   4.936  15.864  0.00  0.00    +0.000 A 
ATOM     29  C   UNL     1       5.817   4.290  15.595  0.00  0.00    +0.000 A 
ATOM     30  C   UNL     1       4.945   3.922  16.596  0.00  0.00    +0.000 A 
ATOM     31  O   UNL     1       5.623   4.091  14.264  0.00  0.00    +0.000 OA
ATOM     32  C   UNL     1       6.789   4.744  13.722  0.00  0.00    +0.000 C 
ATOM     33  O   UNL     1       7.697   5.227  14.734  0.00  0.00    +0.000 OA
ENDBRANCH  24  25
ENDBRANCH  22  24
ENDBRANCH  19  22
ENDBRANCH   6  19
TORSDOF 6
ENDMDL
MODEL 8
REMARK VINA RESULT:      -8.5      5.228      7.659
REMARK  Name = 
REMARK  6 active torsions:
REMARK  status: ('A' for Active; 'I' for Inactive)
REMARK    1  A    between atoms: C_2  and  C_11
REMARK    2  A    between atoms: N_3  and  C_4
REMARK    3  A    between atoms: C_16  and  S_17
REMARK    4  A    between atoms: S_17  and  N_20
REMARK    5  A    between atoms: N_20  and  C_21
REMARK    6  A    between atoms: C_21  and  C_22
REMARK                            x       y       z     vdW  Elec       q    Type
REMARK                         _______ _______ _______ _____ _____    ______ ____
ROOT
ATOM      1  C   UNL     1       1.660   8.136  20.237  0.00  0.00    +0.000 A 
ATOM      2  C   UNL     1       2.001   8.449  18.913  0.00  0.00    +0.000 A 
ATOM      3  C   UNL     1       2.331   7.438  18.015  0.00  0.00    +0.000 A 
ATOM      4  C   UNL     1       2.316   6.113  18.435  0.00  0.00    +0.000 A 
ATOM      5  F   UNL     1       2.675   5.183  17.545  0.00  0.00    +0.000 F 
ATOM      6  C   UNL     1       1.940   5.785  19.732  0.00  0.00    +0.000 A 
ATOM      7  C   UNL     1       1.623   6.801  20.653  0.00  0.00    +0.000 A 
ENDROOT
BRANCH   1   9
ATOM      8  O   UNL     1       1.591   9.180  22.296  0.00  0.00    +0.000 OA
ATOM      9  C   UNL     1       1.252   9.260  21.117  0.00  0.00    +0.000 C 
ATOM     10  N   UNL     1       0.483  10.261  20.546  0.00  0.00    +0.000 N 
ATOM     11  H   UNL     1       0.101  10.099  19.622  0.00  0.00    +0.000 HD
BRANCH  10  12
ATOM     12  C   UNL     1       0.025  11.417  21.230  0.00  0.00    +0.000 A 
ATOM     13  C   UNL     1       0.661  12.660  21.133  0.00  0.00    +0.000 A 
ATOM     14  C   UNL     1       0.194  13.770  21.841  0.00  0.00    +0.000 A 
ATOM     15  C   UNL     1      -0.924  13.650  22.658  0.00  0.00    +0.000 A 
ATOM     16  C   UNL     1      -1.575  12.422  22.749  0.00  0.00    +0.000 A 
ATOM     17 CL   UNL     1      -2.950  12.271  23.777  0.00  0.00    +0.000 Cl
ATOM     18  C   UNL     1      -1.117  11.310  22.034  0.00  0.00    +0.000 A 
ENDBRANCH  10  12
ENDBRANCH   1   9
BRANCH   6  19
ATOM     19  S   UNL     1       1.927   4.094  20.258  0.00  0.00    +0.000 S 
ATOM     20  O   UNL     1       2.320   4.064  21.647  0.00  0.00    +0.000 OA
ATOM     21  O   UNL     1       0.655   3.555  19.826  0.00  0.00    +0.000 OA
BRANCH  19  22
ATOM     22  N   UNL     1       3.096   3.320  19.314  0.00  0.00    +0.000 NA
ATOM     23  H   UNL     1       2.965   3.447  18.312  0.00  0.00    +0.000 HD
BRANCH  22  24
ATOM     24  C   UNL     1       4.491   3.473  19.755  0.00  0.00    +0.000 C 
BRANCH  24  25
ATOM     25  C   UNL     1       5.365   4.119  18.705  0.00  0.00    +0.000 A 
ATOM     26  C   UNL     1       6.108   5.282  19.007  0.00  0.00    +0.000 A 
ATOM     27  C   UNL     1       6.855   5.935  18.020  0.00  0.00    +0.000 A 
ATOM     28  C   UNL     1       6.839   5.407  16.748  0.00  0.00    +0.000 A 
ATOM     29  C   UNL     1       6.130   4.269  16.447  0.00  0.00    +0.000 A 
ATOM     30  C   UNL     1       5.392   3.599  17.399  0.00  0.00    +0.000 A 
ATOM     31  O   UNL     1       6.233   3.920  15.137  0.00  0.00    +0.000 OA
ATOM     32  C   UNL     1       7.037   5.007  14.633  0.00  0.00    +0.000 C 
ATOM     33  O   UNL     1       7.477   5.919  15.661  0.00  0.00    +0.000 OA
ENDBRANCH  24  25
ENDBRANCH  22  24
ENDBRANCH  19  22
ENDBRANCH   6  19
TORSDOF 6
ENDMDL
MODEL 9
REMARK VINA RESULT:      -8.4      5.670      8.029
REMARK  Name = 
REMARK  6 active torsions:
REMARK  status: ('A' for Active; 'I' for Inactive)
REMARK    1  A    between atoms: C_2  and  C_11
REMARK    2  A    between atoms: N_3  and  C_4
REMARK    3  A    between atoms: C_16  and  S_17
REMARK    4  A    between atoms: S_17  and  N_20
REMARK    5  A    between atoms: N_20  and  C_21
REMARK    6  A    between atoms: C_21  and  C_22
REMARK                            x       y       z     vdW  Elec       q    Type
REMARK                         _______ _______ _______ _____ _____    ______ ____
ROOT
ATOM      1  C   UNL     1       0.909   9.560  19.453  0.00  0.00    +0.000 A 
ATOM      2  C   UNL     1       1.551  10.037  18.301  0.00  0.00    +0.000 A 
ATOM      3  C   UNL     1       2.434   9.222  17.599  0.00  0.00    +0.000 A 
ATOM      4  C   UNL     1       2.673   7.926  18.042  0.00  0.00    +0.000 A 
ATOM      5  F   UNL     1       3.554   7.195  17.354  0.00  0.00    +0.000 F 
ATOM      6  C   UNL     1       2.011   7.425  19.158  0.00  0.00    +0.000 A 
ATOM      7  C   UNL     1       1.132   8.248  19.885  0.00  0.00    +0.000 A 
ENDROOT
BRANCH   1   9
ATOM      8  O   UNL     1      -1.124  10.656  19.504  0.00  0.00    +0.000 OA
ATOM      9  C   UNL     1      -0.071  10.463  20.108  0.00  0.00    +0.000 C 
ATOM     10  N   UNL     1       0.313  11.046  21.304  0.00  0.00    +0.000 N 
ATOM     11  H   UNL     1       1.284  10.967  21.584  0.00  0.00    +0.000 HD
BRANCH  10  12
ATOM     12  C   UNL     1      -0.502  11.914  22.077  0.00  0.00    +0.000 A 
ATOM     13  C   UNL     1      -1.611  11.468  22.805  0.00  0.00    +0.000 A 
ATOM     14  C   UNL     1      -2.403  12.358  23.536  0.00  0.00    +0.000 A 
ATOM     15  C   UNL     1      -2.093  13.713  23.548  0.00  0.00    +0.000 A 
ATOM     16  C   UNL     1      -0.982  14.165  22.840  0.00  0.00    +0.000 A 
ATOM     17 CL   UNL     1      -0.609  15.847  22.843  0.00  0.00    +0.000 Cl
ATOM     18  C   UNL     1      -0.179  13.277  22.116  0.00  0.00    +0.000 A 
ENDBRANCH  10  12
ENDBRANCH   1   9
BRANCH   6  19
ATOM     19  S   UNL     1       2.326   5.775  19.715  0.00  0.00    +0.000 S 
ATOM     20  O   UNL     1       1.669   5.610  20.992  0.00  0.00    +0.000 OA
ATOM     21  O   UNL     1       2.014   4.912  18.595  0.00  0.00    +0.000 OA
BRANCH  19  22
ATOM     22  N   UNL     1       4.001   5.676  19.915  0.00  0.00    +0.000 NA
ATOM     23  H   UNL     1       4.321   5.959  20.840  0.00  0.00    +0.000 HD
BRANCH  22  24
ATOM     24  C   UNL     1       4.643   4.451  19.414  0.00  0.00    +0.000 C 
BRANCH  24  25
ATOM     25  C   UNL     1       5.506   4.703  18.199  0.00  0.00    +0.000 A 
ATOM     26  C   UNL     1       6.526   5.680  18.233  0.00  0.00    +0.000 A 
ATOM     27  C   UNL     1       7.275   5.977  17.089  0.00  0.00    +0.000 A 
ATOM     28  C   UNL     1       6.983   5.288  15.933  0.00  0.00    +0.000 A 
ATOM     29  C   UNL     1       6.002   4.327  15.893  0.00  0.00    +0.000 A 
ATOM     30  C   UNL     1       5.253   4.006  17.004  0.00  0.00    +0.000 A 
ATOM     31  O   UNL     1       5.861   3.775  14.658  0.00  0.00    +0.000 OA
ATOM     32  C   UNL     1       6.824   4.545  13.910  0.00  0.00    +0.000 C 
ATOM     33  O   UNL     1       7.583   5.462  14.725  0.00  0.00    +0.000 OA
ENDBRANCH  24  25
ENDBRANCH  22  24
ENDBRANCH  19  22
ENDBRANCH   6  19
TORSDOF 6
ENDMDL
