MODEL 1
REMARK VINA RESULT:      -6.8      0.000      0.000
REMARK  Name = 
REMARK  8 active torsions:
REMARK  status: ('A' for Active; 'I' for Inactive)
REMARK    1  A    between atoms: C_1  and  N_2
REMARK    2  A    between atoms: C_6  and  S_7
REMARK    3  A    between atoms: S_7  and  C_8
REMARK    4  A    between atoms: C_8  and  C_9
REMARK    5  A    between atoms: N_11  and  N_12
REMARK    6  A    between atoms: C_16  and  C_17
REMARK    7  A    between atoms: C_20  and  C_21
REMARK    8  A    between atoms: N_25  and  C_26
REMARK                            x       y       z     vdW  Elec       q    Type
REMARK                         _______ _______ _______ _____ _____    ______ ____
ROOT
ATOM      1  N   UNL     1       0.996   8.647  20.352  0.00  0.00    +0.000 NA
ATOM      2  C   UNL     1       0.316   9.425  21.133  0.00  0.00    +0.000 A 
ATOM      3  S   UNL     1      -0.070   8.619  22.715  0.00  0.00    +0.000 S 
ATOM      4  C   UNL     1      -0.815  10.055  23.323  0.00  0.00    +0.000 A 
ATOM      5  C   UNL     1      -0.831  11.039  22.419  0.00  0.00    +0.000 A 
ATOM      6  N   UNL     1      -0.225  10.734  21.157  0.00  0.00    +0.000 N 
ENDROOT
BRANCH   5   7
ATOM      7  C   UNL     1      -1.502  12.302  22.756  0.00  0.00    +0.000 A 
ATOM      8  C   UNL     1      -2.903  12.357  22.873  0.00  0.00    +0.000 A 
ATOM      9  C   UNL     1      -3.537  13.531  23.300  0.00  0.00    +0.000 A 
ATOM     10  C   UNL     1      -2.787  14.683  23.551  0.00  0.00    +0.000 A 
ATOM     11  C   UNL     1      -1.397  14.650  23.387  0.00  0.00    +0.000 A 
ATOM     12  C   UNL     1      -0.757  13.466  22.995  0.00  0.00    +0.000 A 
BRANCH  10  13
ATOM     13  C   UNL     1      -3.433  15.886  23.980  0.00  0.00    +0.000 C 
ATOM     14  N   UNL     1      -3.964  16.863  24.327  0.00  0.00    +0.000 NA
ENDBRANCH  10  13
ENDBRANCH   5   7
BRANCH   6  15
ATOM     15  C   UNL     1      -0.237  11.619  20.032  0.00  0.00    +0.000 A 
ATOM     16  C   UNL     1      -1.275  11.628  19.087  0.00  0.00    +0.000 A 
ATOM     17  C   UNL     1      -1.331  12.538  18.030  0.00  0.00    +0.000 A 
ATOM     18  C   UNL     1      -0.387  13.547  17.945  0.00  0.00    +0.000 A 
ATOM     19  C   UNL     1       0.663  13.567  18.853  0.00  0.00    +0.000 A 
ATOM     20  C   UNL     1       0.776  12.564  19.821  0.00  0.00    +0.000 A 
ENDBRANCH   6  15
BRANCH   1  23
ATOM     21  C   UNL     1       2.313   8.259  18.393  0.00  0.00    +0.000 C 
ATOM     22  O   UNL     1       2.589   8.618  17.246  0.00  0.00    +0.000 OA
ATOM     23  N   UNL     1       1.546   9.091  19.198  0.00  0.00    +0.000 N 
ATOM     24  H   UNL     1       1.255   9.979  18.797  0.00  0.00    +0.000 HD
BRANCH  21  25
ATOM     25  C   UNL     1       2.697   6.916  19.010  0.00  0.00    +0.000 C 
BRANCH  25  26
ATOM     26  S   UNL     1       3.428   5.774  17.784  0.00  0.00    +0.000 S 
BRANCH  26  32
ATOM     27  C   UNL     1       4.283   3.137  19.512  0.00  0.00    +0.000 C 
ATOM     28  N   UNL     1       3.018   3.281  18.848  0.00  0.00    +0.000 N 
ATOM     29  C   UNL     1       2.016   2.349  18.854  0.00  0.00    +0.000 A 
ATOM     30  N   UNL     1       1.001   2.786  18.150  0.00  0.00    +0.000 NA
ATOM     31  N   UNL     1       1.333   4.037  17.670  0.00  0.00    +0.000 NA
ATOM     32  C   UNL     1       2.542   4.324  18.098  0.00  0.00    +0.000 A 
ENDBRANCH  26  32
ENDBRANCH  25  26
ENDBRANCH  21  25
ENDBRANCH   1  23
TORSDOF 7
ENDMDL
MODEL 2
REMARK VINA RESULT:      -6.7      0.807      1.594
REMARK  Name = 
REMARK  8 active torsions:
REMARK  status: ('A' for Active; 'I' for Inactive)
REMARK    1  A    between atoms: C_1  and  N_2
REMARK    2  A    between atoms: C_6  and  S_7
REMARK    3  A    between atoms: S_7  and  C_8
REMARK    4  A    between atoms: C_8  and  C_9
REMARK    5  A    between atoms: N_11  and  N_12
REMARK    6  A    between atoms: C_16  and  C_17
REMARK    7  A    between atoms: C_20  and  C_21
REMARK    8  A    between atoms: N_25  and  C_26
REMARK                            x       y       z     vdW  Elec       q    Type
REMARK                         _______ _______ _______ _____ _____    ______ ____
ROOT
ATOM      1  N   UNL     1       1.027   8.874  20.311  0.00  0.00    +0.000 NA
ATOM      2  C   UNL     1       0.326   9.567  21.151  0.00  0.00    +0.000 A 
ATOM      3  S   UNL     1       0.061   8.667  22.707  0.00  0.00    +0.000 S 
ATOM      4  C   UNL     1      -0.757  10.018  23.409  0.00  0.00    +0.000 A 
ATOM      5  C   UNL     1      -0.878  11.037  22.553  0.00  0.00    +0.000 A 
ATOM      6  N   UNL     1      -0.303  10.832  21.257  0.00  0.00    +0.000 N 
ENDROOT
BRANCH   5   7
ATOM      7  C   UNL     1      -1.620  12.234  22.973  0.00  0.00    +0.000 A 
ATOM      8  C   UNL     1      -3.016  12.184  23.143  0.00  0.00    +0.000 A 
ATOM      9  C   UNL     1      -3.712  13.290  23.648  0.00  0.00    +0.000 A 
ATOM     10  C   UNL     1      -3.034  14.480  23.924  0.00  0.00    +0.000 A 
ATOM     11  C   UNL     1      -1.652  14.553  23.708  0.00  0.00    +0.000 A 
ATOM     12  C   UNL     1      -0.948  13.436  23.238  0.00  0.00    +0.000 A 
BRANCH  10  13
ATOM     13  C   UNL     1      -3.744  15.614  24.432  0.00  0.00    +0.000 C 
ATOM     14  N   UNL     1      -4.326  16.536  24.842  0.00  0.00    +0.000 NA
ENDBRANCH  10  13
ENDBRANCH   5   7
BRANCH   6  15
ATOM     15  C   UNL     1      -0.420  11.763  20.175  0.00  0.00    +0.000 A 
ATOM     16  C   UNL     1       0.496  12.807  19.972  0.00  0.00    +0.000 A 
ATOM     17  C   UNL     1       0.431  13.671  18.878  0.00  0.00    +0.000 A 
ATOM     18  C   UNL     1      -0.508  13.451  17.887  0.00  0.00    +0.000 A 
ATOM     19  C   UNL     1      -1.441  12.436  18.054  0.00  0.00    +0.000 A 
ATOM     20  C   UNL     1      -1.445  11.669  19.224  0.00  0.00    +0.000 A 
ENDBRANCH   6  15
BRANCH   1  23
ATOM     21  C   UNL     1       2.213   8.642  18.246  0.00  0.00    +0.000 C 
ATOM     22  O   UNL     1       2.412   9.087  17.114  0.00  0.00    +0.000 OA
ATOM     23  N   UNL     1       1.498   9.406  19.159  0.00  0.00    +0.000 N 
ATOM     24  H   UNL     1       1.179  10.319  18.845  0.00  0.00    +0.000 HD
BRANCH  21  25
ATOM     25  C   UNL     1       2.641   7.261  18.736  0.00  0.00    +0.000 C 
BRANCH  25  26
ATOM     26  S   UNL     1       3.913   6.507  17.659  0.00  0.00    +0.000 S 
BRANCH  26  32
ATOM     27  C   UNL     1       2.028   3.839  17.657  0.00  0.00    +0.000 C 
ATOM     28  N   UNL     1       3.280   3.931  18.353  0.00  0.00    +0.000 N 
ATOM     29  C   UNL     1       3.843   2.929  19.094  0.00  0.00    +0.000 A 
ATOM     30  N   UNL     1       4.980   3.338  19.601  0.00  0.00    +0.000 NA
ATOM     31  N   UNL     1       5.179   4.639  19.185  0.00  0.00    +0.000 NA
ATOM     32  C   UNL     1       4.156   4.982  18.435  0.00  0.00    +0.000 A 
ENDBRANCH  26  32
ENDBRANCH  25  26
ENDBRANCH  21  25
ENDBRANCH   1  23
TORSDOF 7
ENDMDL
MODEL 3
REMARK VINA RESULT:      -6.7      3.042      4.803
REMARK  Name = 
REMARK  8 active torsions:
REMARK  status: ('A' for Active; 'I' for Inactive)
REMARK    1  A    between atoms: C_1  and  N_2
REMARK    2  A    between atoms: C_6  and  S_7
REMARK    3  A    between atoms: S_7  and  C_8
REMARK    4  A    between atoms: C_8  and  C_9
REMARK    5  A    between atoms: N_11  and  N_12
REMARK    6  A    between atoms: C_16  and  C_17
REMARK    7  A    between atoms: C_20  and  C_21
REMARK    8  A    between atoms: N_25  and  C_26
REMARK                            x       y       z     vdW  Elec       q    Type
REMARK                         _______ _______ _______ _____ _____    ______ ____
ROOT
ATOM      1  N   UNL     1       2.631   6.446  19.487  0.00  0.00    +0.000 NA
ATOM      2  C   UNL     1       2.277   7.648  19.158  0.00  0.00    +0.000 A 
ATOM      3  S   UNL     1       2.849   8.084  17.490  0.00  0.00    +0.000 S 
ATOM      4  C   UNL     1       2.049   9.614  17.559  0.00  0.00    +0.000 A 
ATOM      5  C   UNL     1       1.450   9.818  18.737  0.00  0.00    +0.000 A 
ATOM      6  N   UNL     1       1.563   8.751  19.686  0.00  0.00    +0.000 N 
ENDROOT
BRANCH   5   7
ATOM      7  C   UNL     1       0.790  11.108  18.983  0.00  0.00    +0.000 A 
ATOM      8  C   UNL     1      -0.587  11.263  18.739  0.00  0.00    +0.000 A 
ATOM      9  C   UNL     1      -1.241  12.455  19.075  0.00  0.00    +0.000 A 
ATOM     10  C   UNL     1      -0.516  13.531  19.594  0.00  0.00    +0.000 A 
ATOM     11  C   UNL     1       0.864  13.401  19.791  0.00  0.00    +0.000 A 
ATOM     12  C   UNL     1       1.514  12.197  19.490  0.00  0.00    +0.000 A 
BRANCH  10  13
ATOM     13  C   UNL     1      -1.181  14.753  19.931  0.00  0.00    +0.000 C 
ATOM     14  N   UNL     1      -1.717  15.750  20.204  0.00  0.00    +0.000 NA
ENDBRANCH  10  13
ENDBRANCH   5   7
BRANCH   6  15
ATOM     15  C   UNL     1       1.079   8.826  21.031  0.00  0.00    +0.000 A 
ATOM     16  C   UNL     1       1.910   9.145  22.117  0.00  0.00    +0.000 A 
ATOM     17  C   UNL     1       1.432   9.293  23.420  0.00  0.00    +0.000 A 
ATOM     18  C   UNL     1       0.071   9.224  23.662  0.00  0.00    +0.000 A 
ATOM     19  C   UNL     1      -0.784   8.899  22.617  0.00  0.00    +0.000 A 
ATOM     20  C   UNL     1      -0.270   8.619  21.347  0.00  0.00    +0.000 A 
ENDBRANCH   6  15
BRANCH   1  23
ATOM     21  C   UNL     1       2.189   4.462  20.747  0.00  0.00    +0.000 C 
ATOM     22  O   UNL     1       1.992   3.967  21.859  0.00  0.00    +0.000 OA
ATOM     23  N   UNL     1       2.169   5.842  20.607  0.00  0.00    +0.000 N 
ATOM     24  H   UNL     1       1.976   6.388  21.443  0.00  0.00    +0.000 HD
BRANCH  21  25
ATOM     25  C   UNL     1       2.523   3.675  19.482  0.00  0.00    +0.000 C 
BRANCH  25  26
ATOM     26  S   UNL     1       4.165   2.875  19.577  0.00  0.00    +0.000 S 
BRANCH  26  32
ATOM     27  C   UNL     1       4.591   3.958  16.524  0.00  0.00    +0.000 C 
ATOM     28  N   UNL     1       5.277   4.496  17.665  0.00  0.00    +0.000 N 
ATOM     29  C   UNL     1       6.185   5.519  17.626  0.00  0.00    +0.000 A 
ATOM     30  N   UNL     1       6.630   5.762  18.834  0.00  0.00    +0.000 NA
ATOM     31  N   UNL     1       6.002   4.885  19.695  0.00  0.00    +0.000 NA
ATOM     32  C   UNL     1       5.191   4.133  18.984  0.00  0.00    +0.000 A 
ENDBRANCH  26  32
ENDBRANCH  25  26
ENDBRANCH  21  25
ENDBRANCH   1  23
TORSDOF 7
ENDMDL
MODEL 4
REMARK VINA RESULT:      -6.7      3.116      4.790
REMARK  Name = 
REMARK  8 active torsions:
REMARK  status: ('A' for Active; 'I' for Inactive)
REMARK    1  A    between atoms: C_1  and  N_2
REMARK    2  A    between atoms: C_6  and  S_7
REMARK    3  A    between atoms: S_7  and  C_8
REMARK    4  A    between atoms: C_8  and  C_9
REMARK    5  A    between atoms: N_11  and  N_12
REMARK    6  A    between atoms: C_16  and  C_17
REMARK    7  A    between atoms: C_20  and  C_21
REMARK    8  A    between atoms: N_25  and  C_26
REMARK                            x       y       z     vdW  Elec       q    Type
REMARK                         _______ _______ _______ _____ _____    ______ ____
ROOT
ATOM      1  N   UNL     1       2.637   6.220  19.604  0.00  0.00    +0.000 NA
ATOM      2  C   UNL     1       2.315   7.413  19.218  0.00  0.00    +0.000 A 
ATOM      3  S   UNL     1       2.914   7.760  17.538  0.00  0.00    +0.000 S 
ATOM      4  C   UNL     1       2.149   9.309  17.529  0.00  0.00    +0.000 A 
ATOM      5  C   UNL     1       1.542   9.581  18.689  0.00  0.00    +0.000 A 
ATOM      6  N   UNL     1       1.621   8.555  19.687  0.00  0.00    +0.000 N 
ENDROOT
BRANCH   5   7
ATOM      7  C   UNL     1       0.910  10.894  18.870  0.00  0.00    +0.000 A 
ATOM      8  C   UNL     1      -0.491  11.022  18.841  0.00  0.00    +0.000 A 
ATOM      9  C   UNL     1      -1.101  12.252  19.121  0.00  0.00    +0.000 A 
ATOM     10  C   UNL     1      -0.319  13.384  19.366  0.00  0.00    +0.000 A 
ATOM     11  C   UNL     1       1.077  13.275  19.345  0.00  0.00    +0.000 A 
ATOM     12  C   UNL     1       1.689  12.038  19.101  0.00  0.00    +0.000 A 
BRANCH  10  13
ATOM     13  C   UNL     1      -0.939  14.643  19.644  0.00  0.00    +0.000 C 
ATOM     14  N   UNL     1      -1.445  15.666  19.875  0.00  0.00    +0.000 NA
ENDBRANCH  10  13
ENDBRANCH   5   7
BRANCH   6  15
ATOM     15  C   UNL     1       1.125   8.701  21.022  0.00  0.00    +0.000 A 
ATOM     16  C   UNL     1       1.940   9.105  22.092  0.00  0.00    +0.000 A 
ATOM     17  C   UNL     1       1.449   9.323  23.379  0.00  0.00    +0.000 A 
ATOM     18  C   UNL     1       0.089   9.238  23.617  0.00  0.00    +0.000 A 
ATOM     19  C   UNL     1      -0.752   8.831  22.588  0.00  0.00    +0.000 A 
ATOM     20  C   UNL     1      -0.221   8.484  21.342  0.00  0.00    +0.000 A 
ENDBRANCH   6  15
BRANCH   1  23
ATOM     21  C   UNL     1       2.097   4.303  20.930  0.00  0.00    +0.000 C 
ATOM     22  O   UNL     1       1.880   3.856  22.059  0.00  0.00    +0.000 OA
ATOM     23  N   UNL     1       2.150   5.678  20.745  0.00  0.00    +0.000 N 
ATOM     24  H   UNL     1       1.991   6.260  21.563  0.00  0.00    +0.000 HD
BRANCH  21  25
ATOM     25  C   UNL     1       2.382   3.460  19.690  0.00  0.00    +0.000 C 
BRANCH  25  26
ATOM     26  S   UNL     1       4.130   2.929  19.600  0.00  0.00    +0.000 S 
BRANCH  26  32
ATOM     27  C   UNL     1       6.289   5.359  19.263  0.00  0.00    +0.000 C 
ATOM     28  N   UNL     1       5.584   4.759  18.166  0.00  0.00    +0.000 N 
ATOM     29  C   UNL     1       5.722   5.118  16.852  0.00  0.00    +0.000 A 
ATOM     30  N   UNL     1       4.934   4.383  16.107  0.00  0.00    +0.000 NA
ATOM     31  N   UNL     1       4.261   3.514  16.942  0.00  0.00    +0.000 NA
ATOM     32  C   UNL     1       4.661   3.746  18.172  0.00  0.00    +0.000 A 
ENDBRANCH  26  32
ENDBRANCH  25  26
ENDBRANCH  21  25
ENDBRANCH   1  23
TORSDOF 7
ENDMDL
MODEL 5
REMARK VINA RESULT:      -6.7      0.272      1.248
REMARK  Name = 
REMARK  8 active torsions:
REMARK  status: ('A' for Active; 'I' for Inactive)
REMARK    1  A    between atoms: C_1  and  N_2
REMARK    2  A    between atoms: C_6  and  S_7
REMARK    3  A    between atoms: S_7  and  C_8
REMARK    4  A    between atoms: C_8  and  C_9
REMARK    5  A    between atoms: N_11  and  N_12
REMARK    6  A    between atoms: C_16  and  C_17
REMARK    7  A    between atoms: C_20  and  C_21
REMARK    8  A    between atoms: N_25  and  C_26
REMARK                            x       y       z     vdW  Elec       q    Type
REMARK                         _______ _______ _______ _____ _____    ______ ____
ROOT
ATOM      1  N   UNL     1       0.882   8.798  20.419  0.00  0.00    +0.000 NA
ATOM      2  C   UNL     1       0.197   9.561  21.210  0.00  0.00    +0.000 A 
ATOM      3  S   UNL     1      -0.117   8.760  22.810  0.00  0.00    +0.000 S 
ATOM      4  C   UNL     1      -0.895  10.176  23.424  0.00  0.00    +0.000 A 
ATOM      5  C   UNL     1      -0.970  11.149  22.511  0.00  0.00    +0.000 A 
ATOM      6  N   UNL     1      -0.388  10.851  21.236  0.00  0.00    +0.000 N 
ENDROOT
BRANCH   5   7
ATOM      7  C   UNL     1      -1.674  12.392  22.853  0.00  0.00    +0.000 A 
ATOM      8  C   UNL     1      -0.952  13.566  23.137  0.00  0.00    +0.000 A 
ATOM      9  C   UNL     1      -1.618  14.778  23.357  0.00  0.00    +0.000 A 
ATOM     10  C   UNL     1      -3.015  14.820  23.363  0.00  0.00    +0.000 A 
ATOM     11  C   UNL     1      -3.741  13.645  23.132  0.00  0.00    +0.000 A 
ATOM     12  C   UNL     1      -3.075  12.438  22.876  0.00  0.00    +0.000 A 
BRANCH  10  13
ATOM     13  C   UNL     1      -3.699  16.055  23.595  0.00  0.00    +0.000 C 
ATOM     14  N   UNL     1      -4.258  17.058  23.788  0.00  0.00    +0.000 NA
ENDBRANCH  10  13
ENDBRANCH   5   7
BRANCH   6  15
ATOM     15  C   UNL     1      -0.460  11.723  20.102  0.00  0.00    +0.000 A 
ATOM     16  C   UNL     1       0.520  12.690  19.828  0.00  0.00    +0.000 A 
ATOM     17  C   UNL     1       0.496  13.491  18.686  0.00  0.00    +0.000 A 
ATOM     18  C   UNL     1      -0.471  13.276  17.719  0.00  0.00    +0.000 A 
ATOM     19  C   UNL     1      -1.466  12.337  17.957  0.00  0.00    +0.000 A 
ATOM     20  C   UNL     1      -1.502  11.641  19.170  0.00  0.00    +0.000 A 
ENDBRANCH   6  15
BRANCH   1  23
ATOM     21  C   UNL     1       2.142   8.427  18.419  0.00  0.00    +0.000 C 
ATOM     22  O   UNL     1       2.373   8.787  17.263  0.00  0.00    +0.000 OA
ATOM     23  N   UNL     1       1.386   9.247  19.246  0.00  0.00    +0.000 N 
ATOM     24  H   UNL     1       1.064  10.128  18.852  0.00  0.00    +0.000 HD
BRANCH  21  25
ATOM     25  C   UNL     1       2.571   7.095  19.028  0.00  0.00    +0.000 C 
BRANCH  25  26
ATOM     26  S   UNL     1       3.393   6.009  17.808  0.00  0.00    +0.000 S 
BRANCH  26  32
ATOM     27  C   UNL     1       4.297   3.357  19.489  0.00  0.00    +0.000 C 
ATOM     28  N   UNL     1       3.047   3.474  18.794  0.00  0.00    +0.000 N 
ATOM     29  C   UNL     1       2.081   2.506  18.746  0.00  0.00    +0.000 A 
ATOM     30  N   UNL     1       1.070   2.925  18.025  0.00  0.00    +0.000 NA
ATOM     31  N   UNL     1       1.368   4.199  17.588  0.00  0.00    +0.000 NA
ATOM     32  C   UNL     1       2.553   4.519  18.058  0.00  0.00    +0.000 A 
ENDBRANCH  26  32
ENDBRANCH  25  26
ENDBRANCH  21  25
ENDBRANCH   1  23
TORSDOF 7
ENDMDL
MODEL 6
REMARK VINA RESULT:      -6.6      1.039      1.359
REMARK  Name = 
REMARK  8 active torsions:
REMARK  status: ('A' for Active; 'I' for Inactive)
REMARK    1  A    between atoms: C_1  and  N_2
REMARK    2  A    between atoms: C_6  and  S_7
REMARK    3  A    between atoms: S_7  and  C_8
REMARK    4  A    between atoms: C_8  and  C_9
REMARK    5  A    between atoms: N_11  and  N_12
REMARK    6  A    between atoms: C_16  and  C_17
REMARK    7  A    between atoms: C_20  and  C_21
REMARK    8  A    between atoms: N_25  and  C_26
REMARK                            x       y       z     vdW  Elec       q    Type
REMARK                         _______ _______ _______ _____ _____    ______ ____
ROOT
ATOM      1  N   UNL     1       1.032   8.555  20.425  0.00  0.00    +0.000 NA
ATOM      2  C   UNL     1       0.366   9.363  21.186  0.00  0.00    +0.000 A 
ATOM      3  S   UNL     1       0.038   8.632  22.817  0.00  0.00    +0.000 S 
ATOM      4  C   UNL     1      -0.707  10.088  23.377  0.00  0.00    +0.000 A 
ATOM      5  C   UNL     1      -0.763  11.026  22.426  0.00  0.00    +0.000 A 
ATOM      6  N   UNL     1      -0.191  10.665  21.163  0.00  0.00    +0.000 N 
ENDROOT
BRANCH   5   7
ATOM      7  C   UNL     1      -1.438  12.296  22.721  0.00  0.00    +0.000 A 
ATOM      8  C   UNL     1      -2.830  12.334  22.923  0.00  0.00    +0.000 A 
ATOM      9  C   UNL     1      -3.463  13.523  23.311  0.00  0.00    +0.000 A 
ATOM     10  C   UNL     1      -2.724  14.702  23.436  0.00  0.00    +0.000 A 
ATOM     11  C   UNL     1      -1.346  14.683  23.187  0.00  0.00    +0.000 A 
ATOM     12  C   UNL     1      -0.706  13.487  22.833  0.00  0.00    +0.000 A 
BRANCH  10  13
ATOM     13  C   UNL     1      -3.368  15.919  23.825  0.00  0.00    +0.000 C 
ATOM     14  N   UNL     1      -3.897  16.909  24.138  0.00  0.00    +0.000 NA
ENDBRANCH  10  13
ENDBRANCH   5   7
BRANCH   6  15
ATOM     15  C   UNL     1      -0.247  11.493  19.996  0.00  0.00    +0.000 A 
ATOM     16  C   UNL     1      -1.340  11.485  19.114  0.00  0.00    +0.000 A 
ATOM     17  C   UNL     1      -1.436  12.342  18.018  0.00  0.00    +0.000 A 
ATOM     18  C   UNL     1      -0.473  13.318  17.825  0.00  0.00    +0.000 A 
ATOM     19  C   UNL     1       0.630  13.353  18.668  0.00  0.00    +0.000 A 
ATOM     20  C   UNL     1       0.775  12.397  19.678  0.00  0.00    +0.000 A 
ENDBRANCH   6  15
BRANCH   1  23
ATOM     21  C   UNL     1       2.357   8.110  18.483  0.00  0.00    +0.000 C 
ATOM     22  O   UNL     1       2.599   8.400  17.309  0.00  0.00    +0.000 OA
ATOM     23  N   UNL     1       1.541   8.946  19.234  0.00  0.00    +0.000 N 
ATOM     24  H   UNL     1       1.187   9.780  18.772  0.00  0.00    +0.000 HD
BRANCH  21  25
ATOM     25  C   UNL     1       2.835   6.846  19.193  0.00  0.00    +0.000 C 
BRANCH  25  26
ATOM     26  S   UNL     1       2.119   5.329  18.465  0.00  0.00    +0.000 S 
BRANCH  26  32
ATOM     27  C   UNL     1       0.836   2.339  18.756  0.00  0.00    +0.000 C 
ATOM     28  N   UNL     1       1.431   3.061  19.844  0.00  0.00    +0.000 N 
ATOM     29  C   UNL     1       1.541   2.600  21.128  0.00  0.00    +0.000 A 
ATOM     30  N   UNL     1       2.125   3.504  21.875  0.00  0.00    +0.000 NA
ATOM     31  N   UNL     1       2.414   4.588  21.070  0.00  0.00    +0.000 NA
ATOM     32  C   UNL     1       1.996   4.309  19.856  0.00  0.00    +0.000 A 
ENDBRANCH  26  32
ENDBRANCH  25  26
ENDBRANCH  21  25
ENDBRANCH   1  23
TORSDOF 7
ENDMDL
MODEL 7
REMARK VINA RESULT:      -6.6      0.707      1.529
REMARK  Name = 
REMARK  8 active torsions:
REMARK  status: ('A' for Active; 'I' for Inactive)
REMARK    1  A    between atoms: C_1  and  N_2
REMARK    2  A    between atoms: C_6  and  S_7
REMARK    3  A    between atoms: S_7  and  C_8
REMARK    4  A    between atoms: C_8  and  C_9
REMARK    5  A    between atoms: N_11  and  N_12
REMARK    6  A    between atoms: C_16  and  C_17
REMARK    7  A    between atoms: C_20  and  C_21
REMARK    8  A    between atoms: N_25  and  C_26
REMARK                            x       y       z     vdW  Elec       q    Type
REMARK                         _______ _______ _______ _____ _____    ______ ____
ROOT
ATOM      1  N   UNL     1       1.128   8.678  20.338  0.00  0.00    +0.000 NA
ATOM      2  C   UNL     1       0.419   9.434  21.114  0.00  0.00    +0.000 A 
ATOM      3  S   UNL     1       0.048   8.614  22.692  0.00  0.00    +0.000 S 
ATOM      4  C   UNL     1      -0.746  10.025  23.298  0.00  0.00    +0.000 A 
ATOM      5  C   UNL     1      -0.786  11.010  22.395  0.00  0.00    +0.000 A 
ATOM      6  N   UNL     1      -0.162  10.725  21.137  0.00  0.00    +0.000 N 
ENDROOT
BRANCH   5   7
ATOM      7  C   UNL     1      -1.497  12.251  22.729  0.00  0.00    +0.000 A 
ATOM      8  C   UNL     1      -0.781  13.424  23.030  0.00  0.00    +0.000 A 
ATOM      9  C   UNL     1      -1.453  14.635  23.242  0.00  0.00    +0.000 A 
ATOM     10  C   UNL     1      -2.850  14.676  23.223  0.00  0.00    +0.000 A 
ATOM     11  C   UNL     1      -3.570  13.501  22.974  0.00  0.00    +0.000 A 
ATOM     12  C   UNL     1      -2.899  12.296  22.726  0.00  0.00    +0.000 A 
BRANCH  10  13
ATOM     13  C   UNL     1      -3.539  15.910  23.447  0.00  0.00    +0.000 C 
ATOM     14  N   UNL     1      -4.104  16.911  23.632  0.00  0.00    +0.000 NA
ENDBRANCH  10  13
ENDBRANCH   5   7
BRANCH   6  15
ATOM     15  C   UNL     1      -0.194  11.611  20.012  0.00  0.00    +0.000 A 
ATOM     16  C   UNL     1      -1.231  11.597  19.066  0.00  0.00    +0.000 A 
ATOM     17  C   UNL     1      -1.307  12.507  18.011  0.00  0.00    +0.000 A 
ATOM     18  C   UNL     1      -0.387  13.537  17.927  0.00  0.00    +0.000 A 
ATOM     19  C   UNL     1       0.661  13.581  18.837  0.00  0.00    +0.000 A 
ATOM     20  C   UNL     1       0.797  12.580  19.803  0.00  0.00    +0.000 A 
ENDBRANCH   6  15
BRANCH   1  23
ATOM     21  C   UNL     1       2.349   8.298  18.316  0.00  0.00    +0.000 C 
ATOM     22  O   UNL     1       2.614   8.696  17.179  0.00  0.00    +0.000 OA
ATOM     23  N   UNL     1       1.672   9.140  19.187  0.00  0.00    +0.000 N 
ATOM     24  H   UNL     1       1.435  10.067  18.842  0.00  0.00    +0.000 HD
BRANCH  21  25
ATOM     25  C   UNL     1       2.651   6.901  18.851  0.00  0.00    +0.000 C 
BRANCH  25  26
ATOM     26  S   UNL     1       3.785   5.971  17.758  0.00  0.00    +0.000 S 
BRANCH  26  32
ATOM     27  C   UNL     1       1.670   3.530  18.255  0.00  0.00    +0.000 C 
ATOM     28  N   UNL     1       3.007   3.547  18.777  0.00  0.00    +0.000 N 
ATOM     29  C   UNL     1       3.566   2.556  19.539  0.00  0.00    +0.000 A 
ATOM     30  N   UNL     1       4.794   2.883  19.857  0.00  0.00    +0.000 NA
ATOM     31  N   UNL     1       5.059   4.114  19.292  0.00  0.00    +0.000 NA
ATOM     32  C   UNL     1       3.982   4.500  18.645  0.00  0.00    +0.000 A 
ENDBRANCH  26  32
ENDBRANCH  25  26
ENDBRANCH  21  25
ENDBRANCH   1  23
TORSDOF 7
ENDMDL
MODEL 8
REMARK VINA RESULT:      -6.5      0.926      1.287
REMARK  Name = 
REMARK  8 active torsions:
REMARK  status: ('A' for Active; 'I' for Inactive)
REMARK    1  A    between atoms: C_1  and  N_2
REMARK    2  A    between atoms: C_6  and  S_7
REMARK    3  A    between atoms: S_7  and  C_8
REMARK    4  A    between atoms: C_8  and  C_9
REMARK    5  A    between atoms: N_11  and  N_12
REMARK    6  A    between atoms: C_16  and  C_17
REMARK    7  A    between atoms: C_20  and  C_21
REMARK    8  A    between atoms: N_25  and  C_26
REMARK                            x       y       z     vdW  Elec       q    Type
REMARK                         _______ _______ _______ _____ _____    ______ ____
ROOT
ATOM      1  N   UNL     1       0.987   8.585  20.331  0.00  0.00    +0.000 NA
ATOM      2  C   UNL     1       0.329   9.379  21.115  0.00  0.00    +0.000 A 
ATOM      3  S   UNL     1      -0.033   8.596  22.714  0.00  0.00    +0.000 S 
ATOM      4  C   UNL     1      -0.753  10.045  23.319  0.00  0.00    +0.000 A 
ATOM      5  C   UNL     1      -0.778  11.019  22.403  0.00  0.00    +0.000 A 
ATOM      6  N   UNL     1      -0.199  10.693  21.134  0.00  0.00    +0.000 N 
ENDROOT
BRANCH   5   7
ATOM      7  C   UNL     1      -1.430  12.292  22.737  0.00  0.00    +0.000 A 
ATOM      8  C   UNL     1      -0.675  13.475  22.838  0.00  0.00    +0.000 A 
ATOM      9  C   UNL     1      -1.306  14.708  23.048  0.00  0.00    +0.000 A 
ATOM     10  C   UNL     1      -2.690  14.767  23.229  0.00  0.00    +0.000 A 
ATOM     11  C   UNL     1      -3.442  13.586  23.181  0.00  0.00    +0.000 A 
ATOM     12  C   UNL     1      -2.817  12.356  22.934  0.00  0.00    +0.000 A 
BRANCH  10  13
ATOM     13  C   UNL     1      -3.336  16.024  23.452  0.00  0.00    +0.000 C 
ATOM     14  N   UNL     1      -3.865  17.046  23.629  0.00  0.00    +0.000 NA
ENDBRANCH  10  13
ENDBRANCH   5   7
BRANCH   6  15
ATOM     15  C   UNL     1      -0.225  11.564  19.998  0.00  0.00    +0.000 A 
ATOM     16  C   UNL     1      -1.296  11.594  19.091  0.00  0.00    +0.000 A 
ATOM     17  C   UNL     1      -1.363  12.492  18.025  0.00  0.00    +0.000 A 
ATOM     18  C   UNL     1      -0.392  13.469  17.892  0.00  0.00    +0.000 A 
ATOM     19  C   UNL     1       0.691  13.468  18.761  0.00  0.00    +0.000 A 
ATOM     20  C   UNL     1       0.809  12.474  19.737  0.00  0.00    +0.000 A 
ENDBRANCH   6  15
BRANCH   1  23
ATOM     21  C   UNL     1       2.343   8.191  18.400  0.00  0.00    +0.000 C 
ATOM     22  O   UNL     1       2.606   8.514  17.239  0.00  0.00    +0.000 OA
ATOM     23  N   UNL     1       1.518   9.009  19.161  0.00  0.00    +0.000 N 
ATOM     24  H   UNL     1       1.176   9.858  18.718  0.00  0.00    +0.000 HD
BRANCH  21  25
ATOM     25  C   UNL     1       2.804   6.904  19.080  0.00  0.00    +0.000 C 
BRANCH  25  26
ATOM     26  S   UNL     1       2.206   5.409  18.213  0.00  0.00    +0.000 S 
BRANCH  26  32
ATOM     27  C   UNL     1       4.377   3.319  19.475  0.00  0.00    +0.000 C 
ATOM     28  N   UNL     1       3.035   3.469  19.964  0.00  0.00    +0.000 N 
ATOM     29  C   UNL     1       2.497   2.769  21.009  0.00  0.00    +0.000 A 
ATOM     30  N   UNL     1       1.253   3.138  21.195  0.00  0.00    +0.000 NA
ATOM     31  N   UNL     1       0.960   4.107  20.256  0.00  0.00    +0.000 NA
ATOM     32  C   UNL     1       2.036   4.299  19.526  0.00  0.00    +0.000 A 
ENDBRANCH  26  32
ENDBRANCH  25  26
ENDBRANCH  21  25
ENDBRANCH   1  23
TORSDOF 7
ENDMDL
MODEL 9
REMARK VINA RESULT:      -6.5      0.922      1.324
REMARK  Name = 
REMARK  8 active torsions:
REMARK  status: ('A' for Active; 'I' for Inactive)
REMARK    1  A    between atoms: C_1  and  N_2
REMARK    2  A    between atoms: C_6  and  S_7
REMARK    3  A    between atoms: S_7  and  C_8
REMARK    4  A    between atoms: C_8  and  C_9
REMARK    5  A    between atoms: N_11  and  N_12
REMARK    6  A    between atoms: C_16  and  C_17
REMARK    7  A    between atoms: C_20  and  C_21
REMARK    8  A    between atoms: N_25  and  C_26
REMARK                            x       y       z     vdW  Elec       q    Type
REMARK                         _______ _______ _______ _____ _____    ______ ____
ROOT
ATOM      1  N   UNL     1       0.921   8.896  20.288  0.00  0.00    +0.000 NA
ATOM      2  C   UNL     1       0.231   9.592  21.135  0.00  0.00    +0.000 A 
ATOM      3  S   UNL     1      -0.107   8.657  22.655  0.00  0.00    +0.000 S 
ATOM      4  C   UNL     1      -0.884  10.019  23.382  0.00  0.00    +0.000 A 
ATOM      5  C   UNL     1      -0.942  11.068  22.556  0.00  0.00    +0.000 A 
ATOM      6  N   UNL     1      -0.347  10.878  21.267  0.00  0.00    +0.000 N 
ENDROOT
BRANCH   5   7
ATOM      7  C   UNL     1      -1.643  12.281  22.998  0.00  0.00    +0.000 A 
ATOM      8  C   UNL     1      -3.032  12.261  23.223  0.00  0.00    +0.000 A 
ATOM      9  C   UNL     1      -3.686  13.383  23.748  0.00  0.00    +0.000 A 
ATOM     10  C   UNL     1      -2.974  14.561  23.990  0.00  0.00    +0.000 A 
ATOM     11  C   UNL     1      -1.600  14.604  23.720  0.00  0.00    +0.000 A 
ATOM     12  C   UNL     1      -0.937  13.472  23.229  0.00  0.00    +0.000 A 
BRANCH  10  13
ATOM     13  C   UNL     1      -3.640  15.711  24.519  0.00  0.00    +0.000 C 
ATOM     14  N   UNL     1      -4.188  16.646  24.947  0.00  0.00    +0.000 NA
ENDBRANCH  10  13
ENDBRANCH   5   7
BRANCH   6  15
ATOM     15  C   UNL     1      -0.401  11.846  20.213  0.00  0.00    +0.000 A 
ATOM     16  C   UNL     1       0.533  12.888  20.094  0.00  0.00    +0.000 A 
ATOM     17  C   UNL     1       0.531  13.789  19.028  0.00  0.00    +0.000 A 
ATOM     18  C   UNL     1      -0.356  13.611  17.982  0.00  0.00    +0.000 A 
ATOM     19  C   UNL     1      -1.304  12.599  18.066  0.00  0.00    +0.000 A 
ATOM     20  C   UNL     1      -1.374  11.793  19.206  0.00  0.00    +0.000 A 
ENDBRANCH   6  15
BRANCH   1  23
ATOM     21  C   UNL     1       2.142   8.677  18.243  0.00  0.00    +0.000 C 
ATOM     22  O   UNL     1       2.386   9.148  17.129  0.00  0.00    +0.000 OA
ATOM     23  N   UNL     1       1.441   9.442  19.164  0.00  0.00    +0.000 N 
ATOM     24  H   UNL     1       1.167  10.378  18.873  0.00  0.00    +0.000 HD
BRANCH  21  25
ATOM     25  C   UNL     1       2.500   7.264  18.697  0.00  0.00    +0.000 C 
BRANCH  25  26
ATOM     26  S   UNL     1       3.842   6.533  17.693  0.00  0.00    +0.000 S 
BRANCH  26  32
ATOM     27  C   UNL     1       5.328   3.964  16.327  0.00  0.00    +0.000 C 
ATOM     28  N   UNL     1       4.238   3.855  17.255  0.00  0.00    +0.000 N 
ATOM     29  C   UNL     1       3.687   2.679  17.686  0.00  0.00    +0.000 A 
ATOM     30  N   UNL     1       2.709   2.929  18.521  0.00  0.00    +0.000 NA
ATOM     31  N   UNL     1       2.610   4.299  18.651  0.00  0.00    +0.000 NA
ATOM     32  C   UNL     1       3.534   4.844  17.891  0.00  0.00    +0.000 A 
ENDBRANCH  26  32
ENDBRANCH  25  26
ENDBRANCH  21  25
ENDBRANCH   1  23
TORSDOF 7
ENDMDL
