MODEL 1
REMARK VINA RESULT:      -6.3      0.000      0.000
REMARK  Name = 
REMARK  4 active torsions:
REMARK  status: ('A' for Active; 'I' for Inactive)
REMARK    1  A    between atoms: C_1  and  N_2
REMARK    2  A    between atoms: C_8  and  C_9
REMARK    3  A    between atoms: C_9  and  O_11
REMARK    4  A    between atoms: C_13  and  C_15
REMARK                            x       y       z     vdW  Elec       q    Type
REMARK                         _______ _______ _______ _____ _____    ______ ____
ROOT
ATOM      1  C   UNL     1      -4.356  13.024  21.529  0.00  0.00    +0.000 C 
ATOM      2  N   UNL     1      -3.265  12.507  20.747  0.00  0.00    +0.000 N 
ATOM      3  C   UNL     1      -1.928  12.451  21.178  0.00  0.00    +0.000 C 
ATOM      4  O   UNL     1      -1.486  12.802  22.265  0.00  0.00    +0.000 OA
ATOM      5  C   UNL     1      -1.099  11.814  19.988  0.00  0.00    +0.000 C 
ATOM      6  S   UNL     1      -0.581  10.136  20.557  0.00  0.00    +0.000 S 
ATOM      7  C   UNL     1       1.151  10.584  20.687  0.00  0.00    +0.000 C 
ATOM      8  C   UNL     1       1.363  11.739  19.704  0.00  0.00    +0.000 C 
ATOM      9  N   UNL     1       0.129  12.546  19.637  0.00  0.00    +0.000 N 
ATOM     10  C   UNL     1      -0.007  13.883  19.305  0.00  0.00    +0.000 C 
ATOM     11  O   UNL     1      -1.129  14.398  19.331  0.00  0.00    +0.000 OA
ATOM     12  C   UNL     1      -2.148  11.669  18.917  0.00  0.00    +0.000 A 
ATOM     13  C   UNL     1      -2.029  11.176  17.626  0.00  0.00    +0.000 A 
ATOM     14  C   UNL     1      -3.176  11.105  16.837  0.00  0.00    +0.000 A 
ATOM     15 BR   UNL     1      -3.046  10.421  15.081  0.00  0.00    +0.000 Br
ATOM     16  C   UNL     1      -4.419  11.517  17.337  0.00  0.00    +0.000 A 
ATOM     17  C   UNL     1      -4.536  12.009  18.641  0.00  0.00    +0.000 A 
ATOM     18  C   UNL     1      -3.391  12.072  19.418  0.00  0.00    +0.000 A 
ENDROOT
BRANCH  10  19
ATOM     19  C   UNL     1       1.216  14.777  18.989  0.00  0.00    +0.000 C 
ATOM     20  C   UNL     1       0.907  16.243  18.681  0.00  0.00    +0.000 C 
ATOM     21  C   UNL     1       0.317  16.981  19.878  0.00  0.00    +0.000 C 
ATOM     22  C   UNL     1       1.217  16.915  21.109  0.00  0.00    +0.000 C 
ATOM     23  C   UNL     1       1.751  15.518  21.407  0.00  0.00    +0.000 C 
ATOM     24  C   UNL     1       2.230  14.761  20.161  0.00  0.00    +0.000 C 
ENDBRANCH  10  19
BRANCH   8  25
ATOM     25  C   UNL     1       1.800  11.141  18.347  0.00  0.00    +0.000 C 
ATOM     26  O   UNL     1       1.558  10.009  17.972  0.00  0.00    +0.000 OA
BRANCH  25  27
ATOM     27  O   UNL     1       2.444  12.019  17.540  0.00  0.00    +0.000 OA
ATOM     28  H   UNL     1       2.774  12.842  17.943  0.00  0.00    +0.000 HD
ENDBRANCH  25  27
ENDBRANCH   8  25
TORSDOF 3
ENDMDL
MODEL 2
REMARK VINA RESULT:      -6.2      7.362     10.047
REMARK  Name = 
REMARK  4 active torsions:
REMARK  status: ('A' for Active; 'I' for Inactive)
REMARK    1  A    between atoms: C_1  and  N_2
REMARK    2  A    between atoms: C_8  and  C_9
REMARK    3  A    between atoms: C_9  and  O_11
REMARK    4  A    between atoms: C_13  and  C_15
REMARK                            x       y       z     vdW  Elec       q    Type
REMARK                         _______ _______ _______ _____ _____    ______ ____
ROOT
ATOM      1  C   UNL     1       8.133  17.545  18.367  0.00  0.00    +0.000 C 
ATOM      2  N   UNL     1       7.814  16.613  19.414  0.00  0.00    +0.000 N 
ATOM      3  C   UNL     1       8.741  16.106  20.343  0.00  0.00    +0.000 C 
ATOM      4  O   UNL     1       9.931  16.380  20.425  0.00  0.00    +0.000 OA
ATOM      5  C   UNL     1       7.935  15.123  21.289  0.00  0.00    +0.000 C 
ATOM      6  S   UNL     1       7.849  15.948  22.939  0.00  0.00    +0.000 S 
ATOM      7  C   UNL     1       8.959  14.773  23.717  0.00  0.00    +0.000 C 
ATOM      8  C   UNL     1       8.835  13.477  22.910  0.00  0.00    +0.000 C 
ATOM      9  N   UNL     1       8.574  13.813  21.497  0.00  0.00    +0.000 N 
ATOM     10  C   UNL     1       8.865  13.067  20.368  0.00  0.00    +0.000 C 
ATOM     11  O   UNL     1       8.593  13.529  19.256  0.00  0.00    +0.000 OA
ATOM     12  C   UNL     1       6.566  15.133  20.661  0.00  0.00    +0.000 A 
ATOM     13  C   UNL     1       5.419  14.451  21.035  0.00  0.00    +0.000 A 
ATOM     14  C   UNL     1       4.251  14.669  20.305  0.00  0.00    +0.000 A 
ATOM     15 BR   UNL     1       2.668  13.767  20.804  0.00  0.00    +0.000 Br
ATOM     16  C   UNL     1       4.237  15.560  19.222  0.00  0.00    +0.000 A 
ATOM     17  C   UNL     1       5.396  16.250  18.851  0.00  0.00    +0.000 A 
ATOM     18  C   UNL     1       6.549  16.028  19.585  0.00  0.00    +0.000 A 
ENDROOT
BRANCH  10  19
ATOM     19  C   UNL     1       9.600  11.708  20.451  0.00  0.00    +0.000 C 
ATOM     20  C   UNL     1       9.335  10.737  19.300  0.00  0.00    +0.000 C 
ATOM     21  C   UNL     1       9.851  11.258  17.963  0.00  0.00    +0.000 C 
ATOM     22  C   UNL     1      11.341  11.587  17.997  0.00  0.00    +0.000 C 
ATOM     23  C   UNL     1      11.764  12.399  19.217  0.00  0.00    +0.000 C 
ATOM     24  C   UNL     1      11.135  11.914  20.530  0.00  0.00    +0.000 C 
ENDBRANCH  10  19
BRANCH   8  25
ATOM     25  C   UNL     1       7.739  12.607  23.565  0.00  0.00    +0.000 C 
ATOM     26  O   UNL     1       7.114  11.728  23.000  0.00  0.00    +0.000 OA
BRANCH  25  27
ATOM     27  O   UNL     1       7.553  12.854  24.885  0.00  0.00    +0.000 OA
ATOM     28  H   UNL     1       6.637  12.868  25.215  0.00  0.00    +0.000 HD
ENDBRANCH  25  27
ENDBRANCH   8  25
TORSDOF 3
ENDMDL
MODEL 3
REMARK VINA RESULT:      -6.0      7.419      9.785
REMARK  Name = 
REMARK  4 active torsions:
REMARK  status: ('A' for Active; 'I' for Inactive)
REMARK    1  A    between atoms: C_1  and  N_2
REMARK    2  A    between atoms: C_8  and  C_9
REMARK    3  A    between atoms: C_9  and  O_11
REMARK    4  A    between atoms: C_13  and  C_15
REMARK                            x       y       z     vdW  Elec       q    Type
REMARK                         _______ _______ _______ _____ _____    ______ ____
ROOT
ATOM      1  C   UNL     1       2.381   3.626  21.931  0.00  0.00    +0.000 C 
ATOM      2  N   UNL     1       2.726   4.084  20.613  0.00  0.00    +0.000 N 
ATOM      3  C   UNL     1       3.431   3.325  19.661  0.00  0.00    +0.000 C 
ATOM      4  O   UNL     1       3.838   2.177  19.786  0.00  0.00    +0.000 OA
ATOM      5  C   UNL     1       3.575   4.239  18.376  0.00  0.00    +0.000 C 
ATOM      6  S   UNL     1       2.490   3.490  17.083  0.00  0.00    +0.000 S 
ATOM      7  C   UNL     1       3.868   2.943  16.074  0.00  0.00    +0.000 C 
ATOM      8  C   UNL     1       5.030   3.886  16.400  0.00  0.00    +0.000 C 
ATOM      9  N   UNL     1       4.935   4.296  17.814  0.00  0.00    +0.000 N 
ATOM     10  C   UNL     1       5.951   4.705  18.662  0.00  0.00    +0.000 C 
ATOM     11  O   UNL     1       5.679   4.985  19.833  0.00  0.00    +0.000 OA
ATOM     12  C   UNL     1       2.965   5.535  18.841  0.00  0.00    +0.000 A 
ATOM     13  C   UNL     1       2.808   6.732  18.159  0.00  0.00    +0.000 A 
ATOM     14  C   UNL     1       2.162   7.783  18.807  0.00  0.00    +0.000 A 
ATOM     15 BR   UNL     1       1.919   9.420  17.896  0.00  0.00    +0.000 Br
ATOM     16  C   UNL     1       1.677   7.633  20.115  0.00  0.00    +0.000 A 
ATOM     17  C   UNL     1       1.832   6.421  20.797  0.00  0.00    +0.000 A 
ATOM     18  C   UNL     1       2.473   5.383  20.143  0.00  0.00    +0.000 A 
ENDROOT
BRANCH  10  19
ATOM     19  C   UNL     1       7.430   4.736  18.211  0.00  0.00    +0.000 C 
ATOM     20  C   UNL     1       7.734   5.604  16.988  0.00  0.00    +0.000 C 
ATOM     21  C   UNL     1       7.483   7.086  17.244  0.00  0.00    +0.000 C 
ATOM     22  C   UNL     1       8.275   7.617  18.435  0.00  0.00    +0.000 C 
ATOM     23  C   UNL     1       8.205   6.725  19.670  0.00  0.00    +0.000 C 
ATOM     24  C   UNL     1       8.348   5.229  19.359  0.00  0.00    +0.000 C 
ENDBRANCH  10  19
BRANCH   8  25
ATOM     25  C   UNL     1       4.991   5.061  15.398  0.00  0.00    +0.000 C 
ATOM     26  O   UNL     1       4.762   6.221  15.690  0.00  0.00    +0.000 OA
BRANCH  25  27
ATOM     27  O   UNL     1       5.306   4.713  14.126  0.00  0.00    +0.000 OA
ATOM     28  H   UNL     1       5.873   5.322  13.621  0.00  0.00    +0.000 HD
ENDBRANCH  25  27
ENDBRANCH   8  25
TORSDOF 3
ENDMDL
MODEL 4
REMARK VINA RESULT:      -6.0      2.503      6.047
REMARK  Name = 
REMARK  4 active torsions:
REMARK  status: ('A' for Active; 'I' for Inactive)
REMARK    1  A    between atoms: C_1  and  N_2
REMARK    2  A    between atoms: C_8  and  C_9
REMARK    3  A    between atoms: C_9  and  O_11
REMARK    4  A    between atoms: C_13  and  C_15
REMARK                            x       y       z     vdW  Elec       q    Type
REMARK                         _______ _______ _______ _____ _____    ______ ____
ROOT
ATOM      1  C   UNL     1       2.647  13.309  18.415  0.00  0.00    +0.000 C 
ATOM      2  N   UNL     1       1.382  13.464  19.083  0.00  0.00    +0.000 N 
ATOM      3  C   UNL     1       0.697  12.431  19.748  0.00  0.00    +0.000 C 
ATOM      4  O   UNL     1       1.061  11.270  19.882  0.00  0.00    +0.000 OA
ATOM      5  C   UNL     1      -0.635  13.072  20.318  0.00  0.00    +0.000 C 
ATOM      6  S   UNL     1      -0.440  13.123  22.154  0.00  0.00    +0.000 S 
ATOM      7  C   UNL     1      -1.675  11.854  22.440  0.00  0.00    +0.000 C 
ATOM      8  C   UNL     1      -2.622  11.908  21.237  0.00  0.00    +0.000 C 
ATOM      9  N   UNL     1      -1.855  12.297  20.038  0.00  0.00    +0.000 N 
ATOM     10  C   UNL     1      -2.132  12.015  18.711  0.00  0.00    +0.000 C 
ATOM     11  O   UNL     1      -1.351  12.405  17.838  0.00  0.00    +0.000 OA
ATOM     12  C   UNL     1      -0.566  14.475  19.776  0.00  0.00    +0.000 A 
ATOM     13  C   UNL     1      -1.462  15.523  19.925  0.00  0.00    +0.000 A 
ATOM     14  C   UNL     1      -1.141  16.754  19.354  0.00  0.00    +0.000 A 
ATOM     15 BR   UNL     1      -2.333  18.205  19.558  0.00  0.00    +0.000 Br
ATOM     16  C   UNL     1       0.059  16.928  18.649  0.00  0.00    +0.000 A 
ATOM     17  C   UNL     1       0.961  15.869  18.504  0.00  0.00    +0.000 A 
ATOM     18  C   UNL     1       0.635  14.652  19.080  0.00  0.00    +0.000 A 
ENDROOT
BRANCH  10  19
ATOM     19  C   UNL     1      -3.344  11.148  18.294  0.00  0.00    +0.000 C 
ATOM     20  C   UNL     1      -4.116  11.632  17.065  0.00  0.00    +0.000 C 
ATOM     21  C   UNL     1      -3.279  11.582  15.791  0.00  0.00    +0.000 C 
ATOM     22  C   UNL     1      -2.723  10.190  15.508  0.00  0.00    +0.000 C 
ATOM     23  C   UNL     1      -2.094   9.519  16.724  0.00  0.00    +0.000 C 
ATOM     24  C   UNL     1      -2.909   9.687  18.014  0.00  0.00    +0.000 C 
ENDBRANCH  10  19
BRANCH   8  25
ATOM     25  C   UNL     1      -3.782  12.868  21.583  0.00  0.00    +0.000 C 
ATOM     26  O   UNL     1      -4.156  13.793  20.884  0.00  0.00    +0.000 OA
BRANCH  25  27
ATOM     27  O   UNL     1      -4.428  12.562  22.735  0.00  0.00    +0.000 OA
ATOM     28  H   UNL     1      -5.004  11.778  22.732  0.00  0.00    +0.000 HD
ENDBRANCH  25  27
ENDBRANCH   8  25
TORSDOF 3
ENDMDL
MODEL 5
REMARK VINA RESULT:      -5.9      8.769     11.603
REMARK  Name = 
REMARK  4 active torsions:
REMARK  status: ('A' for Active; 'I' for Inactive)
REMARK    1  A    between atoms: C_1  and  N_2
REMARK    2  A    between atoms: C_8  and  C_9
REMARK    3  A    between atoms: C_9  and  O_11
REMARK    4  A    between atoms: C_13  and  C_15
REMARK                            x       y       z     vdW  Elec       q    Type
REMARK                         _______ _______ _______ _____ _____    ______ ____
ROOT
ATOM      1  C   UNL     1       5.399  14.270  22.099  0.00  0.00    +0.000 C 
ATOM      2  N   UNL     1       6.558  14.953  21.590  0.00  0.00    +0.000 N 
ATOM      3  C   UNL     1       6.762  15.286  20.239  0.00  0.00    +0.000 C 
ATOM      4  O   UNL     1       6.001  15.076  19.303  0.00  0.00    +0.000 OA
ATOM      5  C   UNL     1       8.165  16.018  20.165  0.00  0.00    +0.000 C 
ATOM      6  S   UNL     1       7.805  17.788  19.783  0.00  0.00    +0.000 S 
ATOM      7  C   UNL     1       8.478  17.690  18.123  0.00  0.00    +0.000 C 
ATOM      8  C   UNL     1       9.507  16.556  18.151  0.00  0.00    +0.000 C 
ATOM      9  N   UNL     1       9.058  15.523  19.105  0.00  0.00    +0.000 N 
ATOM     10  C   UNL     1       9.357  14.171  19.113  0.00  0.00    +0.000 C 
ATOM     11  O   UNL     1       8.861  13.451  19.984  0.00  0.00    +0.000 OA
ATOM     12  C   UNL     1       8.652  15.910  21.586  0.00  0.00    +0.000 A 
ATOM     13  C   UNL     1       9.837  16.359  22.149  0.00  0.00    +0.000 A 
ATOM     14  C   UNL     1      10.032  16.172  23.517  0.00  0.00    +0.000 A 
ATOM     15 BR   UNL     1      11.629  16.790  24.314  0.00  0.00    +0.000 Br
ATOM     16  C   UNL     1       9.052  15.549  24.304  0.00  0.00    +0.000 A 
ATOM     17  C   UNL     1       7.856  15.102  23.733  0.00  0.00    +0.000 A 
ATOM     18  C   UNL     1       7.671  15.296  22.374  0.00  0.00    +0.000 A 
ENDROOT
BRANCH  10  19
ATOM     19  C   UNL     1      10.225  13.518  18.010  0.00  0.00    +0.000 C 
ATOM     20  C   UNL     1      11.733  13.755  18.124  0.00  0.00    +0.000 C 
ATOM     21  C   UNL     1      12.333  13.119  19.373  0.00  0.00    +0.000 C 
ATOM     22  C   UNL     1      12.062  11.620  19.456  0.00  0.00    +0.000 C 
ATOM     23  C   UNL     1      10.613  11.239  19.166  0.00  0.00    +0.000 C 
ATOM     24  C   UNL     1      10.006  11.984  17.970  0.00  0.00    +0.000 C 
ENDBRANCH  10  19
BRANCH   8  25
ATOM     25  C   UNL     1      10.886  17.166  18.485  0.00  0.00    +0.000 C 
ATOM     26  O   UNL     1      11.512  16.961  19.509  0.00  0.00    +0.000 OA
BRANCH  25  27
ATOM     27  O   UNL     1      11.408  17.928  17.492  0.00  0.00    +0.000 OA
ATOM     28  H   UNL     1      12.338  18.202  17.578  0.00  0.00    +0.000 HD
ENDBRANCH  25  27
ENDBRANCH   8  25
TORSDOF 3
ENDMDL
MODEL 6
REMARK VINA RESULT:      -5.8      3.824      6.210
REMARK  Name = 
REMARK  4 active torsions:
REMARK  status: ('A' for Active; 'I' for Inactive)
REMARK    1  A    between atoms: C_1  and  N_2
REMARK    2  A    between atoms: C_8  and  C_9
REMARK    3  A    between atoms: C_9  and  O_11
REMARK    4  A    between atoms: C_13  and  C_15
REMARK                            x       y       z     vdW  Elec       q    Type
REMARK                         _______ _______ _______ _____ _____    ______ ____
ROOT
ATOM      1  C   UNL     1      -0.274  15.577  19.352  0.00  0.00    +0.000 C 
ATOM      2  N   UNL     1      -1.105  14.777  20.210  0.00  0.00    +0.000 N 
ATOM      3  C   UNL     1      -2.340  15.191  20.741  0.00  0.00    +0.000 C 
ATOM      4  O   UNL     1      -2.905  16.260  20.551  0.00  0.00    +0.000 OA
ATOM      5  C   UNL     1      -2.877  13.986  21.619  0.00  0.00    +0.000 C 
ATOM      6  S   UNL     1      -4.333  13.297  20.717  0.00  0.00    +0.000 S 
ATOM      7  C   UNL     1      -5.514  13.883  21.933  0.00  0.00    +0.000 C 
ATOM      8  C   UNL     1      -4.743  13.994  23.252  0.00  0.00    +0.000 C 
ATOM      9  N   UNL     1      -3.345  14.369  22.961  0.00  0.00    +0.000 N 
ATOM     10  C   UNL     1      -2.446  15.036  23.777  0.00  0.00    +0.000 C 
ATOM     11  O   UNL     1      -1.317  15.288  23.347  0.00  0.00    +0.000 OA
ATOM     12  C   UNL     1      -1.737  13.005  21.538  0.00  0.00    +0.000 A 
ATOM     13  C   UNL     1      -1.608  11.752  22.118  0.00  0.00    +0.000 A 
ATOM     14  C   UNL     1      -0.457  11.014  21.848  0.00  0.00    +0.000 A 
ATOM     15 BR   UNL     1      -0.264   9.296  22.610  0.00  0.00    +0.000 Br
ATOM     16  C   UNL     1       0.544  11.523  21.009  0.00  0.00    +0.000 A 
ATOM     17  C   UNL     1       0.408  12.786  20.422  0.00  0.00    +0.000 A 
ATOM     18  C   UNL     1      -0.741  13.509  20.693  0.00  0.00    +0.000 A 
ENDROOT
BRANCH  10  19
ATOM     19  C   UNL     1      -2.843  15.553  25.180  0.00  0.00    +0.000 C 
ATOM     20  C   UNL     1      -1.683  15.821  26.142  0.00  0.00    +0.000 C 
ATOM     21  C   UNL     1      -0.777  16.952  25.667  0.00  0.00    +0.000 C 
ATOM     22  C   UNL     1      -1.537  18.254  25.436  0.00  0.00    +0.000 C 
ATOM     23  C   UNL     1      -2.829  18.082  24.644  0.00  0.00    +0.000 C 
ATOM     24  C   UNL     1      -3.660  16.866  25.075  0.00  0.00    +0.000 C 
ENDBRANCH  10  19
BRANCH   8  25
ATOM     25  C   UNL     1      -4.892  12.656  24.010  0.00  0.00    +0.000 C 
ATOM     26  O   UNL     1      -3.979  12.041  24.531  0.00  0.00    +0.000 OA
BRANCH  25  27
ATOM     27  O   UNL     1      -6.173  12.222  24.117  0.00  0.00    +0.000 OA
ATOM     28  H   UNL     1      -6.864  12.894  24.256  0.00  0.00    +0.000 HD
ENDBRANCH  25  27
ENDBRANCH   8  25
TORSDOF 3
ENDMDL
MODEL 7
REMARK VINA RESULT:      -5.8      3.750      7.011
REMARK  Name = 
REMARK  4 active torsions:
REMARK  status: ('A' for Active; 'I' for Inactive)
REMARK    1  A    between atoms: C_1  and  N_2
REMARK    2  A    between atoms: C_8  and  C_9
REMARK    3  A    between atoms: C_9  and  O_11
REMARK    4  A    between atoms: C_13  and  C_15
REMARK                            x       y       z     vdW  Elec       q    Type
REMARK                         _______ _______ _______ _____ _____    ______ ____
ROOT
ATOM      1  C   UNL     1      -1.326  10.826  23.041  0.00  0.00    +0.000 C 
ATOM      2  N   UNL     1      -1.953  12.077  22.711  0.00  0.00    +0.000 N 
ATOM      3  C   UNL     1      -3.174  12.526  23.246  0.00  0.00    +0.000 C 
ATOM      4  O   UNL     1      -3.874  11.954  24.071  0.00  0.00    +0.000 OA
ATOM      5  C   UNL     1      -3.457  13.941  22.592  0.00  0.00    +0.000 C 
ATOM      6  S   UNL     1      -3.255  15.185  23.941  0.00  0.00    +0.000 S 
ATOM      7  C   UNL     1      -5.006  15.571  24.010  0.00  0.00    +0.000 C 
ATOM      8  C   UNL     1      -5.564  15.247  22.621  0.00  0.00    +0.000 C 
ATOM      9  N   UNL     1      -4.819  14.105  22.056  0.00  0.00    +0.000 N 
ATOM     10  C   UNL     1      -5.242  13.182  21.115  0.00  0.00    +0.000 C 
ATOM     11  O   UNL     1      -4.480  12.270  20.782  0.00  0.00    +0.000 OA
ATOM     12  C   UNL     1      -2.312  14.074  21.623  0.00  0.00    +0.000 A 
ATOM     13  C   UNL     1      -2.016  15.103  20.742  0.00  0.00    +0.000 A 
ATOM     14  C   UNL     1      -0.857  15.005  19.975  0.00  0.00    +0.000 A 
ATOM     15 BR   UNL     1      -0.420  16.402  18.780  0.00  0.00    +0.000 Br
ATOM     16  C   UNL     1      -0.008  13.895  20.093  0.00  0.00    +0.000 A 
ATOM     17  C   UNL     1      -0.308  12.860  20.986  0.00  0.00    +0.000 A 
ATOM     18  C   UNL     1      -1.460  12.970  21.746  0.00  0.00    +0.000 A 
ENDROOT
BRANCH  10  19
ATOM     19  C   UNL     1      -6.675  13.206  20.532  0.00  0.00    +0.000 C 
ATOM     20  C   UNL     1      -6.788  13.617  19.063  0.00  0.00    +0.000 C 
ATOM     21  C   UNL     1      -6.115  12.622  18.123  0.00  0.00    +0.000 C 
ATOM     22  C   UNL     1      -6.659  11.206  18.282  0.00  0.00    +0.000 C 
ATOM     23  C   UNL     1      -6.776  10.750  19.733  0.00  0.00    +0.000 C 
ATOM     24  C   UNL     1      -7.352  11.819  20.671  0.00  0.00    +0.000 C 
ENDBRANCH  10  19
BRANCH   8  25
ATOM     25  C   UNL     1      -5.495  16.531  21.764  0.00  0.00    +0.000 C 
ATOM     26  O   UNL     1      -5.268  16.562  20.568  0.00  0.00    +0.000 OA
BRANCH  25  27
ATOM     27  O   UNL     1      -5.778  17.667  22.448  0.00  0.00    +0.000 OA
ATOM     28  H   UNL     1      -6.108  17.572  23.359  0.00  0.00    +0.000 HD
ENDBRANCH  25  27
ENDBRANCH   8  25
TORSDOF 3
ENDMDL
MODEL 8
REMARK VINA RESULT:      -5.8      7.975     10.610
REMARK  Name = 
REMARK  4 active torsions:
REMARK  status: ('A' for Active; 'I' for Inactive)
REMARK    1  A    between atoms: C_1  and  N_2
REMARK    2  A    between atoms: C_8  and  C_9
REMARK    3  A    between atoms: C_9  and  O_11
REMARK    4  A    between atoms: C_13  and  C_15
REMARK                            x       y       z     vdW  Elec       q    Type
REMARK                         _______ _______ _______ _____ _____    ______ ____
ROOT
ATOM      1  C   UNL     1       9.679  18.279  20.623  0.00  0.00    +0.000 C 
ATOM      2  N   UNL     1       9.018  17.110  21.138  0.00  0.00    +0.000 N 
ATOM      3  C   UNL     1       9.578  16.218  22.070  0.00  0.00    +0.000 C 
ATOM      4  O   UNL     1      10.681  16.297  22.597  0.00  0.00    +0.000 OA
ATOM      5  C   UNL     1       8.489  15.098  22.329  0.00  0.00    +0.000 C 
ATOM      6  S   UNL     1       7.881  15.357  24.053  0.00  0.00    +0.000 S 
ATOM      7  C   UNL     1       8.653  13.863  24.678  0.00  0.00    +0.000 C 
ATOM      8  C   UNL     1       8.777  12.919  23.478  0.00  0.00    +0.000 C 
ATOM      9  N   UNL     1       9.001  13.719  22.258  0.00  0.00    +0.000 N 
ATOM     10  C   UNL     1       9.633  13.341  21.085  0.00  0.00    +0.000 C 
ATOM     11  O   UNL     1       9.750  14.165  20.173  0.00  0.00    +0.000 OA
ATOM     12  C   UNL     1       7.403  15.484  21.360  0.00  0.00    +0.000 A 
ATOM     13  C   UNL     1       6.184  14.872  21.111  0.00  0.00    +0.000 A 
ATOM     14  C   UNL     1       5.326  15.460  20.184  0.00  0.00    +0.000 A 
ATOM     15 BR   UNL     1       3.651  14.658  19.838  0.00  0.00    +0.000 Br
ATOM     16  C   UNL     1       5.684  16.644  19.522  0.00  0.00    +0.000 A 
ATOM     17  C   UNL     1       6.912  17.261  19.780  0.00  0.00    +0.000 A 
ATOM     18  C   UNL     1       7.756  16.670  20.706  0.00  0.00    +0.000 A 
ENDROOT
BRANCH  10  19
ATOM     19  C   UNL     1      10.276  11.944  20.915  0.00  0.00    +0.000 C 
ATOM     20  C   UNL     1       9.427  10.907  20.177  0.00  0.00    +0.000 C 
ATOM     21  C   UNL     1       9.176  11.284  18.721  0.00  0.00    +0.000 C 
ATOM     22  C   UNL     1      10.468  11.507  17.942  0.00  0.00    +0.000 C 
ATOM     23  C   UNL     1      11.485  12.379  18.672  0.00  0.00    +0.000 C 
ATOM     24  C   UNL     1      11.627  12.045  20.163  0.00  0.00    +0.000 C 
ENDBRANCH  10  19
BRANCH   8  25
ATOM     25  C   UNL     1       7.512  12.035  23.429  0.00  0.00    +0.000 C 
ATOM     26  O   UNL     1       6.704  12.020  22.518  0.00  0.00    +0.000 OA
BRANCH  25  27
ATOM     27  O   UNL     1       7.386  11.192  24.484  0.00  0.00    +0.000 OA
ATOM     28  H   UNL     1       8.174  10.688  24.752  0.00  0.00    +0.000 HD
ENDBRANCH  25  27
ENDBRANCH   8  25
TORSDOF 3
ENDMDL
MODEL 9
REMARK VINA RESULT:      -5.8      3.584      6.952
REMARK  Name = 
REMARK  4 active torsions:
REMARK  status: ('A' for Active; 'I' for Inactive)
REMARK    1  A    between atoms: C_1  and  N_2
REMARK    2  A    between atoms: C_8  and  C_9
REMARK    3  A    between atoms: C_9  and  O_11
REMARK    4  A    between atoms: C_13  and  C_15
REMARK                            x       y       z     vdW  Elec       q    Type
REMARK                         _______ _______ _______ _____ _____    ______ ____
ROOT
ATOM      1  C   UNL     1      -1.422  11.118  23.059  0.00  0.00    +0.000 C 
ATOM      2  N   UNL     1      -2.012  12.328  22.554  0.00  0.00    +0.000 N 
ATOM      3  C   UNL     1      -3.330  12.743  22.812  0.00  0.00    +0.000 C 
ATOM      4  O   UNL     1      -4.163  12.172  23.504  0.00  0.00    +0.000 OA
ATOM      5  C   UNL     1      -3.524  14.119  22.050  0.00  0.00    +0.000 C 
ATOM      6  S   UNL     1      -3.643  15.420  23.355  0.00  0.00    +0.000 S 
ATOM      7  C   UNL     1      -5.384  15.732  23.053  0.00  0.00    +0.000 C 
ATOM      8  C   UNL     1      -5.637  15.334  21.596  0.00  0.00    +0.000 C 
ATOM      9  N   UNL     1      -4.754  14.205  21.245  0.00  0.00    +0.000 N 
ATOM     10  C   UNL     1      -4.945  13.230  20.281  0.00  0.00    +0.000 C 
ATOM     11  O   UNL     1      -4.100  12.340  20.149  0.00  0.00    +0.000 OA
ATOM     12  C   UNL     1      -2.212  14.265  21.326  0.00  0.00    +0.000 A 
ATOM     13  C   UNL     1      -1.780  15.274  20.478  0.00  0.00    +0.000 A 
ATOM     14  C   UNL     1      -0.486  15.197  19.965  0.00  0.00    +0.000 A 
ATOM     15 BR   UNL     1       0.135  16.566  18.821  0.00  0.00    +0.000 Br
ATOM     16  C   UNL     1       0.359  14.130  20.300  0.00  0.00    +0.000 A 
ATOM     17  C   UNL     1      -0.079  13.117  21.161  0.00  0.00    +0.000 A 
ATOM     18  C   UNL     1      -1.365  13.205  21.668  0.00  0.00    +0.000 A 
ENDROOT
BRANCH  10  19
ATOM     19  C   UNL     1      -6.230  13.170  19.421  0.00  0.00    +0.000 C 
ATOM     20  C   UNL     1      -6.078  12.529  18.040  0.00  0.00    +0.000 C 
ATOM     21  C   UNL     1      -5.718  11.049  18.118  0.00  0.00    +0.000 C 
ATOM     22  C   UNL     1      -6.729  10.242  18.927  0.00  0.00    +0.000 C 
ATOM     23  C   UNL     1      -7.111  10.888  20.255  0.00  0.00    +0.000 C 
ATOM     24  C   UNL     1      -7.354  12.400  20.160  0.00  0.00    +0.000 C 
ENDBRANCH  10  19
BRANCH   8  25
ATOM     25  C   UNL     1      -5.441  16.587  20.714  0.00  0.00    +0.000 C 
ATOM     26  O   UNL     1      -5.716  17.725  21.046  0.00  0.00    +0.000 OA
BRANCH  25  27
ATOM     27  O   UNL     1      -4.856  16.333  19.518  0.00  0.00    +0.000 OA
ATOM     28  H   UNL     1      -4.745  17.081  18.904  0.00  0.00    +0.000 HD
ENDBRANCH  25  27
ENDBRANCH   8  25
TORSDOF 3
ENDMDL
