MODEL 1
REMARK VINA RESULT:      -8.1      0.000      0.000
REMARK  Name = 
REMARK  7 active torsions:
REMARK  status: ('A' for Active; 'I' for Inactive)
REMARK    1  A    between atoms: N_2  and  C_3
REMARK    2  A    between atoms: C_10  and  O_11
REMARK    3  A    between atoms: O_11  and  C_12
REMARK    4  A    between atoms: C_15  and  C_16
REMARK    5  A    between atoms: C_17  and  C_18
REMARK    6  A    between atoms: C_22  and  C_23
REMARK    7  A    between atoms: C_24  and  C_25
REMARK                            x       y       z     vdW  Elec       q    Type
REMARK                         _______ _______ _______ _____ _____    ______ ____
ROOT
ATOM      1  C   UNL     1       2.551   7.262  19.355  0.00  0.00    +0.000 A 
ATOM      2  C   UNL     1       2.445   7.840  18.101  0.00  0.00    +0.000 A 
ATOM      3  C   UNL     1       1.633   8.962  17.925  0.00  0.00    +0.000 A 
ATOM      4  C   UNL     1       0.956   9.603  18.991  0.00  0.00    +0.000 A 
ATOM      5  C   UNL     1       1.040   8.960  20.257  0.00  0.00    +0.000 A 
ATOM      6  C   UNL     1       0.364   9.417  21.522  0.00  0.00    +0.000 C 
ATOM      7  C   UNL     1       1.793   7.772  20.400  0.00  0.00    +0.000 A 
ENDROOT
BRANCH   4   8
ATOM      8  C   UNL     1       0.259  10.903  18.713  0.00  0.00    +0.000 A 
ATOM      9  C   UNL     1      -1.084  11.020  18.308  0.00  0.00    +0.000 A 
ATOM     10  C   UNL     1      -2.001   9.864  18.029  0.00  0.00    +0.000 C 
ATOM     11  N   UNL     1      -1.712  12.210  18.111  0.00  0.00    +0.000 NA
ATOM     12  C   UNL     1      -0.987  13.316  18.261  0.00  0.00    +0.000 A 
ATOM     13  N   UNL     1       0.304  13.348  18.575  0.00  0.00    +0.000 NA
ATOM     14  C   UNL     1       0.914  12.156  18.803  0.00  0.00    +0.000 A 
ATOM     15  C   UNL     1       2.375  12.333  19.127  0.00  0.00    +0.000 C 
ENDBRANCH   4   8
BRANCH   1  16
ATOM     16  O   UNL     1       3.298   6.143  19.622  0.00  0.00    +0.000 OA
BRANCH  16  24
ATOM     17  C   UNL     1       3.455   3.842  17.546  0.00  0.00    +0.000 A 
ATOM     18  C   UNL     1       3.220   2.599  17.009  0.00  0.00    +0.000 A 
ATOM     19  N   UNL     1       2.394   1.932  17.869  0.00  0.00    +0.000 N 
ATOM     20  C   UNL     1       2.094   2.730  18.953  0.00  0.00    +0.000 A 
ATOM     21  C   UNL     1       1.300   2.476  20.070  0.00  0.00    +0.000 A 
ATOM     22  C   UNL     1       1.205   3.525  20.971  0.00  0.00    +0.000 A 
ATOM     23  N   UNL     1       1.826   4.716  20.839  0.00  0.00    +0.000 NA
ATOM     24  C   UNL     1       2.633   4.932  19.765  0.00  0.00    +0.000 A 
ATOM     25  C   UNL     1       2.759   3.949  18.776  0.00  0.00    +0.000 A 
ATOM     26  H   UNL     1       2.047   0.989  17.737  0.00  0.00    +0.000 HD
BRANCH  17  28
ATOM     27  C   UNL     1       4.928   5.694  16.486  0.00  0.00    +0.000 C 
ATOM     28  N   UNL     1       4.267   4.851  16.958  0.00  0.00    +0.000 NA
ENDBRANCH  17  28
ENDBRANCH  16  24
ENDBRANCH   1  16
TORSDOF 4
ENDMDL
MODEL 2
REMARK VINA RESULT:      -8.0      0.666      1.769
REMARK  Name = 
REMARK  7 active torsions:
REMARK  status: ('A' for Active; 'I' for Inactive)
REMARK    1  A    between atoms: N_2  and  C_3
REMARK    2  A    between atoms: C_10  and  O_11
REMARK    3  A    between atoms: O_11  and  C_12
REMARK    4  A    between atoms: C_15  and  C_16
REMARK    5  A    between atoms: C_17  and  C_18
REMARK    6  A    between atoms: C_22  and  C_23
REMARK    7  A    between atoms: C_24  and  C_25
REMARK                            x       y       z     vdW  Elec       q    Type
REMARK                         _______ _______ _______ _____ _____    ______ ____
ROOT
ATOM      1  C   UNL     1       2.309   7.266  19.802  0.00  0.00    +0.000 A 
ATOM      2  C   UNL     1       2.360   7.861  18.552  0.00  0.00    +0.000 A 
ATOM      3  C   UNL     1       1.636   9.031  18.315  0.00  0.00    +0.000 A 
ATOM      4  C   UNL     1       0.897   9.701  19.320  0.00  0.00    +0.000 A 
ATOM      5  C   UNL     1       0.820   9.043  20.579  0.00  0.00    +0.000 A 
ATOM      6  C   UNL     1       0.052   9.529  21.779  0.00  0.00    +0.000 C 
ATOM      7  C   UNL     1       1.485   7.811  20.776  0.00  0.00    +0.000 A 
ENDROOT
BRANCH   4   8
ATOM      8  C   UNL     1       0.308  11.043  18.995  0.00  0.00    +0.000 A 
ATOM      9  C   UNL     1       0.871  12.276  19.371  0.00  0.00    +0.000 A 
ATOM     10  C   UNL     1       2.106  12.437  20.209  0.00  0.00    +0.000 C 
ATOM     11  N   UNL     1       0.348  13.483  19.023  0.00  0.00    +0.000 NA
ATOM     12  C   UNL     1      -0.791  13.479  18.334  0.00  0.00    +0.000 A 
ATOM     13  N   UNL     1      -1.463  12.391  17.970  0.00  0.00    +0.000 NA
ATOM     14  C   UNL     1      -0.914  11.191  18.294  0.00  0.00    +0.000 A 
ATOM     15  C   UNL     1      -1.784  10.045  17.844  0.00  0.00    +0.000 C 
ENDBRANCH   4   8
BRANCH   1  16
ATOM     16  O   UNL     1       2.960   6.103  20.124  0.00  0.00    +0.000 OA
BRANCH  16  24
ATOM     17  C   UNL     1       3.937   4.210  17.866  0.00  0.00    +0.000 A 
ATOM     18  C   UNL     1       3.960   3.090  17.070  0.00  0.00    +0.000 A 
ATOM     19  N   UNL     1       2.917   2.296  17.453  0.00  0.00    +0.000 N 
ATOM     20  C   UNL     1       2.221   2.891  18.484  0.00  0.00    +0.000 A 
ATOM     21  C   UNL     1       1.098   2.457  19.187  0.00  0.00    +0.000 A 
ATOM     22  C   UNL     1       0.647   3.327  20.166  0.00  0.00    +0.000 A 
ATOM     23  N   UNL     1       1.221   4.509  20.473  0.00  0.00    +0.000 NA
ATOM     24  C   UNL     1       2.342   4.900  19.808  0.00  0.00    +0.000 A 
ATOM     25  C   UNL     1       2.850   4.108  18.771  0.00  0.00    +0.000 A 
ATOM     26  H   UNL     1       2.681   1.400  17.044  0.00  0.00    +0.000 HD
BRANCH  17  28
ATOM     27  C   UNL     1       5.604   6.190  17.713  0.00  0.00    +0.000 C 
ATOM     28  N   UNL     1       4.857   5.293  17.789  0.00  0.00    +0.000 NA
ENDBRANCH  17  28
ENDBRANCH  16  24
ENDBRANCH   1  16
TORSDOF 4
ENDMDL
MODEL 3
REMARK VINA RESULT:      -7.8      0.904      2.986
REMARK  Name = 
REMARK  7 active torsions:
REMARK  status: ('A' for Active; 'I' for Inactive)
REMARK    1  A    between atoms: N_2  and  C_3
REMARK    2  A    between atoms: C_10  and  O_11
REMARK    3  A    between atoms: O_11  and  C_12
REMARK    4  A    between atoms: C_15  and  C_16
REMARK    5  A    between atoms: C_17  and  C_18
REMARK    6  A    between atoms: C_22  and  C_23
REMARK    7  A    between atoms: C_24  and  C_25
REMARK                            x       y       z     vdW  Elec       q    Type
REMARK                         _______ _______ _______ _____ _____    ______ ____
ROOT
ATOM      1  C   UNL     1       2.515   7.238  19.447  0.00  0.00    +0.000 A 
ATOM      2  C   UNL     1       2.478   7.891  18.225  0.00  0.00    +0.000 A 
ATOM      3  C   UNL     1       1.685   9.030  18.076  0.00  0.00    +0.000 A 
ATOM      4  C   UNL     1       0.960   9.614  19.143  0.00  0.00    +0.000 A 
ATOM      5  C   UNL     1       0.974   8.897  20.371  0.00  0.00    +0.000 A 
ATOM      6  C   UNL     1       0.238   9.286  21.626  0.00  0.00    +0.000 C 
ATOM      7  C   UNL     1       1.709   7.695  20.481  0.00  0.00    +0.000 A 
ENDROOT
BRANCH   4   8
ATOM      8  C   UNL     1       0.289  10.936  18.908  0.00  0.00    +0.000 A 
ATOM      9  C   UNL     1       0.808  12.180  19.311  0.00  0.00    +0.000 A 
ATOM     10  C   UNL     1       2.076  12.369  20.092  0.00  0.00    +0.000 C 
ATOM     11  N   UNL     1       0.209  13.372  19.043  0.00  0.00    +0.000 NA
ATOM     12  C   UNL     1      -0.963  13.338  18.412  0.00  0.00    +0.000 A 
ATOM     13  N   UNL     1      -1.597  12.233  18.034  0.00  0.00    +0.000 NA
ATOM     14  C   UNL     1      -0.974  11.050  18.276  0.00  0.00    +0.000 A 
ATOM     15  C   UNL     1      -1.808   9.881  17.819  0.00  0.00    +0.000 C 
ENDBRANCH   4   8
BRANCH   1  16
ATOM     16  O   UNL     1       3.239   6.098  19.685  0.00  0.00    +0.000 OA
BRANCH  16  24
ATOM     17  C   UNL     1       3.152   3.013  19.348  0.00  0.00    +0.000 A 
ATOM     18  C   UNL     1       3.348   1.797  18.739  0.00  0.00    +0.000 A 
ATOM     19  N   UNL     1       4.001   2.030  17.562  0.00  0.00    +0.000 N 
ATOM     20  C   UNL     1       4.228   3.381  17.406  0.00  0.00    +0.000 A 
ATOM     21  C   UNL     1       4.853   4.079  16.374  0.00  0.00    +0.000 A 
ATOM     22  C   UNL     1       4.921   5.452  16.553  0.00  0.00    +0.000 A 
ATOM     23  N   UNL     1       4.423   6.119  17.615  0.00  0.00    +0.000 NA
ATOM     24  C   UNL     1       3.778   5.428  18.594  0.00  0.00    +0.000 A 
ATOM     25  C   UNL     1       3.695   4.032  18.525  0.00  0.00    +0.000 A 
ATOM     26  H   UNL     1       4.281   1.320  16.896  0.00  0.00    +0.000 HD
BRANCH  17  28
ATOM     27  C   UNL     1       1.977   3.393  21.628  0.00  0.00    +0.000 C 
ATOM     28  N   UNL     1       2.506   3.212  20.601  0.00  0.00    +0.000 NA
ENDBRANCH  17  28
ENDBRANCH  16  24
ENDBRANCH   1  16
TORSDOF 4
ENDMDL
MODEL 4
REMARK VINA RESULT:      -7.8      0.967      2.516
REMARK  Name = 
REMARK  7 active torsions:
REMARK  status: ('A' for Active; 'I' for Inactive)
REMARK    1  A    between atoms: N_2  and  C_3
REMARK    2  A    between atoms: C_10  and  O_11
REMARK    3  A    between atoms: O_11  and  C_12
REMARK    4  A    between atoms: C_15  and  C_16
REMARK    5  A    between atoms: C_17  and  C_18
REMARK    6  A    between atoms: C_22  and  C_23
REMARK    7  A    between atoms: C_24  and  C_25
REMARK                            x       y       z     vdW  Elec       q    Type
REMARK                         _______ _______ _______ _____ _____    ______ ____
ROOT
ATOM      1  C   UNL     1       2.518   7.249  19.498  0.00  0.00    +0.000 A 
ATOM      2  C   UNL     1       2.500   7.955  18.306  0.00  0.00    +0.000 A 
ATOM      3  C   UNL     1       1.656   9.059  18.172  0.00  0.00    +0.000 A 
ATOM      4  C   UNL     1       0.856   9.555  19.229  0.00  0.00    +0.000 A 
ATOM      5  C   UNL     1       0.854   8.783  20.424  0.00  0.00    +0.000 A 
ATOM      6  C   UNL     1       0.045   9.076  21.660  0.00  0.00    +0.000 C 
ATOM      7  C   UNL     1       1.646   7.615  20.514  0.00  0.00    +0.000 A 
ENDROOT
BRANCH   4   8
ATOM      8  C   UNL     1       0.127  10.851  19.023  0.00  0.00    +0.000 A 
ATOM      9  C   UNL     1      -1.060  10.992  18.280  0.00  0.00    +0.000 A 
ATOM     10  C   UNL     1      -1.739   9.884  17.529  0.00  0.00    +0.000 C 
ATOM     11  N   UNL     1      -1.733  12.166  18.148  0.00  0.00    +0.000 NA
ATOM     12  C   UNL     1      -1.196  13.245  18.714  0.00  0.00    +0.000 A 
ATOM     13  N   UNL     1      -0.050  13.267  19.386  0.00  0.00    +0.000 NA
ATOM     14  C   UNL     1       0.597  12.083  19.541  0.00  0.00    +0.000 A 
ATOM     15  C   UNL     1       1.888  12.252  20.300  0.00  0.00    +0.000 C 
ENDBRANCH   4   8
BRANCH   1  16
ATOM     16  O   UNL     1       3.290   6.136  19.718  0.00  0.00    +0.000 OA
BRANCH  16  24
ATOM     17  C   UNL     1       3.178   3.055  19.357  0.00  0.00    +0.000 A 
ATOM     18  C   UNL     1       3.356   1.842  18.735  0.00  0.00    +0.000 A 
ATOM     19  N   UNL     1       3.992   2.082  17.550  0.00  0.00    +0.000 N 
ATOM     20  C   UNL     1       4.225   3.433  17.401  0.00  0.00    +0.000 A 
ATOM     21  C   UNL     1       4.836   4.136  16.364  0.00  0.00    +0.000 A 
ATOM     22  C   UNL     1       4.916   5.506  16.553  0.00  0.00    +0.000 A 
ATOM     23  N   UNL     1       4.439   6.167  17.629  0.00  0.00    +0.000 NA
ATOM     24  C   UNL     1       3.806   5.472  18.613  0.00  0.00    +0.000 A 
ATOM     25  C   UNL     1       3.714   4.077  18.534  0.00  0.00    +0.000 A 
ATOM     26  H   UNL     1       4.257   1.376  16.873  0.00  0.00    +0.000 HD
BRANCH  17  28
ATOM     27  C   UNL     1       2.041   3.387  21.664  0.00  0.00    +0.000 C 
ATOM     28  N   UNL     1       2.555   3.247  20.622  0.00  0.00    +0.000 NA
ENDBRANCH  17  28
ENDBRANCH  16  24
ENDBRANCH   1  16
TORSDOF 4
ENDMDL
MODEL 5
REMARK VINA RESULT:      -7.6      1.396      1.802
REMARK  Name = 
REMARK  7 active torsions:
REMARK  status: ('A' for Active; 'I' for Inactive)
REMARK    1  A    between atoms: N_2  and  C_3
REMARK    2  A    between atoms: C_10  and  O_11
REMARK    3  A    between atoms: O_11  and  C_12
REMARK    4  A    between atoms: C_15  and  C_16
REMARK    5  A    between atoms: C_17  and  C_18
REMARK    6  A    between atoms: C_22  and  C_23
REMARK    7  A    between atoms: C_24  and  C_25
REMARK                            x       y       z     vdW  Elec       q    Type
REMARK                         _______ _______ _______ _____ _____    ______ ____
ROOT
ATOM      1  C   UNL     1       2.622   7.618  19.097  0.00  0.00    +0.000 A 
ATOM      2  C   UNL     1       2.336   8.412  17.998  0.00  0.00    +0.000 A 
ATOM      3  C   UNL     1       1.336   9.383  18.091  0.00  0.00    +0.000 A 
ATOM      4  C   UNL     1       0.636   9.661  19.289  0.00  0.00    +0.000 A 
ATOM      5  C   UNL     1       0.912   8.798  20.386  0.00  0.00    +0.000 A 
ATOM      6  C   UNL     1       0.256   8.860  21.740  0.00  0.00    +0.000 C 
ATOM      7  C   UNL     1       1.862   7.761  20.249  0.00  0.00    +0.000 A 
ENDROOT
BRANCH   4   8
ATOM      8  C   UNL     1      -0.288  10.844  19.316  0.00  0.00    +0.000 A 
ATOM      9  C   UNL     1      -1.565  10.876  18.726  0.00  0.00    +0.000 A 
ATOM     10  C   UNL     1      -2.169   9.759  17.926  0.00  0.00    +0.000 C 
ATOM     11  N   UNL     1      -2.407  11.941  18.806  0.00  0.00    +0.000 NA
ATOM     12  C   UNL     1      -1.961  13.027  19.434  0.00  0.00    +0.000 A 
ATOM     13  N   UNL     1      -0.756  13.156  19.978  0.00  0.00    +0.000 NA
ATOM     14  C   UNL     1       0.065  12.075  19.922  0.00  0.00    +0.000 A 
ATOM     15  C   UNL     1       1.403  12.362  20.554  0.00  0.00    +0.000 C 
ENDBRANCH   4   8
BRANCH   1  16
ATOM     16  O   UNL     1       3.563   6.621  19.097  0.00  0.00    +0.000 OA
BRANCH  16  24
ATOM     17  C   UNL     1       5.413   5.100  17.122  0.00  0.00    +0.000 A 
ATOM     18  C   UNL     1       5.820   4.084  16.290  0.00  0.00    +0.000 A 
ATOM     19  N   UNL     1       4.818   3.155  16.260  0.00  0.00    +0.000 N 
ATOM     20  C   UNL     1       3.772   3.560  17.062  0.00  0.00    +0.000 A 
ATOM     21  C   UNL     1       2.553   2.943  17.338  0.00  0.00    +0.000 A 
ATOM     22  C   UNL     1       1.719   3.649  18.190  0.00  0.00    +0.000 A 
ATOM     23  N   UNL     1       2.017   4.838  18.754  0.00  0.00    +0.000 NA
ATOM     24  C   UNL     1       3.229   5.408  18.509  0.00  0.00    +0.000 A 
ATOM     25  C   UNL     1       4.125   4.792  17.627  0.00  0.00    +0.000 A 
ATOM     26  H   UNL     1       4.834   2.293  15.729  0.00  0.00    +0.000 HD
BRANCH  17  28
ATOM     27  C   UNL     1       6.804   7.218  17.671  0.00  0.00    +0.000 C 
ATOM     28  N   UNL     1       6.168   6.267  17.424  0.00  0.00    +0.000 NA
ENDBRANCH  17  28
ENDBRANCH  16  24
ENDBRANCH   1  16
TORSDOF 4
ENDMDL
MODEL 6
REMARK VINA RESULT:      -7.4      1.577      2.545
REMARK  Name = 
REMARK  7 active torsions:
REMARK  status: ('A' for Active; 'I' for Inactive)
REMARK    1  A    between atoms: N_2  and  C_3
REMARK    2  A    between atoms: C_10  and  O_11
REMARK    3  A    between atoms: O_11  and  C_12
REMARK    4  A    between atoms: C_15  and  C_16
REMARK    5  A    between atoms: C_17  and  C_18
REMARK    6  A    between atoms: C_22  and  C_23
REMARK    7  A    between atoms: C_24  and  C_25
REMARK                            x       y       z     vdW  Elec       q    Type
REMARK                         _______ _______ _______ _____ _____    ______ ____
ROOT
ATOM      1  C   UNL     1       2.634   7.817  18.873  0.00  0.00    +0.000 A 
ATOM      2  C   UNL     1       2.294   8.657  17.824  0.00  0.00    +0.000 A 
ATOM      3  C   UNL     1       1.252   9.573  17.984  0.00  0.00    +0.000 A 
ATOM      4  C   UNL     1       0.558   9.750  19.204  0.00  0.00    +0.000 A 
ATOM      5  C   UNL     1       0.890   8.842  20.247  0.00  0.00    +0.000 A 
ATOM      6  C   UNL     1       0.252   8.797  21.610  0.00  0.00    +0.000 C 
ATOM      7  C   UNL     1       1.885   7.859  20.041  0.00  0.00    +0.000 A 
ENDROOT
BRANCH   4   8
ATOM      8  C   UNL     1      -0.419  10.885  19.309  0.00  0.00    +0.000 A 
ATOM      9  C   UNL     1      -0.184  12.080  20.015  0.00  0.00    +0.000 A 
ATOM     10  C   UNL     1       1.047  12.372  20.823  0.00  0.00    +0.000 C 
ATOM     11  N   UNL     1      -1.062  13.118  20.056  0.00  0.00    +0.000 NA
ATOM     12  C   UNL     1      -2.227  12.958  19.433  0.00  0.00    +0.000 A 
ATOM     13  N   UNL     1      -2.605  11.860  18.785  0.00  0.00    +0.000 NA
ATOM     14  C   UNL     1      -1.707  10.842  18.722  0.00  0.00    +0.000 A 
ATOM     15  C   UNL     1      -2.268   9.655  17.982  0.00  0.00    +0.000 C 
ENDBRANCH   4   8
BRANCH   1  16
ATOM     16  O   UNL     1       3.620   6.867  18.805  0.00  0.00    +0.000 OA
BRANCH  16  24
ATOM     17  C   UNL     1       5.567   5.185  17.068  0.00  0.00    +0.000 A 
ATOM     18  C   UNL     1       6.005   4.111  16.331  0.00  0.00    +0.000 A 
ATOM     19  N   UNL     1       4.984   3.205  16.282  0.00  0.00    +0.000 N 
ATOM     20  C   UNL     1       3.894   3.683  16.978  0.00  0.00    +0.000 A 
ATOM     21  C   UNL     1       2.642   3.111  17.199  0.00  0.00    +0.000 A 
ATOM     22  C   UNL     1       1.767   3.887  17.942  0.00  0.00    +0.000 A 
ATOM     23  N   UNL     1       2.055   5.102  18.455  0.00  0.00    +0.000 NA
ATOM     24  C   UNL     1       3.296   5.628  18.267  0.00  0.00    +0.000 A 
ATOM     25  C   UNL     1       4.237   4.938  17.493  0.00  0.00    +0.000 A 
ATOM     26  H   UNL     1       5.015   2.312  15.806  0.00  0.00    +0.000 HD
BRANCH  17  28
ATOM     27  C   UNL     1       6.953   7.317  17.575  0.00  0.00    +0.000 C 
ATOM     28  N   UNL     1       6.329   6.352  17.355  0.00  0.00    +0.000 NA
ENDBRANCH  17  28
ENDBRANCH  16  24
ENDBRANCH   1  16
TORSDOF 4
ENDMDL
MODEL 7
REMARK VINA RESULT:      -7.3      2.213      8.118
REMARK  Name = 
REMARK  7 active torsions:
REMARK  status: ('A' for Active; 'I' for Inactive)
REMARK    1  A    between atoms: N_2  and  C_3
REMARK    2  A    between atoms: C_10  and  O_11
REMARK    3  A    between atoms: O_11  and  C_12
REMARK    4  A    between atoms: C_15  and  C_16
REMARK    5  A    between atoms: C_17  and  C_18
REMARK    6  A    between atoms: C_22  and  C_23
REMARK    7  A    between atoms: C_24  and  C_25
REMARK                            x       y       z     vdW  Elec       q    Type
REMARK                         _______ _______ _______ _____ _____    ______ ____
ROOT
ATOM      1  C   UNL     1       1.154   9.387  18.886  0.00  0.00    +0.000 A 
ATOM      2  C   UNL     1       1.839   9.311  17.683  0.00  0.00    +0.000 A 
ATOM      3  C   UNL     1       2.670   8.217  17.431  0.00  0.00    +0.000 A 
ATOM      4  C   UNL     1       2.798   7.122  18.317  0.00  0.00    +0.000 A 
ATOM      5  C   UNL     1       2.126   7.248  19.565  0.00  0.00    +0.000 A 
ATOM      6  C   UNL     1       2.157   6.244  20.687  0.00  0.00    +0.000 C 
ATOM      7  C   UNL     1       1.361   8.404  19.843  0.00  0.00    +0.000 A 
ENDROOT
BRANCH   4   8
ATOM      8  C   UNL     1       3.578   5.923  17.861  0.00  0.00    +0.000 A 
ATOM      9  C   UNL     1       4.962   5.919  17.606  0.00  0.00    +0.000 A 
ATOM     10  C   UNL     1       5.854   7.124  17.689  0.00  0.00    +0.000 C 
ATOM     11  N   UNL     1       5.660   4.810  17.243  0.00  0.00    +0.000 NA
ATOM     12  C   UNL     1       4.971   3.684  17.068  0.00  0.00    +0.000 A 
ATOM     13  N   UNL     1       3.654   3.563  17.210  0.00  0.00    +0.000 NA
ATOM     14  C   UNL     1       2.972   4.668  17.606  0.00  0.00    +0.000 A 
ATOM     15  C   UNL     1       1.492   4.400  17.706  0.00  0.00    +0.000 C 
ENDBRANCH   4   8
BRANCH   1  16
ATOM     16  O   UNL     1       0.339  10.432  19.238  0.00  0.00    +0.000 OA
BRANCH  16  24
ATOM     17  C   UNL     1      -1.950  12.282  20.224  0.00  0.00    +0.000 A 
ATOM     18  C   UNL     1      -3.175  12.905  20.207  0.00  0.00    +0.000 A 
ATOM     19  N   UNL     1      -3.853  12.442  19.115  0.00  0.00    +0.000 N 
ATOM     20  C   UNL     1      -3.080  11.529  18.429  0.00  0.00    +0.000 A 
ATOM     21  C   UNL     1      -3.352  10.805  17.269  0.00  0.00    +0.000 A 
ATOM     22  C   UNL     1      -2.339   9.952  16.860  0.00  0.00    +0.000 A 
ATOM     23  N   UNL     1      -1.152   9.806  17.486  0.00  0.00    +0.000 NA
ATOM     24  C   UNL     1      -0.885  10.552  18.592  0.00  0.00    +0.000 A 
ATOM     25  C   UNL     1      -1.863  11.411  19.109  0.00  0.00    +0.000 A 
ATOM     26  H   UNL     1      -4.788  12.722  18.842  0.00  0.00    +0.000 HD
BRANCH  17  28
ATOM     27  C   UNL     1      -0.105  12.669  22.004  0.00  0.00    +0.000 C 
ATOM     28  N   UNL     1      -0.938  12.485  21.203  0.00  0.00    +0.000 NA
ENDBRANCH  17  28
ENDBRANCH  16  24
ENDBRANCH   1  16
TORSDOF 4
ENDMDL
MODEL 8
REMARK VINA RESULT:      -7.3      1.098      1.651
REMARK  Name = 
REMARK  7 active torsions:
REMARK  status: ('A' for Active; 'I' for Inactive)
REMARK    1  A    between atoms: N_2  and  C_3
REMARK    2  A    between atoms: C_10  and  O_11
REMARK    3  A    between atoms: O_11  and  C_12
REMARK    4  A    between atoms: C_15  and  C_16
REMARK    5  A    between atoms: C_17  and  C_18
REMARK    6  A    between atoms: C_22  and  C_23
REMARK    7  A    between atoms: C_24  and  C_25
REMARK                            x       y       z     vdW  Elec       q    Type
REMARK                         _______ _______ _______ _____ _____    ______ ____
ROOT
ATOM      1  C   UNL     1       2.054   7.264  20.153  0.00  0.00    +0.000 A 
ATOM      2  C   UNL     1       1.192   7.698  21.146  0.00  0.00    +0.000 A 
ATOM      3  C   UNL     1       0.510   8.907  20.988  0.00  0.00    +0.000 A 
ATOM      4  C   UNL     1       0.593   9.694  19.814  0.00  0.00    +0.000 A 
ATOM      5  C   UNL     1       1.523   9.253  18.833  0.00  0.00    +0.000 A 
ATOM      6  C   UNL     1       1.826   9.949  17.532  0.00  0.00    +0.000 C 
ATOM      7  C   UNL     1       2.274   8.074  19.047  0.00  0.00    +0.000 A 
ENDROOT
BRANCH   4   8
ATOM      8  C   UNL     1      -0.321  10.878  19.685  0.00  0.00    +0.000 A 
ATOM      9  C   UNL     1      -1.516  10.890  18.942  0.00  0.00    +0.000 A 
ATOM     10  C   UNL     1      -2.023   9.745  18.114  0.00  0.00    +0.000 C 
ATOM     11  N   UNL     1      -2.356  11.958  18.880  0.00  0.00    +0.000 NA
ATOM     12  C   UNL     1      -1.985  13.065  19.518  0.00  0.00    +0.000 A 
ATOM     13  N   UNL     1      -0.854  13.213  20.202  0.00  0.00    +0.000 NA
ATOM     14  C   UNL     1      -0.039  12.130  20.286  0.00  0.00    +0.000 A 
ATOM     15  C   UNL     1       1.213  12.438  21.067  0.00  0.00    +0.000 C 
ENDBRANCH   4   8
BRANCH   1  16
ATOM     16  O   UNL     1       2.789   6.108  20.228  0.00  0.00    +0.000 OA
BRANCH  16  24
ATOM     17  C   UNL     1       3.624   4.472  17.726  0.00  0.00    +0.000 A 
ATOM     18  C   UNL     1       3.610   3.432  16.827  0.00  0.00    +0.000 A 
ATOM     19  N   UNL     1       2.623   2.571  17.213  0.00  0.00    +0.000 N 
ATOM     20  C   UNL     1       2.000   3.043  18.349  0.00  0.00    +0.000 A 
ATOM     21  C   UNL     1       0.951   2.506  19.094  0.00  0.00    +0.000 A 
ATOM     22  C   UNL     1       0.560   3.265  20.186  0.00  0.00    +0.000 A 
ATOM     23  N   UNL     1       1.127   4.431  20.560  0.00  0.00    +0.000 NA
ATOM     24  C   UNL     1       2.178   4.920  19.847  0.00  0.00    +0.000 A 
ATOM     25  C   UNL     1       2.619   4.248  18.701  0.00  0.00    +0.000 A 
ATOM     26  H   UNL     1       2.377   1.710  16.739  0.00  0.00    +0.000 HD
BRANCH  17  28
ATOM     27  C   UNL     1       5.228   6.507  17.661  0.00  0.00    +0.000 C 
ATOM     28  N   UNL     1       4.506   5.587  17.681  0.00  0.00    +0.000 NA
ENDBRANCH  17  28
ENDBRANCH  16  24
ENDBRANCH   1  16
TORSDOF 4
ENDMDL
MODEL 9
REMARK VINA RESULT:      -7.2      1.980      8.070
REMARK  Name = 
REMARK  7 active torsions:
REMARK  status: ('A' for Active; 'I' for Inactive)
REMARK    1  A    between atoms: N_2  and  C_3
REMARK    2  A    between atoms: C_10  and  O_11
REMARK    3  A    between atoms: O_11  and  C_12
REMARK    4  A    between atoms: C_15  and  C_16
REMARK    5  A    between atoms: C_17  and  C_18
REMARK    6  A    between atoms: C_22  and  C_23
REMARK    7  A    between atoms: C_24  and  C_25
REMARK                            x       y       z     vdW  Elec       q    Type
REMARK                         _______ _______ _______ _____ _____    ______ ____
ROOT
ATOM      1  C   UNL     1       1.862   9.181  18.517  0.00  0.00    +0.000 A 
ATOM      2  C   UNL     1       2.670   8.678  17.510  0.00  0.00    +0.000 A 
ATOM      3  C   UNL     1       3.191   7.388  17.624  0.00  0.00    +0.000 A 
ATOM      4  C   UNL     1       2.874   6.516  18.693  0.00  0.00    +0.000 A 
ATOM      5  C   UNL     1       2.085   7.074  19.737  0.00  0.00    +0.000 A 
ATOM      6  C   UNL     1       1.666   6.364  20.998  0.00  0.00    +0.000 C 
ATOM      7  C   UNL     1       1.639   8.412  19.651  0.00  0.00    +0.000 A 
ENDROOT
BRANCH   4   8
ATOM      8  C   UNL     1       3.348   5.094  18.618  0.00  0.00    +0.000 A 
ATOM      9  C   UNL     1       4.643   4.663  18.961  0.00  0.00    +0.000 A 
ATOM     10  C   UNL     1       5.762   5.566  19.391  0.00  0.00    +0.000 C 
ATOM     11  N   UNL     1       5.038   3.362  18.935  0.00  0.00    +0.000 NA
ATOM     12  C   UNL     1       4.154   2.464  18.504  0.00  0.00    +0.000 A 
ATOM     13  N   UNL     1       2.922   2.740  18.088  0.00  0.00    +0.000 NA
ATOM     14  C   UNL     1       2.527   4.039  18.150  0.00  0.00    +0.000 A 
ATOM     15  C   UNL     1       1.124   4.216  17.630  0.00  0.00    +0.000 C 
ENDBRANCH   4   8
BRANCH   1  16
ATOM     16  O   UNL     1       1.327  10.444  18.512  0.00  0.00    +0.000 OA
BRANCH  16  24
ATOM     17  C   UNL     1      -0.374  12.659  19.866  0.00  0.00    +0.000 A 
ATOM     18  C   UNL     1      -1.499  13.389  20.169  0.00  0.00    +0.000 A 
ATOM     19  N   UNL     1      -2.549  12.812  19.512  0.00  0.00    +0.000 N 
ATOM     20  C   UNL     1      -2.114  11.720  18.791  0.00  0.00    +0.000 A 
ATOM     21  C   UNL     1      -2.821  10.835  17.978  0.00  0.00    +0.000 A 
ATOM     22  C   UNL     1      -2.059   9.826  17.411  0.00  0.00    +0.000 A 
ATOM     23  N   UNL     1      -0.728   9.674  17.580  0.00  0.00    +0.000 NA
ATOM     24  C   UNL     1      -0.046  10.571  18.342  0.00  0.00    +0.000 A 
ATOM     25  C   UNL     1      -0.735  11.601  18.994  0.00  0.00    +0.000 A 
ATOM     26  H   UNL     1      -3.509  13.133  19.546  0.00  0.00    +0.000 HD
BRANCH  17  28
ATOM     27  C   UNL     1       2.007  13.151  20.767  0.00  0.00    +0.000 C 
ATOM     28  N   UNL     1       0.936  12.928  20.351  0.00  0.00    +0.000 NA
ENDBRANCH  17  28
ENDBRANCH  16  24
ENDBRANCH   1  16
TORSDOF 4
ENDMDL
