MODEL 1
REMARK VINA RESULT:      -8.2      0.000      0.000
REMARK  Name = 
REMARK  11 active torsions:
REMARK  status: ('A' for Active; 'I' for Inactive)
REMARK    1  A    between atoms: C_1  and  C_2
REMARK    2  A    between atoms: C_2  and  O_3
REMARK    3  A    between atoms: O_3  and  C_4
REMARK    4  A    between atoms: C_4  and  C_6
REMARK    5  A    between atoms: C_7  and  C_8
REMARK    6  A    between atoms: C_10  and  C_11
REMARK    7  A    between atoms: C_12  and  C_13
REMARK    8  A    between atoms: C_13  and  O_15
REMARK    9  A    between atoms: O_15  and  C_16
REMARK   10  A    between atoms: C_16  and  C_17
REMARK   11  A    between atoms: C_23  and  C_24
REMARK                            x       y       z     vdW  Elec       q    Type
REMARK                         _______ _______ _______ _____ _____    ______ ____
ROOT
ATOM      1  C   UNL     1       3.562   3.982  18.470  0.00  0.00    +0.000 C 
ATOM      2  C   UNL     1       4.501   3.314  19.186  0.00  0.00    +0.000 C 
ATOM      3  C   UNL     1       4.412   1.900  19.715  0.00  0.00    +0.000 C 
ATOM      4  N   UNL     1       5.713   3.941  19.464  0.00  0.00    +0.000 N 
ATOM      5  C   UNL     1       6.175   5.053  18.775  0.00  0.00    +0.000 C 
ATOM      6  C   UNL     1       7.645   5.357  18.926  0.00  0.00    +0.000 C 
ATOM      7  C   UNL     1       5.315   5.789  18.032  0.00  0.00    +0.000 C 
ATOM      8  C   UNL     1       3.823   5.438  18.022  0.00  0.00    +0.000 C 
ATOM      9  H   UNL     1       6.428   3.348  19.887  0.00  0.00    +0.000 HD
ENDROOT
BRANCH   8  10
ATOM     10  C   UNL     1       3.021   6.389  18.875  0.00  0.00    +0.000 A 
ATOM     11  N   UNL     1       2.661   6.083  20.167  0.00  0.00    +0.000 N 
ATOM     12  C   UNL     1       1.964   7.144  20.664  0.00  0.00    +0.000 A 
ATOM     13  N   UNL     1       1.842   8.097  19.771  0.00  0.00    +0.000 NA
ATOM     14  C   UNL     1       2.489   7.640  18.647  0.00  0.00    +0.000 A 
ATOM     15 CL   UNL     1       2.573   8.553  17.215  0.00  0.00    +0.000 Cl
ATOM     16  H   UNL     1       2.874   5.221  20.655  0.00  0.00    +0.000 HD
ENDBRANCH   8  10
BRANCH   1  17
ATOM     17  C   UNL     1       2.259   3.367  18.083  0.00  0.00    +0.000 C 
ATOM     18  O   UNL     1       2.046   2.738  17.065  0.00  0.00    +0.000 OA
BRANCH  17  19
ATOM     19  O   UNL     1       1.321   3.718  18.996  0.00  0.00    +0.000 OA
BRANCH  19  21
ATOM     20  C   UNL     1       1.264   2.931  21.228  0.00  0.00    +0.000 C 
ATOM     21  C   UNL     1       0.811   2.651  19.807  0.00  0.00    +0.000 C 
ENDBRANCH  19  21
ENDBRANCH  17  19
ENDBRANCH   1  17
BRANCH   7  22
ATOM     22  C   UNL     1       5.812   6.902  17.177  0.00  0.00    +0.000 C 
ATOM     23  O   UNL     1       6.107   8.009  17.611  0.00  0.00    +0.000 OA
BRANCH  22  24
ATOM     24  O   UNL     1       5.899   6.544  15.877  0.00  0.00    +0.000 OA
BRANCH  24  25
ATOM     25  C   UNL     1       6.986   5.665  15.544  0.00  0.00    +0.000 C 
BRANCH  25  26
ATOM     26  C   UNL     1       6.633   4.917  14.288  0.00  0.00    +0.000 A 
ATOM     27  C   UNL     1       5.447   4.175  14.209  0.00  0.00    +0.000 A 
ATOM     28  C   UNL     1       5.159   3.422  13.071  0.00  0.00    +0.000 A 
ATOM     29  C   UNL     1       6.052   3.404  12.001  0.00  0.00    +0.000 A 
ATOM     30  C   UNL     1       7.226   4.154  12.060  0.00  0.00    +0.000 A 
ATOM     31  C   UNL     1       7.516   4.908  13.199  0.00  0.00    +0.000 A 
ENDBRANCH  25  26
ENDBRANCH  24  25
ENDBRANCH  22  24
ENDBRANCH   7  22
TORSDOF 8
ENDMDL
MODEL 2
REMARK VINA RESULT:      -8.0      1.095      1.546
REMARK  Name = 
REMARK  11 active torsions:
REMARK  status: ('A' for Active; 'I' for Inactive)
REMARK    1  A    between atoms: C_1  and  C_2
REMARK    2  A    between atoms: C_2  and  O_3
REMARK    3  A    between atoms: O_3  and  C_4
REMARK    4  A    between atoms: C_4  and  C_6
REMARK    5  A    between atoms: C_7  and  C_8
REMARK    6  A    between atoms: C_10  and  C_11
REMARK    7  A    between atoms: C_12  and  C_13
REMARK    8  A    between atoms: C_13  and  O_15
REMARK    9  A    between atoms: O_15  and  C_16
REMARK   10  A    between atoms: C_16  and  C_17
REMARK   11  A    between atoms: C_23  and  C_24
REMARK                            x       y       z     vdW  Elec       q    Type
REMARK                         _______ _______ _______ _____ _____    ______ ____
ROOT
ATOM      1  C   UNL     1       3.747   4.235  18.225  0.00  0.00    +0.000 C 
ATOM      2  C   UNL     1       4.502   3.671  19.201  0.00  0.00    +0.000 C 
ATOM      3  C   UNL     1       4.246   2.361  19.912  0.00  0.00    +0.000 C 
ATOM      4  N   UNL     1       5.671   4.310  19.607  0.00  0.00    +0.000 N 
ATOM      5  C   UNL     1       6.307   5.290  18.859  0.00  0.00    +0.000 C 
ATOM      6  C   UNL     1       7.736   5.586  19.240  0.00  0.00    +0.000 C 
ATOM      7  C   UNL     1       5.638   5.915  17.861  0.00  0.00    +0.000 C 
ATOM      8  C   UNL     1       4.158   5.596  17.619  0.00  0.00    +0.000 C 
ATOM      9  H   UNL     1       6.264   3.779  20.245  0.00  0.00    +0.000 HD
ENDROOT
BRANCH   8  10
ATOM     10  C   UNL     1       3.258   6.686  18.148  0.00  0.00    +0.000 A 
ATOM     11  N   UNL     1       2.932   7.790  17.395  0.00  0.00    +0.000 N 
ATOM     12  C   UNL     1       2.101   8.569  18.143  0.00  0.00    +0.000 A 
ATOM     13  N   UNL     1       1.890   8.044  19.327  0.00  0.00    +0.000 NA
ATOM     14  C   UNL     1       2.610   6.873  19.349  0.00  0.00    +0.000 A 
ATOM     15 CL   UNL     1       2.644   5.856  20.711  0.00  0.00    +0.000 Cl
ATOM     16  H   UNL     1       3.257   7.986  16.455  0.00  0.00    +0.000 HD
ENDBRANCH   8  10
BRANCH   1  17
ATOM     17  C   UNL     1       2.511   3.592  17.693  0.00  0.00    +0.000 C 
ATOM     18  O   UNL     1       2.422   2.984  16.644  0.00  0.00    +0.000 OA
BRANCH  17  19
ATOM     19  O   UNL     1       1.474   3.890  18.515  0.00  0.00    +0.000 OA
BRANCH  19  21
ATOM     20  C   UNL     1       0.859   2.924  20.587  0.00  0.00    +0.000 C 
ATOM     21  C   UNL     1       0.784   2.768  19.079  0.00  0.00    +0.000 C 
ENDBRANCH  19  21
ENDBRANCH  17  19
ENDBRANCH   1  17
BRANCH   7  22
ATOM     22  C   UNL     1       6.339   6.869  16.958  0.00  0.00    +0.000 C 
ATOM     23  O   UNL     1       6.814   7.934  17.335  0.00  0.00    +0.000 OA
BRANCH  22  24
ATOM     24  O   UNL     1       6.389   6.420  15.685  0.00  0.00    +0.000 OA
BRANCH  24  25
ATOM     25  C   UNL     1       7.174   5.235  15.474  0.00  0.00    +0.000 C 
BRANCH  25  26
ATOM     26  C   UNL     1       6.689   4.552  14.224  0.00  0.00    +0.000 A 
ATOM     27  C   UNL     1       7.493   4.510  13.077  0.00  0.00    +0.000 A 
ATOM     28  C   UNL     1       7.011   3.943  11.897  0.00  0.00    +0.000 A 
ATOM     29  C   UNL     1       5.723   3.412  11.853  0.00  0.00    +0.000 A 
ATOM     30  C   UNL     1       4.921   3.430  12.993  0.00  0.00    +0.000 A 
ATOM     31  C   UNL     1       5.402   3.998  14.174  0.00  0.00    +0.000 A 
ENDBRANCH  25  26
ENDBRANCH  24  25
ENDBRANCH  22  24
ENDBRANCH   7  22
TORSDOF 8
ENDMDL
MODEL 3
REMARK VINA RESULT:      -7.2      2.417      4.257
REMARK  Name = 
REMARK  11 active torsions:
REMARK  status: ('A' for Active; 'I' for Inactive)
REMARK    1  A    between atoms: C_1  and  C_2
REMARK    2  A    between atoms: C_2  and  O_3
REMARK    3  A    between atoms: O_3  and  C_4
REMARK    4  A    between atoms: C_4  and  C_6
REMARK    5  A    between atoms: C_7  and  C_8
REMARK    6  A    between atoms: C_10  and  C_11
REMARK    7  A    between atoms: C_12  and  C_13
REMARK    8  A    between atoms: C_13  and  O_15
REMARK    9  A    between atoms: O_15  and  C_16
REMARK   10  A    between atoms: C_16  and  C_17
REMARK   11  A    between atoms: C_23  and  C_24
REMARK                            x       y       z     vdW  Elec       q    Type
REMARK                         _______ _______ _______ _____ _____    ______ ____
ROOT
ATOM      1  C   UNL     1       3.598   4.091  18.478  0.00  0.00    +0.000 C 
ATOM      2  C   UNL     1       4.533   3.423  19.198  0.00  0.00    +0.000 C 
ATOM      3  C   UNL     1       4.446   2.005  19.718  0.00  0.00    +0.000 C 
ATOM      4  N   UNL     1       5.740   4.053  19.490  0.00  0.00    +0.000 N 
ATOM      5  C   UNL     1       6.204   5.171  18.812  0.00  0.00    +0.000 C 
ATOM      6  C   UNL     1       7.670   5.481  18.977  0.00  0.00    +0.000 C 
ATOM      7  C   UNL     1       5.347   5.908  18.065  0.00  0.00    +0.000 C 
ATOM      8  C   UNL     1       3.856   5.550  18.040  0.00  0.00    +0.000 C 
ATOM      9  H   UNL     1       6.454   3.461  19.916  0.00  0.00    +0.000 HD
ENDROOT
BRANCH   8  10
ATOM     10  C   UNL     1       3.042   6.493  18.891  0.00  0.00    +0.000 A 
ATOM     11  N   UNL     1       2.698   6.191  20.189  0.00  0.00    +0.000 N 
ATOM     12  C   UNL     1       1.985   7.242  20.682  0.00  0.00    +0.000 A 
ATOM     13  N   UNL     1       1.838   8.186  19.782  0.00  0.00    +0.000 NA
ATOM     14  C   UNL     1       2.485   7.732  18.656  0.00  0.00    +0.000 A 
ATOM     15 CL   UNL     1       2.540   8.634  17.217  0.00  0.00    +0.000 Cl
ATOM     16  H   UNL     1       2.932   5.338  20.682  0.00  0.00    +0.000 HD
ENDBRANCH   8  10
BRANCH   1  17
ATOM     17  C   UNL     1       2.301   3.472  18.076  0.00  0.00    +0.000 C 
ATOM     18  O   UNL     1       2.102   2.840  17.056  0.00  0.00    +0.000 OA
BRANCH  17  19
ATOM     19  O   UNL     1       1.351   3.824  18.976  0.00  0.00    +0.000 OA
BRANCH  19  21
ATOM     20  C   UNL     1       1.253   2.989  21.189  0.00  0.00    +0.000 C 
ATOM     21  C   UNL     1       0.806   2.754  19.758  0.00  0.00    +0.000 C 
ENDBRANCH  19  21
ENDBRANCH  17  19
ENDBRANCH   1  17
BRANCH   7  22
ATOM     22  C   UNL     1       5.846   7.028  17.220  0.00  0.00    +0.000 C 
ATOM     23  O   UNL     1       5.587   7.145  16.028  0.00  0.00    +0.000 OA
BRANCH  22  24
ATOM     24  O   UNL     1       6.611   7.892  17.923  0.00  0.00    +0.000 OA
BRANCH  24  25
ATOM     25  C   UNL     1       7.858   8.260  17.311  0.00  0.00    +0.000 C 
BRANCH  25  26
ATOM     26  C   UNL     1       8.397   9.478  18.011  0.00  0.00    +0.000 A 
ATOM     27  C   UNL     1       9.008   9.365  19.267  0.00  0.00    +0.000 A 
ATOM     28  C   UNL     1       9.439  10.505  19.947  0.00  0.00    +0.000 A 
ATOM     29  C   UNL     1       9.265  11.765  19.378  0.00  0.00    +0.000 A 
ATOM     30  C   UNL     1       8.676  11.887  18.120  0.00  0.00    +0.000 A 
ATOM     31  C   UNL     1       8.244  10.748  17.439  0.00  0.00    +0.000 A 
ENDBRANCH  25  26
ENDBRANCH  24  25
ENDBRANCH  22  24
ENDBRANCH   7  22
TORSDOF 8
ENDMDL
MODEL 4
REMARK VINA RESULT:      -6.9      2.356      3.684
REMARK  Name = 
REMARK  11 active torsions:
REMARK  status: ('A' for Active; 'I' for Inactive)
REMARK    1  A    between atoms: C_1  and  C_2
REMARK    2  A    between atoms: C_2  and  O_3
REMARK    3  A    between atoms: O_3  and  C_4
REMARK    4  A    between atoms: C_4  and  C_6
REMARK    5  A    between atoms: C_7  and  C_8
REMARK    6  A    between atoms: C_10  and  C_11
REMARK    7  A    between atoms: C_12  and  C_13
REMARK    8  A    between atoms: C_13  and  O_15
REMARK    9  A    between atoms: O_15  and  C_16
REMARK   10  A    between atoms: C_16  and  C_17
REMARK   11  A    between atoms: C_23  and  C_24
REMARK                            x       y       z     vdW  Elec       q    Type
REMARK                         _______ _______ _______ _____ _____    ______ ____
ROOT
ATOM      1  C   UNL     1       2.857   6.206  19.501  0.00  0.00    +0.000 C 
ATOM      2  C   UNL     1       2.824   7.250  18.636  0.00  0.00    +0.000 C 
ATOM      3  C   UNL     1       1.757   8.317  18.532  0.00  0.00    +0.000 C 
ATOM      4  N   UNL     1       3.881   7.426  17.747  0.00  0.00    +0.000 N 
ATOM      5  C   UNL     1       5.124   6.830  17.908  0.00  0.00    +0.000 C 
ATOM      6  C   UNL     1       6.249   7.425  17.098  0.00  0.00    +0.000 C 
ATOM      7  C   UNL     1       5.261   5.778  18.749  0.00  0.00    +0.000 C 
ATOM      8  C   UNL     1       4.029   5.200  19.454  0.00  0.00    +0.000 C 
ATOM      9  H   UNL     1       3.868   8.297  17.215  0.00  0.00    +0.000 HD
ENDROOT
BRANCH   8  10
ATOM     10  C   UNL     1       3.574   3.911  18.815  0.00  0.00    +0.000 A 
ATOM     11  N   UNL     1       2.719   3.894  17.737  0.00  0.00    +0.000 N 
ATOM     12  C   UNL     1       2.518   2.592  17.390  0.00  0.00    +0.000 A 
ATOM     13  N   UNL     1       3.172   1.778  18.184  0.00  0.00    +0.000 NA
ATOM     14  C   UNL     1       3.830   2.584  19.084  0.00  0.00    +0.000 A 
ATOM     15 CL   UNL     1       4.803   1.950  20.325  0.00  0.00    +0.000 Cl
ATOM     16  H   UNL     1       2.313   4.707  17.288  0.00  0.00    +0.000 HD
ENDBRANCH   8  10
BRANCH   1  17
ATOM     17  C   UNL     1       1.794   5.974  20.522  0.00  0.00    +0.000 C 
ATOM     18  O   UNL     1       0.941   6.776  20.853  0.00  0.00    +0.000 OA
BRANCH  17  19
ATOM     19  O   UNL     1       1.998   4.766  21.101  0.00  0.00    +0.000 OA
BRANCH  19  21
ATOM     20  C   UNL     1       1.378   2.551  21.661  0.00  0.00    +0.000 C 
ATOM     21  C   UNL     1       0.987   3.780  20.860  0.00  0.00    +0.000 C 
ENDBRANCH  19  21
ENDBRANCH  17  19
ENDBRANCH   1  17
BRANCH   7  22
ATOM     22  C   UNL     1       6.607   5.211  19.042  0.00  0.00    +0.000 C 
ATOM     23  O   UNL     1       7.336   5.624  19.936  0.00  0.00    +0.000 OA
BRANCH  22  24
ATOM     24  O   UNL     1       6.921   4.194  18.210  0.00  0.00    +0.000 OA
BRANCH  24  25
ATOM     25  C   UNL     1       7.798   4.527  17.122  0.00  0.00    +0.000 C 
BRANCH  25  26
ATOM     26  C   UNL     1       7.042   4.381  15.830  0.00  0.00    +0.000 A 
ATOM     27  C   UNL     1       5.807   3.720  15.799  0.00  0.00    +0.000 A 
ATOM     28  C   UNL     1       5.144   3.520  14.588  0.00  0.00    +0.000 A 
ATOM     29  C   UNL     1       5.707   3.979  13.398  0.00  0.00    +0.000 A 
ATOM     30  C   UNL     1       6.926   4.655  13.420  0.00  0.00    +0.000 A 
ATOM     31  C   UNL     1       7.591   4.856  14.631  0.00  0.00    +0.000 A 
ENDBRANCH  25  26
ENDBRANCH  24  25
ENDBRANCH  22  24
ENDBRANCH   7  22
TORSDOF 8
ENDMDL
MODEL 5
REMARK VINA RESULT:      -6.9      2.451      3.999
REMARK  Name = 
REMARK  11 active torsions:
REMARK  status: ('A' for Active; 'I' for Inactive)
REMARK    1  A    between atoms: C_1  and  C_2
REMARK    2  A    between atoms: C_2  and  O_3
REMARK    3  A    between atoms: O_3  and  C_4
REMARK    4  A    between atoms: C_4  and  C_6
REMARK    5  A    between atoms: C_7  and  C_8
REMARK    6  A    between atoms: C_10  and  C_11
REMARK    7  A    between atoms: C_12  and  C_13
REMARK    8  A    between atoms: C_13  and  O_15
REMARK    9  A    between atoms: O_15  and  C_16
REMARK   10  A    between atoms: C_16  and  C_17
REMARK   11  A    between atoms: C_23  and  C_24
REMARK                            x       y       z     vdW  Elec       q    Type
REMARK                         _______ _______ _______ _____ _____    ______ ____
ROOT
ATOM      1  C   UNL     1       2.743   6.399  19.424  0.00  0.00    +0.000 C 
ATOM      2  C   UNL     1       2.772   7.394  18.502  0.00  0.00    +0.000 C 
ATOM      3  C   UNL     1       1.753   8.496  18.314  0.00  0.00    +0.000 C 
ATOM      4  N   UNL     1       3.854   7.477  17.629  0.00  0.00    +0.000 N 
ATOM      5  C   UNL     1       5.067   6.840  17.852  0.00  0.00    +0.000 C 
ATOM      6  C   UNL     1       6.233   7.342  17.037  0.00  0.00    +0.000 C 
ATOM      7  C   UNL     1       5.143   5.832  18.752  0.00  0.00    +0.000 C 
ATOM      8  C   UNL     1       3.872   5.345  19.459  0.00  0.00    +0.000 C 
ATOM      9  H   UNL     1       3.889   8.316  17.050  0.00  0.00    +0.000 HD
ENDROOT
BRANCH   8  10
ATOM     10  C   UNL     1       3.377   4.042  18.882  0.00  0.00    +0.000 A 
ATOM     11  N   UNL     1       2.481   4.001  17.838  0.00  0.00    +0.000 N 
ATOM     12  C   UNL     1       2.251   2.691  17.544  0.00  0.00    +0.000 A 
ATOM     13  N   UNL     1       2.925   1.895  18.339  0.00  0.00    +0.000 NA
ATOM     14  C   UNL     1       3.628   2.721  19.185  0.00  0.00    +0.000 A 
ATOM     15 CL   UNL     1       4.640   2.116  20.409  0.00  0.00    +0.000 Cl
ATOM     16  H   UNL     1       2.069   4.804  17.378  0.00  0.00    +0.000 HD
ENDBRANCH   8  10
BRANCH   1  17
ATOM     17  C   UNL     1       1.650   6.269  20.430  0.00  0.00    +0.000 C 
ATOM     18  O   UNL     1       0.842   5.362  20.487  0.00  0.00    +0.000 OA
BRANCH  17  19
ATOM     19  O   UNL     1       1.631   7.382  21.203  0.00  0.00    +0.000 OA
BRANCH  19  21
ATOM     20  C   UNL     1       0.554   9.314  22.047  0.00  0.00    +0.000 C 
ATOM     21  C   UNL     1       0.334   7.918  21.492  0.00  0.00    +0.000 C 
ENDBRANCH  19  21
ENDBRANCH  17  19
ENDBRANCH   1  17
BRANCH   7  22
ATOM     22  C   UNL     1       6.457   5.228  19.107  0.00  0.00    +0.000 C 
ATOM     23  O   UNL     1       7.171   5.645  20.011  0.00  0.00    +0.000 OA
BRANCH  22  24
ATOM     24  O   UNL     1       6.760   4.174  18.319  0.00  0.00    +0.000 OA
BRANCH  24  25
ATOM     25  C   UNL     1       7.711   4.432  17.273  0.00  0.00    +0.000 C 
BRANCH  25  26
ATOM     26  C   UNL     1       7.001   4.357  15.948  0.00  0.00    +0.000 A 
ATOM     27  C   UNL     1       5.748   3.740  15.845  0.00  0.00    +0.000 A 
ATOM     28  C   UNL     1       5.127   3.605  14.603  0.00  0.00    +0.000 A 
ATOM     29  C   UNL     1       5.752   4.086  13.454  0.00  0.00    +0.000 A 
ATOM     30  C   UNL     1       6.991   4.719  13.547  0.00  0.00    +0.000 A 
ATOM     31  C   UNL     1       7.613   4.855  14.789  0.00  0.00    +0.000 A 
ENDBRANCH  25  26
ENDBRANCH  24  25
ENDBRANCH  22  24
ENDBRANCH   7  22
TORSDOF 8
ENDMDL
MODEL 6
REMARK VINA RESULT:      -6.8      2.726      4.565
REMARK  Name = 
REMARK  11 active torsions:
REMARK  status: ('A' for Active; 'I' for Inactive)
REMARK    1  A    between atoms: C_1  and  C_2
REMARK    2  A    between atoms: C_2  and  O_3
REMARK    3  A    between atoms: O_3  and  C_4
REMARK    4  A    between atoms: C_4  and  C_6
REMARK    5  A    between atoms: C_7  and  C_8
REMARK    6  A    between atoms: C_10  and  C_11
REMARK    7  A    between atoms: C_12  and  C_13
REMARK    8  A    between atoms: C_13  and  O_15
REMARK    9  A    between atoms: O_15  and  C_16
REMARK   10  A    between atoms: C_16  and  C_17
REMARK   11  A    between atoms: C_23  and  C_24
REMARK                            x       y       z     vdW  Elec       q    Type
REMARK                         _______ _______ _______ _____ _____    ______ ____
ROOT
ATOM      1  C   UNL     1       3.726   4.265  18.227  0.00  0.00    +0.000 C 
ATOM      2  C   UNL     1       4.488   3.656  19.170  0.00  0.00    +0.000 C 
ATOM      3  C   UNL     1       4.253   2.303  19.802  0.00  0.00    +0.000 C 
ATOM      4  N   UNL     1       5.647   4.289  19.615  0.00  0.00    +0.000 N 
ATOM      5  C   UNL     1       6.268   5.321  18.926  0.00  0.00    +0.000 C 
ATOM      6  C   UNL     1       7.692   5.616  19.327  0.00  0.00    +0.000 C 
ATOM      7  C   UNL     1       5.590   5.992  17.966  0.00  0.00    +0.000 C 
ATOM      8  C   UNL     1       4.115   5.665  17.703  0.00  0.00    +0.000 C 
ATOM      9  H   UNL     1       6.248   3.730  20.221  0.00  0.00    +0.000 HD
ENDROOT
BRANCH   8  10
ATOM     10  C   UNL     1       3.199   6.708  18.293  0.00  0.00    +0.000 A 
ATOM     11  N   UNL     1       2.843   7.841  17.598  0.00  0.00    +0.000 N 
ATOM     12  C   UNL     1       2.003   8.564  18.392  0.00  0.00    +0.000 A 
ATOM     13  N   UNL     1       1.813   7.976  19.549  0.00  0.00    +0.000 NA
ATOM     14  C   UNL     1       2.558   6.821  19.508  0.00  0.00    +0.000 A 
ATOM     15 CL   UNL     1       2.625   5.738  20.816  0.00  0.00    +0.000 Cl
ATOM     16  H   UNL     1       3.154   8.090  16.667  0.00  0.00    +0.000 HD
ENDBRANCH   8  10
BRANCH   1  17
ATOM     17  C   UNL     1       2.500   3.634  17.657  0.00  0.00    +0.000 C 
ATOM     18  O   UNL     1       2.431   3.054  16.590  0.00  0.00    +0.000 OA
BRANCH  17  19
ATOM     19  O   UNL     1       1.449   3.909  18.467  0.00  0.00    +0.000 OA
BRANCH  19  21
ATOM     20  C   UNL     1       0.818   2.934  20.530  0.00  0.00    +0.000 C 
ATOM     21  C   UNL     1       0.775   2.772  19.022  0.00  0.00    +0.000 C 
ENDBRANCH  19  21
ENDBRANCH  17  19
ENDBRANCH   1  17
BRANCH   7  22
ATOM     22  C   UNL     1       6.277   7.009  17.121  0.00  0.00    +0.000 C 
ATOM     23  O   UNL     1       6.305   6.964  15.897  0.00  0.00    +0.000 OA
BRANCH  22  24
ATOM     24  O   UNL     1       6.859   7.976  17.863  0.00  0.00    +0.000 OA
BRANCH  24  25
ATOM     25  C   UNL     1       8.146   8.422  17.407  0.00  0.00    +0.000 C 
BRANCH  25  26
ATOM     26  C   UNL     1       8.505   9.687  18.138  0.00  0.00    +0.000 A 
ATOM     27  C   UNL     1       8.314  10.937  17.535  0.00  0.00    +0.000 A 
ATOM     28  C   UNL     1       8.717  12.103  18.186  0.00  0.00    +0.000 A 
ATOM     29  C   UNL     1       9.314  12.031  19.443  0.00  0.00    +0.000 A 
ATOM     30  C   UNL     1       9.492  10.794  20.061  0.00  0.00    +0.000 A 
ATOM     31  C   UNL     1       9.089   9.626  19.411  0.00  0.00    +0.000 A 
ENDBRANCH  25  26
ENDBRANCH  24  25
ENDBRANCH  22  24
ENDBRANCH   7  22
TORSDOF 8
ENDMDL
MODEL 7
REMARK VINA RESULT:      -6.7      1.478      1.998
REMARK  Name = 
REMARK  11 active torsions:
REMARK  status: ('A' for Active; 'I' for Inactive)
REMARK    1  A    between atoms: C_1  and  C_2
REMARK    2  A    between atoms: C_2  and  O_3
REMARK    3  A    between atoms: O_3  and  C_4
REMARK    4  A    between atoms: C_4  and  C_6
REMARK    5  A    between atoms: C_7  and  C_8
REMARK    6  A    between atoms: C_10  and  C_11
REMARK    7  A    between atoms: C_12  and  C_13
REMARK    8  A    between atoms: C_13  and  O_15
REMARK    9  A    between atoms: O_15  and  C_16
REMARK   10  A    between atoms: C_16  and  C_17
REMARK   11  A    between atoms: C_23  and  C_24
REMARK                            x       y       z     vdW  Elec       q    Type
REMARK                         _______ _______ _______ _____ _____    ______ ____
ROOT
ATOM      1  C   UNL     1       3.413   3.707  18.413  0.00  0.00    +0.000 C 
ATOM      2  C   UNL     1       4.443   3.217  19.146  0.00  0.00    +0.000 C 
ATOM      3  C   UNL     1       4.390   2.098  20.163  0.00  0.00    +0.000 C 
ATOM      4  N   UNL     1       5.719   3.741  18.957  0.00  0.00    +0.000 N 
ATOM      5  C   UNL     1       6.086   4.476  17.838  0.00  0.00    +0.000 C 
ATOM      6  C   UNL     1       7.569   4.625  17.605  0.00  0.00    +0.000 C 
ATOM      7  C   UNL     1       5.131   5.010  17.041  0.00  0.00    +0.000 C 
ATOM      8  C   UNL     1       3.653   4.871  17.424  0.00  0.00    +0.000 C 
ATOM      9  H   UNL     1       6.473   3.247  19.434  0.00  0.00    +0.000 HD
ENDROOT
BRANCH   8  10
ATOM     10  C   UNL     1       3.101   6.153  17.997  0.00  0.00    +0.000 A 
ATOM     11  N   UNL     1       2.914   7.275  17.223  0.00  0.00    +0.000 N 
ATOM     12  C   UNL     1       2.394   8.247  18.024  0.00  0.00    +0.000 A 
ATOM     13  N   UNL     1       2.252   7.825  19.258  0.00  0.00    +0.000 NA
ATOM     14  C   UNL     1       2.696   6.523  19.261  0.00  0.00    +0.000 A 
ATOM     15 CL   UNL     1       2.710   5.574  20.671  0.00  0.00    +0.000 Cl
ATOM     16  H   UNL     1       3.129   7.359  16.237  0.00  0.00    +0.000 HD
ENDBRANCH   8  10
BRANCH   1  17
ATOM     17  C   UNL     1       2.026   3.167  18.514  0.00  0.00    +0.000 C 
ATOM     18  O   UNL     1       1.112   3.409  17.749  0.00  0.00    +0.000 OA
BRANCH  17  19
ATOM     19  O   UNL     1       1.918   2.450  19.659  0.00  0.00    +0.000 OA
BRANCH  19  21
ATOM     20  C   UNL     1       1.245   2.652  21.920  0.00  0.00    +0.000 C 
ATOM     21  C   UNL     1       0.782   2.753  20.479  0.00  0.00    +0.000 C 
ENDBRANCH  19  21
ENDBRANCH  17  19
ENDBRANCH   1  17
BRANCH   7  22
ATOM     22  C   UNL     1       5.497   5.684  15.764  0.00  0.00    +0.000 C 
ATOM     23  O   UNL     1       5.855   6.854  15.695  0.00  0.00    +0.000 OA
BRANCH  22  24
ATOM     24  O   UNL     1       5.387   4.855  14.704  0.00  0.00    +0.000 OA
BRANCH  24  25
ATOM     25  C   UNL     1       6.472   4.903  13.762  0.00  0.00    +0.000 C 
BRANCH  25  26
ATOM     26  C   UNL     1       6.304   3.779  12.776  0.00  0.00    +0.000 A 
ATOM     27  C   UNL     1       7.423   3.149  12.216  0.00  0.00    +0.000 A 
ATOM     28  C   UNL     1       7.265   2.159  11.247  0.00  0.00    +0.000 A 
ATOM     29  C   UNL     1       5.988   1.787  10.830  0.00  0.00    +0.000 A 
ATOM     30  C   UNL     1       4.866   2.393  11.395  0.00  0.00    +0.000 A 
ATOM     31  C   UNL     1       5.023   3.385  12.364  0.00  0.00    +0.000 A 
ENDBRANCH  25  26
ENDBRANCH  24  25
ENDBRANCH  22  24
ENDBRANCH   7  22
TORSDOF 8
ENDMDL
MODEL 8
REMARK VINA RESULT:      -6.7      2.454      4.129
REMARK  Name = 
REMARK  11 active torsions:
REMARK  status: ('A' for Active; 'I' for Inactive)
REMARK    1  A    between atoms: C_1  and  C_2
REMARK    2  A    between atoms: C_2  and  O_3
REMARK    3  A    between atoms: O_3  and  C_4
REMARK    4  A    between atoms: C_4  and  C_6
REMARK    5  A    between atoms: C_7  and  C_8
REMARK    6  A    between atoms: C_10  and  C_11
REMARK    7  A    between atoms: C_12  and  C_13
REMARK    8  A    between atoms: C_13  and  O_15
REMARK    9  A    between atoms: O_15  and  C_16
REMARK   10  A    between atoms: C_16  and  C_17
REMARK   11  A    between atoms: C_23  and  C_24
REMARK                            x       y       z     vdW  Elec       q    Type
REMARK                         _______ _______ _______ _____ _____    ______ ____
ROOT
ATOM      1  C   UNL     1       2.666   6.628  19.432  0.00  0.00    +0.000 C 
ATOM      2  C   UNL     1       2.701   7.538  18.427  0.00  0.00    +0.000 C 
ATOM      3  C   UNL     1       1.727   8.670  18.184  0.00  0.00    +0.000 C 
ATOM      4  N   UNL     1       3.748   7.494  17.510  0.00  0.00    +0.000 N 
ATOM      5  C   UNL     1       4.939   6.819  17.739  0.00  0.00    +0.000 C 
ATOM      6  C   UNL     1       6.091   7.192  16.841  0.00  0.00    +0.000 C 
ATOM      7  C   UNL     1       5.006   5.888  18.721  0.00  0.00    +0.000 C 
ATOM      8  C   UNL     1       3.746   5.526  19.515  0.00  0.00    +0.000 C 
ATOM      9  H   UNL     1       3.797   8.278  16.859  0.00  0.00    +0.000 HD
ENDROOT
BRANCH   8  10
ATOM     10  C   UNL     1       3.167   4.205  19.072  0.00  0.00    +0.000 A 
ATOM     11  N   UNL     1       2.987   3.898  17.743  0.00  0.00    +0.000 N 
ATOM     12  C   UNL     1       2.467   2.640  17.677  0.00  0.00    +0.000 A 
ATOM     13  N   UNL     1       2.288   2.132  18.873  0.00  0.00    +0.000 NA
ATOM     14  C   UNL     1       2.713   3.098  19.756  0.00  0.00    +0.000 A 
ATOM     15 CL   UNL     1       2.650   2.877  21.440  0.00  0.00    +0.000 Cl
ATOM     16  H   UNL     1       3.201   4.503  16.959  0.00  0.00    +0.000 HD
ENDBRANCH   8  10
BRANCH   1  17
ATOM     17  C   UNL     1       1.611   6.637  20.487  0.00  0.00    +0.000 C 
ATOM     18  O   UNL     1       0.819   5.741  20.706  0.00  0.00    +0.000 OA
BRANCH  17  19
ATOM     19  O   UNL     1       1.605   7.851  21.090  0.00  0.00    +0.000 OA
BRANCH  19  21
ATOM     20  C   UNL     1      -0.137   9.453  21.031  0.00  0.00    +0.000 C 
ATOM     21  C   UNL     1       0.383   8.217  21.742  0.00  0.00    +0.000 C 
ENDBRANCH  19  21
ENDBRANCH  17  19
ENDBRANCH   1  17
BRANCH   7  22
ATOM     22  C   UNL     1       6.305   5.252  19.076  0.00  0.00    +0.000 C 
ATOM     23  O   UNL     1       7.026   5.647  19.984  0.00  0.00    +0.000 OA
BRANCH  22  24
ATOM     24  O   UNL     1       6.586   4.195  18.282  0.00  0.00    +0.000 OA
BRANCH  24  25
ATOM     25  C   UNL     1       7.627   4.404  17.314  0.00  0.00    +0.000 C 
BRANCH  25  26
ATOM     26  C   UNL     1       7.034   4.283  15.936  0.00  0.00    +0.000 A 
ATOM     27  C   UNL     1       7.675   4.859  14.832  0.00  0.00    +0.000 A 
ATOM     28  C   UNL     1       7.086   4.809  13.568  0.00  0.00    +0.000 A 
ATOM     29  C   UNL     1       5.852   4.184  13.396  0.00  0.00    +0.000 A 
ATOM     30  C   UNL     1       5.215   3.590  14.485  0.00  0.00    +0.000 A 
ATOM     31  C   UNL     1       5.803   3.639  15.750  0.00  0.00    +0.000 A 
ENDBRANCH  25  26
ENDBRANCH  24  25
ENDBRANCH  22  24
ENDBRANCH   7  22
TORSDOF 8
ENDMDL
MODEL 9
REMARK VINA RESULT:      -6.7      1.930      3.518
REMARK  Name = 
REMARK  11 active torsions:
REMARK  status: ('A' for Active; 'I' for Inactive)
REMARK    1  A    between atoms: C_1  and  C_2
REMARK    2  A    between atoms: C_2  and  O_3
REMARK    3  A    between atoms: O_3  and  C_4
REMARK    4  A    between atoms: C_4  and  C_6
REMARK    5  A    between atoms: C_7  and  C_8
REMARK    6  A    between atoms: C_10  and  C_11
REMARK    7  A    between atoms: C_12  and  C_13
REMARK    8  A    between atoms: C_13  and  O_15
REMARK    9  A    between atoms: O_15  and  C_16
REMARK   10  A    between atoms: C_16  and  C_17
REMARK   11  A    between atoms: C_23  and  C_24
REMARK                            x       y       z     vdW  Elec       q    Type
REMARK                         _______ _______ _______ _____ _____    ______ ____
ROOT
ATOM      1  C   UNL     1       3.011   6.090  19.357  0.00  0.00    +0.000 C 
ATOM      2  C   UNL     1       2.820   7.161  18.547  0.00  0.00    +0.000 C 
ATOM      3  C   UNL     1       1.774   8.243  18.692  0.00  0.00    +0.000 C 
ATOM      4  N   UNL     1       3.676   7.351  17.465  0.00  0.00    +0.000 N 
ATOM      5  C   UNL     1       4.915   6.736  17.351  0.00  0.00    +0.000 C 
ATOM      6  C   UNL     1       5.861   7.341  16.345  0.00  0.00    +0.000 C 
ATOM      7  C   UNL     1       5.203   5.657  18.117  0.00  0.00    +0.000 C 
ATOM      8  C   UNL     1       4.130   5.072  19.043  0.00  0.00    +0.000 C 
ATOM      9  H   UNL     1       3.571   8.238  16.971  0.00  0.00    +0.000 HD
ENDROOT
BRANCH   8  10
ATOM     10  C   UNL     1       3.531   3.809  18.476  0.00  0.00    +0.000 A 
ATOM     11  N   UNL     1       4.142   2.584  18.619  0.00  0.00    +0.000 N 
ATOM     12  C   UNL     1       3.349   1.655  18.015  0.00  0.00    +0.000 A 
ATOM     13  N   UNL     1       2.284   2.206  17.483  0.00  0.00    +0.000 NA
ATOM     14  C   UNL     1       2.385   3.550  17.754  0.00  0.00    +0.000 A 
ATOM     15 CL   UNL     1       1.217   4.670  17.234  0.00  0.00    +0.000 Cl
ATOM     16  H   UNL     1       5.023   2.411  19.087  0.00  0.00    +0.000 HD
ENDBRANCH   8  10
BRANCH   1  17
ATOM     17  C   UNL     1       2.175   5.840  20.567  0.00  0.00    +0.000 C 
ATOM     18  O   UNL     1       1.378   6.619  21.052  0.00  0.00    +0.000 OA
BRANCH  17  19
ATOM     19  O   UNL     1       2.528   4.646  21.105  0.00  0.00    +0.000 OA
BRANCH  19  21
ATOM     20  C   UNL     1       2.113   2.381  21.654  0.00  0.00    +0.000 C 
ATOM     21  C   UNL     1       1.465   3.699  21.271  0.00  0.00    +0.000 C 
ENDBRANCH  19  21
ENDBRANCH  17  19
ENDBRANCH   1  17
BRANCH   7  22
ATOM     22  C   UNL     1       6.569   5.065  18.112  0.00  0.00    +0.000 C 
ATOM     23  O   UNL     1       7.213   4.839  19.130  0.00  0.00    +0.000 OA
BRANCH  22  24
ATOM     24  O   UNL     1       7.007   4.809  16.860  0.00  0.00    +0.000 OA
BRANCH  24  25
ATOM     25  C   UNL     1       6.174   3.939  16.076  0.00  0.00    +0.000 C 
BRANCH  25  26
ATOM     26  C   UNL     1       6.549   4.091  14.626  0.00  0.00    +0.000 A 
ATOM     27  C   UNL     1       7.543   4.998  14.239  0.00  0.00    +0.000 A 
ATOM     28  C   UNL     1       7.836   5.192  12.889  0.00  0.00    +0.000 A 
ATOM     29  C   UNL     1       7.138   4.480  11.914  0.00  0.00    +0.000 A 
ATOM     30  C   UNL     1       6.160   3.560  12.289  0.00  0.00    +0.000 A 
ATOM     31  C   UNL     1       5.866   3.366  13.639  0.00  0.00    +0.000 A 
ENDBRANCH  25  26
ENDBRANCH  24  25
ENDBRANCH  22  24
ENDBRANCH   7  22
TORSDOF 8
ENDMDL
