MODEL 1
REMARK VINA RESULT:      -8.0      0.000      0.000
REMARK  Name = 
REMARK  5 active torsions:
REMARK  status: ('A' for Active; 'I' for Inactive)
REMARK    1  A    between atoms: C_1  and  N_2
REMARK    2  A    between atoms: C_5  and  C_6
REMARK    3  A    between atoms: N_8  and  C_9
REMARK    4  A    between atoms: C_14  and  O_15
REMARK    5  A    between atoms: C_16  and  O_17
REMARK                            x       y       z     vdW  Elec       q    Type
REMARK                         _______ _______ _______ _____ _____    ______ ____
ROOT
ATOM      1  C   UNL     1       2.584   7.241  19.212  0.00  0.00    +0.000 C 
ATOM      2  N   UNL     1       3.045   5.904  18.872  0.00  0.00    +0.000 N 
ATOM      3  C   UNL     1       4.055   5.778  17.926  0.00  0.00    +0.000 A 
ATOM      4  O   UNL     1       4.578   6.756  17.393  0.00  0.00    +0.000 OA
ATOM      5  C   UNL     1       4.531   4.407  17.568  0.00  0.00    +0.000 A 
ATOM      6  C   UNL     1       4.029   3.339  18.224  0.00  0.00    +0.000 A 
ATOM      7  C   UNL     1       2.957   3.493  19.218  0.00  0.00    +0.000 A 
ATOM      8  C   UNL     1       2.386   2.373  19.851  0.00  0.00    +0.000 A 
ATOM      9  C   UNL     1       1.362   2.519  20.786  0.00  0.00    +0.000 A 
ATOM     10  C   UNL     1       0.895   3.788  21.101  0.00  0.00    +0.000 A 
ATOM     11  C   UNL     1       1.446   4.909  20.475  0.00  0.00    +0.000 A 
ATOM     12  C   UNL     1       2.475   4.774  19.528  0.00  0.00    +0.000 A 
ENDROOT
BRANCH   5  13
ATOM     13  C   UNL     1       5.569   4.182  16.501  0.00  0.00    +0.000 C 
ATOM     14  O   UNL     1       6.729   3.921  16.834  0.00  0.00    +0.000 OA
ATOM     15  N   UNL     1       5.144   4.379  15.211  0.00  0.00    +0.000 N 
ATOM     16  H   UNL     1       4.319   4.957  15.074  0.00  0.00    +0.000 HD
BRANCH  15  17
ATOM     17  C   UNL     1       5.984   4.326  14.098  0.00  0.00    +0.000 A 
ATOM     18  N   UNL     1       5.569   3.484  13.126  0.00  0.00    +0.000 NA
ATOM     19  C   UNL     1       6.272   3.483  11.973  0.00  0.00    +0.000 A 
ATOM     20  C   UNL     1       7.412   4.242  11.763  0.00  0.00    +0.000 A 
ATOM     21  C   UNL     1       7.882   5.032  12.807  0.00  0.00    +0.000 A 
ATOM     22  C   UNL     1       7.162   5.075  13.998  0.00  0.00    +0.000 A 
BRANCH  22  23
ATOM     23  O   UNL     1       7.657   5.763  15.071  0.00  0.00    +0.000 OA
ATOM     24  H   UNL     1       7.227   6.631  15.116  0.00  0.00    +0.000 HD
ENDBRANCH  22  23
ENDBRANCH  15  17
ENDBRANCH   5  13
BRANCH   6  25
ATOM     25  O   UNL     1       4.454   2.033  18.030  0.00  0.00    +0.000 OA
ATOM     26  H   UNL     1       4.836   1.961  17.124  0.00  0.00    +0.000 HD
ENDBRANCH   6  25
TORSDOF 4
ENDMDL
MODEL 2
REMARK VINA RESULT:      -7.8      3.332      5.302
REMARK  Name = 
REMARK  5 active torsions:
REMARK  status: ('A' for Active; 'I' for Inactive)
REMARK    1  A    between atoms: C_1  and  N_2
REMARK    2  A    between atoms: C_5  and  C_6
REMARK    3  A    between atoms: N_8  and  C_9
REMARK    4  A    between atoms: C_14  and  O_15
REMARK    5  A    between atoms: C_16  and  O_17
REMARK                            x       y       z     vdW  Elec       q    Type
REMARK                         _______ _______ _______ _____ _____    ______ ____
ROOT
ATOM      1  C   UNL     1       0.781  11.624  18.443  0.00  0.00    +0.000 C 
ATOM      2  N   UNL     1       1.043  10.359  19.112  0.00  0.00    +0.000 N 
ATOM      3  C   UNL     1       1.764   9.390  18.425  0.00  0.00    +0.000 A 
ATOM      4  O   UNL     1       2.199   9.580  17.290  0.00  0.00    +0.000 OA
ATOM      5  C   UNL     1       2.034   8.086  19.105  0.00  0.00    +0.000 A 
ATOM      6  C   UNL     1       1.645   7.913  20.385  0.00  0.00    +0.000 A 
ATOM      7  C   UNL     1       0.879   8.949  21.093  0.00  0.00    +0.000 A 
ATOM      8  C   UNL     1       0.413   8.741  22.406  0.00  0.00    +0.000 A 
ATOM      9  C   UNL     1      -0.322   9.721  23.072  0.00  0.00    +0.000 A 
ATOM     10  C   UNL     1      -0.601  10.922  22.436  0.00  0.00    +0.000 A 
ATOM     11  C   UNL     1      -0.153  11.140  21.131  0.00  0.00    +0.000 A 
ATOM     12  C   UNL     1       0.584  10.159  20.447  0.00  0.00    +0.000 A 
ENDROOT
BRANCH   5  13
ATOM     13  C   UNL     1       2.743   6.958  18.403  0.00  0.00    +0.000 C 
ATOM     14  O   UNL     1       2.231   5.835  18.398  0.00  0.00    +0.000 OA
ATOM     15  N   UNL     1       3.978   7.264  17.889  0.00  0.00    +0.000 N 
ATOM     16  H   UNL     1       4.461   8.070  18.279  0.00  0.00    +0.000 HD
BRANCH  15  17
ATOM     17  C   UNL     1       4.832   6.328  17.303  0.00  0.00    +0.000 A 
ATOM     18  N   UNL     1       4.900   6.403  15.955  0.00  0.00    +0.000 NA
ATOM     19  C   UNL     1       5.803   5.607  15.342  0.00  0.00    +0.000 A 
ATOM     20  C   UNL     1       6.603   4.692  16.007  0.00  0.00    +0.000 A 
ATOM     21  C   UNL     1       6.453   4.559  17.383  0.00  0.00    +0.000 A 
ATOM     22  C   UNL     1       5.550   5.385  18.046  0.00  0.00    +0.000 A 
BRANCH  22  23
ATOM     23  O   UNL     1       5.312   5.204  19.380  0.00  0.00    +0.000 OA
ATOM     24  H   UNL     1       4.530   5.718  19.635  0.00  0.00    +0.000 HD
ENDBRANCH  22  23
ENDBRANCH  15  17
ENDBRANCH   5  13
BRANCH   6  25
ATOM     25  O   UNL     1       1.913   6.778  21.137  0.00  0.00    +0.000 OA
ATOM     26  H   UNL     1       1.763   6.991  22.086  0.00  0.00    +0.000 HD
ENDBRANCH   6  25
TORSDOF 4
ENDMDL
MODEL 3
REMARK VINA RESULT:      -7.8      0.932      1.111
REMARK  Name = 
REMARK  5 active torsions:
REMARK  status: ('A' for Active; 'I' for Inactive)
REMARK    1  A    between atoms: C_1  and  N_2
REMARK    2  A    between atoms: C_5  and  C_6
REMARK    3  A    between atoms: N_8  and  C_9
REMARK    4  A    between atoms: C_14  and  O_15
REMARK    5  A    between atoms: C_16  and  O_17
REMARK                            x       y       z     vdW  Elec       q    Type
REMARK                         _______ _______ _______ _____ _____    ______ ____
ROOT
ATOM      1  C   UNL     1       2.032   7.447  19.714  0.00  0.00    +0.000 C 
ATOM      2  N   UNL     1       2.792   6.336  19.162  0.00  0.00    +0.000 N 
ATOM      3  C   UNL     1       3.529   6.556  18.005  0.00  0.00    +0.000 A 
ATOM      4  O   UNL     1       3.573   7.656  17.456  0.00  0.00    +0.000 OA
ATOM      5  C   UNL     1       4.310   5.418  17.429  0.00  0.00    +0.000 A 
ATOM      6  C   UNL     1       4.343   4.239  18.084  0.00  0.00    +0.000 A 
ATOM      7  C   UNL     1       3.552   4.024  19.305  0.00  0.00    +0.000 A 
ATOM      8  C   UNL     1       3.532   2.773  19.949  0.00  0.00    +0.000 A 
ATOM      9  C   UNL     1       2.773   2.568  21.101  0.00  0.00    +0.000 A 
ATOM     10  C   UNL     1       2.023   3.613  21.624  0.00  0.00    +0.000 A 
ATOM     11  C   UNL     1       2.026   4.858  20.991  0.00  0.00    +0.000 A 
ATOM     12  C   UNL     1       2.782   5.075  19.828  0.00  0.00    +0.000 A 
ENDROOT
BRANCH   5  13
ATOM     13  C   UNL     1       5.074   5.554  16.139  0.00  0.00    +0.000 C 
ATOM     14  O   UNL     1       5.236   6.676  15.650  0.00  0.00    +0.000 OA
ATOM     15  N   UNL     1       5.462   4.375  15.554  0.00  0.00    +0.000 N 
ATOM     16  H   UNL     1       4.953   3.533  15.816  0.00  0.00    +0.000 HD
BRANCH  15  17
ATOM     17  C   UNL     1       6.080   4.291  14.306  0.00  0.00    +0.000 A 
ATOM     18  N   UNL     1       5.487   3.432  13.447  0.00  0.00    +0.000 NA
ATOM     19  C   UNL     1       5.964   3.400  12.184  0.00  0.00    +0.000 A 
ATOM     20  C   UNL     1       7.050   4.144  11.750  0.00  0.00    +0.000 A 
ATOM     21  C   UNL     1       7.709   4.951  12.670  0.00  0.00    +0.000 A 
ATOM     22  C   UNL     1       7.223   5.026  13.973  0.00  0.00    +0.000 A 
BRANCH  22  23
ATOM     23  O   UNL     1       7.912   5.732  14.919  0.00  0.00    +0.000 OA
ATOM     24  H   UNL     1       8.055   6.636  14.598  0.00  0.00    +0.000 HD
ENDBRANCH  22  23
ENDBRANCH  15  17
ENDBRANCH   5  13
BRANCH   6  25
ATOM     25  O   UNL     1       5.096   3.144  17.684  0.00  0.00    +0.000 OA
ATOM     26  H   UNL     1       4.893   2.956  16.739  0.00  0.00    +0.000 HD
ENDBRANCH   6  25
TORSDOF 4
ENDMDL
MODEL 4
REMARK VINA RESULT:      -7.7      3.313      5.168
REMARK  Name = 
REMARK  5 active torsions:
REMARK  status: ('A' for Active; 'I' for Inactive)
REMARK    1  A    between atoms: C_1  and  N_2
REMARK    2  A    between atoms: C_5  and  C_6
REMARK    3  A    between atoms: N_8  and  C_9
REMARK    4  A    between atoms: C_14  and  O_15
REMARK    5  A    between atoms: C_16  and  O_17
REMARK                            x       y       z     vdW  Elec       q    Type
REMARK                         _______ _______ _______ _____ _____    ______ ____
ROOT
ATOM      1  C   UNL     1       0.720  11.440  18.344  0.00  0.00    +0.000 C 
ATOM      2  N   UNL     1       1.030  10.192  19.023  0.00  0.00    +0.000 N 
ATOM      3  C   UNL     1       1.798   9.251  18.349  0.00  0.00    +0.000 A 
ATOM      4  O   UNL     1       2.236   9.454  17.217  0.00  0.00    +0.000 OA
ATOM      5  C   UNL     1       2.118   7.964  19.039  0.00  0.00    +0.000 A 
ATOM      6  C   UNL     1       1.723   7.781  20.316  0.00  0.00    +0.000 A 
ATOM      7  C   UNL     1       0.906   8.787  21.011  0.00  0.00    +0.000 A 
ATOM      8  C   UNL     1       0.435   8.566  22.319  0.00  0.00    +0.000 A 
ATOM      9  C   UNL     1      -0.348   9.516  22.973  0.00  0.00    +0.000 A 
ATOM     10  C   UNL     1      -0.672  10.701  22.326  0.00  0.00    +0.000 A 
ATOM     11  C   UNL     1      -0.221  10.931  21.025  0.00  0.00    +0.000 A 
ATOM     12  C   UNL     1       0.565   9.980  20.354  0.00  0.00    +0.000 A 
ENDROOT
BRANCH   5  13
ATOM     13  C   UNL     1       2.882   6.864  18.351  0.00  0.00    +0.000 C 
ATOM     14  O   UNL     1       2.385   5.736  18.285  0.00  0.00    +0.000 OA
ATOM     15  N   UNL     1       4.141   7.198  17.920  0.00  0.00    +0.000 N 
ATOM     16  H   UNL     1       4.589   7.998  18.361  0.00  0.00    +0.000 HD
BRANCH  15  17
ATOM     17  C   UNL     1       5.041   6.288  17.362  0.00  0.00    +0.000 A 
ATOM     18  N   UNL     1       5.653   5.486  18.262  0.00  0.00    +0.000 NA
ATOM     19  C   UNL     1       6.439   4.504  17.773  0.00  0.00    +0.000 A 
ATOM     20  C   UNL     1       6.694   4.318  16.423  0.00  0.00    +0.000 A 
ATOM     21  C   UNL     1       6.133   5.211  15.516  0.00  0.00    +0.000 A 
ATOM     22  C   UNL     1       5.296   6.217  15.988  0.00  0.00    +0.000 A 
BRANCH  22  23
ATOM     23  O   UNL     1       4.815   7.165  15.128  0.00  0.00    +0.000 OA
ATOM     24  H   UNL     1       4.956   6.867  14.217  0.00  0.00    +0.000 HD
ENDBRANCH  22  23
ENDBRANCH  15  17
ENDBRANCH   5  13
BRANCH   6  25
ATOM     25  O   UNL     1       2.031   6.662  21.077  0.00  0.00    +0.000 OA
ATOM     26  H   UNL     1       2.134   5.893  20.471  0.00  0.00    +0.000 HD
ENDBRANCH   6  25
TORSDOF 4
ENDMDL
MODEL 5
REMARK VINA RESULT:      -7.6      0.757      2.592
REMARK  Name = 
REMARK  5 active torsions:
REMARK  status: ('A' for Active; 'I' for Inactive)
REMARK    1  A    between atoms: C_1  and  N_2
REMARK    2  A    between atoms: C_5  and  C_6
REMARK    3  A    between atoms: N_8  and  C_9
REMARK    4  A    between atoms: C_14  and  O_15
REMARK    5  A    between atoms: C_16  and  O_17
REMARK                            x       y       z     vdW  Elec       q    Type
REMARK                         _______ _______ _______ _____ _____    ______ ____
ROOT
ATOM      1  C   UNL     1       2.079   2.603  19.949  0.00  0.00    +0.000 C 
ATOM      2  N   UNL     1       2.741   3.690  19.244  0.00  0.00    +0.000 N 
ATOM      3  C   UNL     1       3.662   3.367  18.255  0.00  0.00    +0.000 A 
ATOM      4  O   UNL     1       3.912   2.202  17.950  0.00  0.00    +0.000 OA
ATOM      5  C   UNL     1       4.349   4.478  17.529  0.00  0.00    +0.000 A 
ATOM      6  C   UNL     1       4.003   5.756  17.793  0.00  0.00    +0.000 A 
ATOM      7  C   UNL     1       3.029   6.077  18.846  0.00  0.00    +0.000 A 
ATOM      8  C   UNL     1       2.720   7.413  19.169  0.00  0.00    +0.000 A 
ATOM      9  C   UNL     1       1.804   7.716  20.176  0.00  0.00    +0.000 A 
ATOM     10  C   UNL     1       1.184   6.688  20.874  0.00  0.00    +0.000 A 
ATOM     11  C   UNL     1       1.487   5.359  20.571  0.00  0.00    +0.000 A 
ATOM     12  C   UNL     1       2.412   5.040  19.562  0.00  0.00    +0.000 A 
ENDROOT
BRANCH   5  13
ATOM     13  C   UNL     1       5.413   4.213  16.497  0.00  0.00    +0.000 C 
ATOM     14  O   UNL     1       6.552   3.915  16.869  0.00  0.00    +0.000 OA
ATOM     15  N   UNL     1       5.037   4.418  15.193  0.00  0.00    +0.000 N 
ATOM     16  H   UNL     1       4.236   5.023  15.027  0.00  0.00    +0.000 HD
BRANCH  15  17
ATOM     17  C   UNL     1       5.910   4.332  14.108  0.00  0.00    +0.000 A 
ATOM     18  N   UNL     1       5.515   3.474  13.141  0.00  0.00    +0.000 NA
ATOM     19  C   UNL     1       6.254   3.440  12.012  0.00  0.00    +0.000 A 
ATOM     20  C   UNL     1       7.409   4.182  11.822  0.00  0.00    +0.000 A 
ATOM     21  C   UNL     1       7.856   4.988  12.863  0.00  0.00    +0.000 A 
ATOM     22  C   UNL     1       7.100   5.065  14.030  0.00  0.00    +0.000 A 
BRANCH  22  23
ATOM     23  O   UNL     1       7.570   5.769  15.103  0.00  0.00    +0.000 OA
ATOM     24  H   UNL     1       7.243   6.681  15.051  0.00  0.00    +0.000 HD
ENDBRANCH  22  23
ENDBRANCH  15  17
ENDBRANCH   5  13
BRANCH   6  25
ATOM     25  O   UNL     1       4.517   6.859  17.125  0.00  0.00    +0.000 OA
ATOM     26  H   UNL     1       3.777   7.312  16.659  0.00  0.00    +0.000 HD
ENDBRANCH   6  25
TORSDOF 4
ENDMDL
MODEL 6
REMARK VINA RESULT:      -7.6      4.245      6.308
REMARK  Name = 
REMARK  5 active torsions:
REMARK  status: ('A' for Active; 'I' for Inactive)
REMARK    1  A    between atoms: C_1  and  N_2
REMARK    2  A    between atoms: C_5  and  C_6
REMARK    3  A    between atoms: N_8  and  C_9
REMARK    4  A    between atoms: C_14  and  O_15
REMARK    5  A    between atoms: C_16  and  O_17
REMARK                            x       y       z     vdW  Elec       q    Type
REMARK                         _______ _______ _______ _____ _____    ______ ____
ROOT
ATOM      1  C   UNL     1       0.624  11.542  18.357  0.00  0.00    +0.000 C 
ATOM      2  N   UNL     1       0.874  10.364  19.174  0.00  0.00    +0.000 N 
ATOM      3  C   UNL     1       1.615   9.327  18.620  0.00  0.00    +0.000 A 
ATOM      4  O   UNL     1       2.078   9.389  17.482  0.00  0.00    +0.000 OA
ATOM      5  C   UNL     1       1.874   8.112  19.451  0.00  0.00    +0.000 A 
ATOM      6  C   UNL     1       1.453   8.084  20.734  0.00  0.00    +0.000 A 
ATOM      7  C   UNL     1       0.666   9.190  21.299  0.00  0.00    +0.000 A 
ATOM      8  C   UNL     1       0.168   9.130  22.615  0.00  0.00    +0.000 A 
ATOM      9  C   UNL     1      -0.587  10.175  23.146  0.00  0.00    +0.000 A 
ATOM     10  C   UNL     1      -0.855  11.294  22.370  0.00  0.00    +0.000 A 
ATOM     11  C   UNL     1      -0.375  11.363  21.059  0.00  0.00    +0.000 A 
ATOM     12  C   UNL     1       0.383  10.316  20.511  0.00  0.00    +0.000 A 
ENDROOT
BRANCH   5  13
ATOM     13  C   UNL     1       2.605   6.916  18.901  0.00  0.00    +0.000 C 
ATOM     14  O   UNL     1       3.466   7.083  18.033  0.00  0.00    +0.000 OA
ATOM     15  N   UNL     1       2.176   5.697  19.362  0.00  0.00    +0.000 N 
ATOM     16  H   UNL     1       1.236   5.648  19.750  0.00  0.00    +0.000 HD
BRANCH  15  17
ATOM     17  C   UNL     1       2.652   4.473  18.889  0.00  0.00    +0.000 A 
ATOM     18  N   UNL     1       3.789   4.050  19.484  0.00  0.00    +0.000 NA
ATOM     19  C   UNL     1       4.230   2.816  19.157  0.00  0.00    +0.000 A 
ATOM     20  C   UNL     1       3.621   2.003  18.215  0.00  0.00    +0.000 A 
ATOM     21  C   UNL     1       2.506   2.491  17.542  0.00  0.00    +0.000 A 
ATOM     22  C   UNL     1       2.012   3.749  17.877  0.00  0.00    +0.000 A 
BRANCH  22  23
ATOM     23  O   UNL     1       0.982   4.291  17.161  0.00  0.00    +0.000 OA
ATOM     24  H   UNL     1       0.700   5.116  17.585  0.00  0.00    +0.000 HD
ENDBRANCH  22  23
ENDBRANCH  15  17
ENDBRANCH   5  13
BRANCH   6  25
ATOM     25  O   UNL     1       1.707   7.045  21.617  0.00  0.00    +0.000 OA
ATOM     26  H   UNL     1       1.780   6.209  21.100  0.00  0.00    +0.000 HD
ENDBRANCH   6  25
TORSDOF 4
ENDMDL
MODEL 7
REMARK VINA RESULT:      -7.4      3.903      8.580
REMARK  Name = 
REMARK  5 active torsions:
REMARK  status: ('A' for Active; 'I' for Inactive)
REMARK    1  A    between atoms: C_1  and  N_2
REMARK    2  A    between atoms: C_5  and  C_6
REMARK    3  A    between atoms: N_8  and  C_9
REMARK    4  A    between atoms: C_14  and  O_15
REMARK    5  A    between atoms: C_16  and  O_17
REMARK                            x       y       z     vdW  Elec       q    Type
REMARK                         _______ _______ _______ _____ _____    ______ ____
ROOT
ATOM      1  C   UNL     1       2.976   3.929  20.093  0.00  0.00    +0.000 C 
ATOM      2  N   UNL     1       2.979   5.196  19.378  0.00  0.00    +0.000 N 
ATOM      3  C   UNL     1       2.197   6.231  19.874  0.00  0.00    +0.000 A 
ATOM      4  O   UNL     1       1.529   6.112  20.901  0.00  0.00    +0.000 OA
ATOM      5  C   UNL     1       2.192   7.535  19.144  0.00  0.00    +0.000 A 
ATOM      6  C   UNL     1       3.001   7.699  18.076  0.00  0.00    +0.000 A 
ATOM      7  C   UNL     1       3.817   6.590  17.563  0.00  0.00    +0.000 A 
ATOM      8  C   UNL     1       4.608   6.740  16.408  0.00  0.00    +0.000 A 
ATOM      9  C   UNL     1       5.374   5.684  15.917  0.00  0.00    +0.000 A 
ATOM     10  C   UNL     1       5.360   4.462  16.575  0.00  0.00    +0.000 A 
ATOM     11  C   UNL     1       4.574   4.294  17.717  0.00  0.00    +0.000 A 
ATOM     12  C   UNL     1       3.794   5.349  18.219  0.00  0.00    +0.000 A 
ENDROOT
BRANCH   5  13
ATOM     13  C   UNL     1       1.315   8.682  19.574  0.00  0.00    +0.000 C 
ATOM     14  O   UNL     1       0.785   9.390  18.713  0.00  0.00    +0.000 OA
ATOM     15  N   UNL     1       1.251   8.903  20.926  0.00  0.00    +0.000 N 
ATOM     16  H   UNL     1       2.009   8.534  21.497  0.00  0.00    +0.000 HD
BRANCH  15  17
ATOM     17  C   UNL     1       0.583   9.981  21.509  0.00  0.00    +0.000 A 
ATOM     18  N   UNL     1       1.062  11.193  21.150  0.00  0.00    +0.000 NA
ATOM     19  C   UNL     1       0.379  12.275  21.582  0.00  0.00    +0.000 A 
ATOM     20  C   UNL     1      -0.730  12.208  22.410  0.00  0.00    +0.000 A 
ATOM     21  C   UNL     1      -1.153  10.958  22.849  0.00  0.00    +0.000 A 
ATOM     22  C   UNL     1      -0.486   9.822  22.398  0.00  0.00    +0.000 A 
BRANCH  22  23
ATOM     23  O   UNL     1      -0.818   8.593  22.894  0.00  0.00    +0.000 OA
ATOM     24  H   UNL     1      -1.296   8.095  22.213  0.00  0.00    +0.000 HD
ENDBRANCH  22  23
ENDBRANCH  15  17
ENDBRANCH   5  13
BRANCH   6  25
ATOM     25  O   UNL     1       3.135   8.888  17.373  0.00  0.00    +0.000 OA
ATOM     26  H   UNL     1       2.275   9.091  16.937  0.00  0.00    +0.000 HD
ENDBRANCH   6  25
TORSDOF 4
ENDMDL
MODEL 8
REMARK VINA RESULT:      -7.3      1.177      1.439
REMARK  Name = 
REMARK  5 active torsions:
REMARK  status: ('A' for Active; 'I' for Inactive)
REMARK    1  A    between atoms: C_1  and  N_2
REMARK    2  A    between atoms: C_5  and  C_6
REMARK    3  A    between atoms: N_8  and  C_9
REMARK    4  A    between atoms: C_14  and  O_15
REMARK    5  A    between atoms: C_16  and  O_17
REMARK                            x       y       z     vdW  Elec       q    Type
REMARK                         _______ _______ _______ _____ _____    ______ ____
ROOT
ATOM      1  C   UNL     1       2.540   7.275  19.007  0.00  0.00    +0.000 C 
ATOM      2  N   UNL     1       3.011   5.946  18.646  0.00  0.00    +0.000 N 
ATOM      3  C   UNL     1       4.024   5.843  17.701  0.00  0.00    +0.000 A 
ATOM      4  O   UNL     1       4.541   6.834  17.186  0.00  0.00    +0.000 OA
ATOM      5  C   UNL     1       4.510   4.482  17.323  0.00  0.00    +0.000 A 
ATOM      6  C   UNL     1       4.014   3.400  17.959  0.00  0.00    +0.000 A 
ATOM      7  C   UNL     1       2.939   3.530  18.953  0.00  0.00    +0.000 A 
ATOM      8  C   UNL     1       2.373   2.395  19.567  0.00  0.00    +0.000 A 
ATOM      9  C   UNL     1       1.346   2.520  20.502  0.00  0.00    +0.000 A 
ATOM     10  C   UNL     1       0.871   3.780  20.836  0.00  0.00    +0.000 A 
ATOM     11  C   UNL     1       1.415   4.914  20.230  0.00  0.00    +0.000 A 
ATOM     12  C   UNL     1       2.447   4.802  19.283  0.00  0.00    +0.000 A 
ENDROOT
BRANCH   5  13
ATOM     13  C   UNL     1       5.552   4.281  16.254  0.00  0.00    +0.000 C 
ATOM     14  O   UNL     1       6.696   3.954  16.583  0.00  0.00    +0.000 OA
ATOM     15  N   UNL     1       5.152   4.573  14.975  0.00  0.00    +0.000 N 
ATOM     16  H   UNL     1       4.351   5.192  14.865  0.00  0.00    +0.000 HD
BRANCH  15  17
ATOM     17  C   UNL     1       6.003   4.556  13.869  0.00  0.00    +0.000 A 
ATOM     18  N   UNL     1       7.079   5.366  13.981  0.00  0.00    +0.000 NA
ATOM     19  C   UNL     1       8.003   5.299  12.998  0.00  0.00    +0.000 A 
ATOM     20  C   UNL     1       7.875   4.502  11.872  0.00  0.00    +0.000 A 
ATOM     21  C   UNL     1       6.717   3.746  11.724  0.00  0.00    +0.000 A 
ATOM     22  C   UNL     1       5.760   3.773  12.735  0.00  0.00    +0.000 A 
BRANCH  22  23
ATOM     23  O   UNL     1       4.571   3.120  12.567  0.00  0.00    +0.000 OA
ATOM     24  H   UNL     1       3.992   3.315  13.320  0.00  0.00    +0.000 HD
ENDBRANCH  22  23
ENDBRANCH  15  17
ENDBRANCH   5  13
BRANCH   6  25
ATOM     25  O   UNL     1       4.449   2.100  17.745  0.00  0.00    +0.000 OA
ATOM     26  H   UNL     1       5.330   1.992  18.171  0.00  0.00    +0.000 HD
ENDBRANCH   6  25
TORSDOF 4
ENDMDL
MODEL 9
REMARK VINA RESULT:      -7.1      3.300      7.071
REMARK  Name = 
REMARK  5 active torsions:
REMARK  status: ('A' for Active; 'I' for Inactive)
REMARK    1  A    between atoms: C_1  and  N_2
REMARK    2  A    between atoms: C_5  and  C_6
REMARK    3  A    between atoms: N_8  and  C_9
REMARK    4  A    between atoms: C_14  and  O_15
REMARK    5  A    between atoms: C_16  and  O_17
REMARK                            x       y       z     vdW  Elec       q    Type
REMARK                         _______ _______ _______ _____ _____    ______ ____
ROOT
ATOM      1  C   UNL     1       4.862   5.412  16.403  0.00  0.00    +0.000 C 
ATOM      2  N   UNL     1       3.904   5.415  17.497  0.00  0.00    +0.000 N 
ATOM      3  C   UNL     1       3.429   6.640  17.951  0.00  0.00    +0.000 A 
ATOM      4  O   UNL     1       3.777   7.705  17.443  0.00  0.00    +0.000 OA
ATOM      5  C   UNL     1       2.447   6.651  19.078  0.00  0.00    +0.000 A 
ATOM      6  C   UNL     1       1.989   5.480  19.570  0.00  0.00    +0.000 A 
ATOM      7  C   UNL     1       2.508   4.195  19.079  0.00  0.00    +0.000 A 
ATOM      8  C   UNL     1       2.081   2.976  19.640  0.00  0.00    +0.000 A 
ATOM      9  C   UNL     1       2.581   1.758  19.180  0.00  0.00    +0.000 A 
ATOM     10  C   UNL     1       3.515   1.742  18.153  0.00  0.00    +0.000 A 
ATOM     11  C   UNL     1       3.955   2.944  17.593  0.00  0.00    +0.000 A 
ATOM     12  C   UNL     1       3.462   4.178  18.050  0.00  0.00    +0.000 A 
ENDROOT
BRANCH   5  13
ATOM     13  C   UNL     1       1.941   7.937  19.676  0.00  0.00    +0.000 C 
ATOM     14  O   UNL     1       1.882   8.048  20.904  0.00  0.00    +0.000 OA
ATOM     15  N   UNL     1       1.493   8.871  18.777  0.00  0.00    +0.000 N 
ATOM     16  H   UNL     1       1.221   8.540  17.854  0.00  0.00    +0.000 HD
BRANCH  15  17
ATOM     17  C   UNL     1       0.887  10.075  19.142  0.00  0.00    +0.000 A 
ATOM     18  N   UNL     1      -0.226   9.933  19.895  0.00  0.00    +0.000 NA
ATOM     19  C   UNL     1      -0.785  11.062  20.382  0.00  0.00    +0.000 A 
ATOM     20  C   UNL     1      -0.319  12.337  20.103  0.00  0.00    +0.000 A 
ATOM     21  C   UNL     1       0.770  12.471  19.248  0.00  0.00    +0.000 A 
ATOM     22  C   UNL     1       1.384  11.324  18.753  0.00  0.00    +0.000 A 
BRANCH  22  23
ATOM     23  O   UNL     1       2.390  11.431  17.833  0.00  0.00    +0.000 OA
ATOM     24  H   UNL     1       2.776  12.319  17.889  0.00  0.00    +0.000 HD
ENDBRANCH  22  23
ENDBRANCH  15  17
ENDBRANCH   5  13
BRANCH   6  25
ATOM     25  O   UNL     1       1.021   5.373  20.557  0.00  0.00    +0.000 OA
ATOM     26  H   UNL     1       1.025   4.449  20.898  0.00  0.00    +0.000 HD
ENDBRANCH   6  25
TORSDOF 4
ENDMDL
