MODEL 1
REMARK VINA RESULT:      -7.2      0.000      0.000
REMARK  Name = 
REMARK  6 active torsions:
REMARK  status: ('A' for Active; 'I' for Inactive)
REMARK    1  A    between atoms: C_2  and  O_3
REMARK    2  A    between atoms: C_2  and  C_4
REMARK    3  A    between atoms: C_4  and  N_5
REMARK    4  A    between atoms: C_6  and  S_7
REMARK    5  A    between atoms: S_7  and  C_8
REMARK    6  A    between atoms: C_8  and  C_9
REMARK                            x       y       z     vdW  Elec       q    Type
REMARK                         _______ _______ _______ _____ _____    ______ ____
ROOT
ATOM      1  N   UNL     1       3.224   4.909  18.592  0.00  0.00    +0.000 N 
ATOM      2  C   UNL     1       2.970   6.229  18.879  0.00  0.00    +0.000 A 
ATOM      3  N   UNL     1       3.530   7.025  17.997  0.00  0.00    +0.000 NA
ATOM      4  C   UNL     1       4.240   6.206  17.156  0.00  0.00    +0.000 A 
ATOM      5  C   UNL     1       5.043   6.535  16.053  0.00  0.00    +0.000 A 
ATOM      6  C   UNL     1       5.737   5.515  15.391  0.00  0.00    +0.000 A 
ATOM      7  C   UNL     1       5.627   4.189  15.813  0.00  0.00    +0.000 A 
ATOM      8  C   UNL     1       4.800   3.835  16.887  0.00  0.00    +0.000 A 
ATOM      9  C   UNL     1       4.115   4.873  17.536  0.00  0.00    +0.000 A 
ENDROOT
BRANCH   1  10
ATOM     10  C   UNL     1       2.647   3.728  19.212  0.00  0.00    +0.000 C 
BRANCH  10  12
ATOM     11  O   UNL     1       0.869   3.644  17.622  0.00  0.00    +0.000 OA
ATOM     12  C   UNL     1       1.569   3.030  18.423  0.00  0.00    +0.000 C 
BRANCH  12  13
ATOM     13  O   UNL     1       1.412   1.704  18.596  0.00  0.00    +0.000 OA
ATOM     14  H   UNL     1       1.795   1.106  17.925  0.00  0.00    +0.000 HD
ENDBRANCH  12  13
ENDBRANCH  10  12
ENDBRANCH   1  10
BRANCH   2  15
ATOM     15  S   UNL     1       2.094   6.768  20.285  0.00  0.00    +0.000 S 
BRANCH  15  16
ATOM     16  C   UNL     1       1.617   8.463  19.770  0.00  0.00    +0.000 C 
BRANCH  16  17
ATOM     17  C   UNL     1       0.858   9.278  20.808  0.00  0.00    +0.000 A 
ATOM     18  C   UNL     1       0.923   8.905  22.169  0.00  0.00    +0.000 A 
ATOM     19  C   UNL     1       0.144   9.543  23.142  0.00  0.00    +0.000 A 
ATOM     20  C   UNL     1      -0.730  10.562  22.784  0.00  0.00    +0.000 A 
ATOM     21  C   UNL     1      -0.817  10.952  21.452  0.00  0.00    +0.000 A 
ATOM     22  C   UNL     1      -0.035  10.317  20.471  0.00  0.00    +0.000 A 
ATOM     23 BR   UNL     1      -0.292  10.925  18.687  0.00  0.00    +0.000 Br
ENDBRANCH  16  17
ENDBRANCH  15  16
ENDBRANCH   2  15
TORSDOF 6
ENDMDL
MODEL 2
REMARK VINA RESULT:      -7.1      2.924      6.964
REMARK  Name = 
REMARK  6 active torsions:
REMARK  status: ('A' for Active; 'I' for Inactive)
REMARK    1  A    between atoms: C_2  and  O_3
REMARK    2  A    between atoms: C_2  and  C_4
REMARK    3  A    between atoms: C_4  and  N_5
REMARK    4  A    between atoms: C_6  and  S_7
REMARK    5  A    between atoms: S_7  and  C_8
REMARK    6  A    between atoms: C_8  and  C_9
REMARK                            x       y       z     vdW  Elec       q    Type
REMARK                         _______ _______ _______ _____ _____    ______ ____
ROOT
ATOM      1  N   UNL     1       2.375   5.419  19.870  0.00  0.00    +0.000 N 
ATOM      2  C   UNL     1       2.694   5.174  18.555  0.00  0.00    +0.000 A 
ATOM      3  N   UNL     1       2.616   6.269  17.834  0.00  0.00    +0.000 NA
ATOM      4  C   UNL     1       2.155   7.242  18.685  0.00  0.00    +0.000 A 
ATOM      5  C   UNL     1       1.868   8.592  18.430  0.00  0.00    +0.000 A 
ATOM      6  C   UNL     1       1.326   9.376  19.456  0.00  0.00    +0.000 A 
ATOM      7  C   UNL     1       1.083   8.828  20.717  0.00  0.00    +0.000 A 
ATOM      8  C   UNL     1       1.398   7.494  21.003  0.00  0.00    +0.000 A 
ATOM      9  C   UNL     1       1.939   6.727  19.960  0.00  0.00    +0.000 A 
ENDROOT
BRANCH   1  10
ATOM     10  C   UNL     1       2.509   4.524  21.007  0.00  0.00    +0.000 C 
BRANCH  10  12
ATOM     11  O   UNL     1       1.420   2.710  22.112  0.00  0.00    +0.000 OA
ATOM     12  C   UNL     1       1.400   3.518  21.188  0.00  0.00    +0.000 C 
BRANCH  12  13
ATOM     13  O   UNL     1       0.368   3.548  20.324  0.00  0.00    +0.000 OA
ATOM     14  H   UNL     1       0.391   4.208  19.605  0.00  0.00    +0.000 HD
ENDBRANCH  12  13
ENDBRANCH  10  12
ENDBRANCH   1  10
BRANCH   2  15
ATOM     15  S   UNL     1       3.061   3.594  17.921  0.00  0.00    +0.000 S 
BRANCH  15  16
ATOM     16  C   UNL     1       4.894   3.609  17.990  0.00  0.00    +0.000 C 
BRANCH  16  17
ATOM     17  C   UNL     1       5.595   4.179  16.763  0.00  0.00    +0.000 A 
ATOM     18  C   UNL     1       5.145   3.818  15.474  0.00  0.00    +0.000 A 
ATOM     19  C   UNL     1       5.833   4.212  14.320  0.00  0.00    +0.000 A 
ATOM     20  C   UNL     1       6.996   4.966  14.420  0.00  0.00    +0.000 A 
ATOM     21  C   UNL     1       7.465   5.337  15.675  0.00  0.00    +0.000 A 
ATOM     22  C   UNL     1       6.777   4.947  16.837  0.00  0.00    +0.000 A 
ATOM     23 BR   UNL     1       7.560   5.489  18.485  0.00  0.00    +0.000 Br
ENDBRANCH  16  17
ENDBRANCH  15  16
ENDBRANCH   2  15
TORSDOF 6
ENDMDL
MODEL 3
REMARK VINA RESULT:      -7.1      1.225      1.364
REMARK  Name = 
REMARK  6 active torsions:
REMARK  status: ('A' for Active; 'I' for Inactive)
REMARK    1  A    between atoms: C_2  and  O_3
REMARK    2  A    between atoms: C_2  and  C_4
REMARK    3  A    between atoms: C_4  and  N_5
REMARK    4  A    between atoms: C_6  and  S_7
REMARK    5  A    between atoms: S_7  and  C_8
REMARK    6  A    between atoms: C_8  and  C_9
REMARK                            x       y       z     vdW  Elec       q    Type
REMARK                         _______ _______ _______ _____ _____    ______ ____
ROOT
ATOM      1  N   UNL     1       3.394   4.725  18.297  0.00  0.00    +0.000 N 
ATOM      2  C   UNL     1       3.150   6.042  18.611  0.00  0.00    +0.000 A 
ATOM      3  N   UNL     1       3.725   6.852  17.752  0.00  0.00    +0.000 NA
ATOM      4  C   UNL     1       4.434   6.044  16.897  0.00  0.00    +0.000 A 
ATOM      5  C   UNL     1       5.249   6.389  15.808  0.00  0.00    +0.000 A 
ATOM      6  C   UNL     1       5.938   5.377  15.130  0.00  0.00    +0.000 A 
ATOM      7  C   UNL     1       5.811   4.044  15.521  0.00  0.00    +0.000 A 
ATOM      8  C   UNL     1       4.972   3.674  16.580  0.00  0.00    +0.000 A 
ATOM      9  C   UNL     1       4.292   4.704  17.247  0.00  0.00    +0.000 A 
ENDROOT
BRANCH   1  10
ATOM     10  C   UNL     1       2.800   3.537  18.886  0.00  0.00    +0.000 C 
BRANCH  10  12
ATOM     11  O   UNL     1       3.072   2.760  21.126  0.00  0.00    +0.000 OA
ATOM     12  C   UNL     1       3.574   2.905  20.014  0.00  0.00    +0.000 C 
BRANCH  12  13
ATOM     13  O   UNL     1       4.824   2.472  19.764  0.00  0.00    +0.000 OA
ATOM     14  H   UNL     1       5.374   2.197  20.522  0.00  0.00    +0.000 HD
ENDBRANCH  12  13
ENDBRANCH  10  12
ENDBRANCH   1  10
BRANCH   2  15
ATOM     15  S   UNL     1       2.268   6.558  20.021  0.00  0.00    +0.000 S 
BRANCH  15  16
ATOM     16  C   UNL     1       1.749   8.241  19.511  0.00  0.00    +0.000 C 
BRANCH  16  17
ATOM     17  C   UNL     1       1.012   9.053  20.568  0.00  0.00    +0.000 A 
ATOM     18  C   UNL     1       1.222   8.768  21.936  0.00  0.00    +0.000 A 
ATOM     19  C   UNL     1       0.474   9.397  22.939  0.00  0.00    +0.000 A 
ATOM     20  C   UNL     1      -0.511  10.319  22.606  0.00  0.00    +0.000 A 
ATOM     21  C   UNL     1      -0.742  10.621  21.268  0.00  0.00    +0.000 A 
ATOM     22  C   UNL     1       0.007   9.995  20.257  0.00  0.00    +0.000 A 
ATOM     23 BR   UNL     1      -0.448  10.472  18.472  0.00  0.00    +0.000 Br
ENDBRANCH  16  17
ENDBRANCH  15  16
ENDBRANCH   2  15
TORSDOF 6
ENDMDL
MODEL 4
REMARK VINA RESULT:      -7.0      1.248      1.406
REMARK  Name = 
REMARK  6 active torsions:
REMARK  status: ('A' for Active; 'I' for Inactive)
REMARK    1  A    between atoms: C_2  and  O_3
REMARK    2  A    between atoms: C_2  and  C_4
REMARK    3  A    between atoms: C_4  and  N_5
REMARK    4  A    between atoms: C_6  and  S_7
REMARK    5  A    between atoms: S_7  and  C_8
REMARK    6  A    between atoms: C_8  and  C_9
REMARK                            x       y       z     vdW  Elec       q    Type
REMARK                         _______ _______ _______ _____ _____    ______ ____
ROOT
ATOM      1  N   UNL     1       2.790   4.921  18.907  0.00  0.00    +0.000 N 
ATOM      2  C   UNL     1       2.647   6.259  19.194  0.00  0.00    +0.000 A 
ATOM      3  N   UNL     1       3.312   7.003  18.340  0.00  0.00    +0.000 NA
ATOM      4  C   UNL     1       3.977   6.125  17.521  0.00  0.00    +0.000 A 
ATOM      5  C   UNL     1       4.849   6.383  16.452  0.00  0.00    +0.000 A 
ATOM      6  C   UNL     1       5.472   5.306  15.810  0.00  0.00    +0.000 A 
ATOM      7  C   UNL     1       5.224   3.994  16.218  0.00  0.00    +0.000 A 
ATOM      8  C   UNL     1       4.327   3.713  17.257  0.00  0.00    +0.000 A 
ATOM      9  C   UNL     1       3.715   4.808  17.886  0.00  0.00    +0.000 A 
ENDROOT
BRANCH   1  10
ATOM     10  C   UNL     1       2.084   3.796  19.496  0.00  0.00    +0.000 C 
BRANCH  10  12
ATOM     11  O   UNL     1       3.744   2.441  20.549  0.00  0.00    +0.000 OA
ATOM     12  C   UNL     1       2.749   3.150  20.684  0.00  0.00    +0.000 C 
BRANCH  12  13
ATOM     13  O   UNL     1       2.242   3.394  21.907  0.00  0.00    +0.000 OA
ATOM     14  H   UNL     1       1.531   4.058  21.985  0.00  0.00    +0.000 HD
ENDBRANCH  12  13
ENDBRANCH  10  12
ENDBRANCH   1  10
BRANCH   2  15
ATOM     15  S   UNL     1       1.770   6.870  20.568  0.00  0.00    +0.000 S 
BRANCH  15  16
ATOM     16  C   UNL     1       1.410   8.582  20.018  0.00  0.00    +0.000 C 
BRANCH  16  17
ATOM     17  C   UNL     1       0.648   9.449  21.013  0.00  0.00    +0.000 A 
ATOM     18  C   UNL     1       0.546   9.035  22.360  0.00  0.00    +0.000 A 
ATOM     19  C   UNL     1      -0.247   9.728  23.282  0.00  0.00    +0.000 A 
ATOM     20  C   UNL     1      -0.971  10.846  22.884  0.00  0.00    +0.000 A 
ATOM     21  C   UNL     1      -0.891  11.278  21.564  0.00  0.00    +0.000 A 
ATOM     22  C   UNL     1      -0.094  10.588  20.635  0.00  0.00    +0.000 A 
ATOM     23 BR   UNL     1      -0.117  11.267  18.858  0.00  0.00    +0.000 Br
ENDBRANCH  16  17
ENDBRANCH  15  16
ENDBRANCH   2  15
TORSDOF 6
ENDMDL
MODEL 5
REMARK VINA RESULT:      -7.0      2.975      6.318
REMARK  Name = 
REMARK  6 active torsions:
REMARK  status: ('A' for Active; 'I' for Inactive)
REMARK    1  A    between atoms: C_2  and  O_3
REMARK    2  A    between atoms: C_2  and  C_4
REMARK    3  A    between atoms: C_4  and  N_5
REMARK    4  A    between atoms: C_6  and  S_7
REMARK    5  A    between atoms: S_7  and  C_8
REMARK    6  A    between atoms: C_8  and  C_9
REMARK                            x       y       z     vdW  Elec       q    Type
REMARK                         _______ _______ _______ _____ _____    ______ ____
ROOT
ATOM      1  N   UNL     1       2.542   5.436  19.837  0.00  0.00    +0.000 N 
ATOM      2  C   UNL     1       2.956   5.200  18.547  0.00  0.00    +0.000 A 
ATOM      3  N   UNL     1       2.895   6.293  17.820  0.00  0.00    +0.000 NA
ATOM      4  C   UNL     1       2.348   7.252  18.636  0.00  0.00    +0.000 A 
ATOM      5  C   UNL     1       2.041   8.593  18.360  0.00  0.00    +0.000 A 
ATOM      6  C   UNL     1       1.407   9.360  19.345  0.00  0.00    +0.000 A 
ATOM      7  C   UNL     1       1.095   8.806  20.587  0.00  0.00    +0.000 A 
ATOM      8  C   UNL     1       1.429   7.481  20.897  0.00  0.00    +0.000 A 
ATOM      9  C   UNL     1       2.062   6.731  19.894  0.00  0.00    +0.000 A 
ENDROOT
BRANCH   1  10
ATOM     10  C   UNL     1       2.624   4.546  20.983  0.00  0.00    +0.000 C 
BRANCH  10  12
ATOM     11  O   UNL     1       1.466   2.760  22.065  0.00  0.00    +0.000 OA
ATOM     12  C   UNL     1       1.491   3.563  21.135  0.00  0.00    +0.000 C 
BRANCH  12  13
ATOM     13  O   UNL     1       0.486   3.606  20.241  0.00  0.00    +0.000 OA
ATOM     14  H   UNL     1      -0.093   4.393  20.240  0.00  0.00    +0.000 HD
ENDBRANCH  12  13
ENDBRANCH  10  12
ENDBRANCH   1  10
BRANCH   2  15
ATOM     15  S   UNL     1       3.411   3.632  17.943  0.00  0.00    +0.000 S 
BRANCH  15  16
ATOM     16  C   UNL     1       5.127   3.500  18.577  0.00  0.00    +0.000 C 
BRANCH  16  17
ATOM     17  C   UNL     1       6.074   4.617  18.156  0.00  0.00    +0.000 A 
ATOM     18  C   UNL     1       6.700   5.407  19.146  0.00  0.00    +0.000 A 
ATOM     19  C   UNL     1       7.475   6.523  18.809  0.00  0.00    +0.000 A 
ATOM     20  C   UNL     1       7.638   6.890  17.479  0.00  0.00    +0.000 A 
ATOM     21  C   UNL     1       7.034   6.131  16.482  0.00  0.00    +0.000 A 
ATOM     22  C   UNL     1       6.257   5.008  16.813  0.00  0.00    +0.000 A 
ATOM     23 BR   UNL     1       5.456   4.094  15.349  0.00  0.00    +0.000 Br
ENDBRANCH  16  17
ENDBRANCH  15  16
ENDBRANCH   2  15
TORSDOF 6
ENDMDL
MODEL 6
REMARK VINA RESULT:      -6.9      3.827      8.215
REMARK  Name = 
REMARK  6 active torsions:
REMARK  status: ('A' for Active; 'I' for Inactive)
REMARK    1  A    between atoms: C_2  and  O_3
REMARK    2  A    between atoms: C_2  and  C_4
REMARK    3  A    between atoms: C_4  and  N_5
REMARK    4  A    between atoms: C_6  and  S_7
REMARK    5  A    between atoms: S_7  and  C_8
REMARK    6  A    between atoms: C_8  and  C_9
REMARK                            x       y       z     vdW  Elec       q    Type
REMARK                         _______ _______ _______ _____ _____    ______ ____
ROOT
ATOM      1  N   UNL     1       0.738  10.547  19.540  0.00  0.00    +0.000 N 
ATOM      2  C   UNL     1       1.201   9.254  19.455  0.00  0.00    +0.000 A 
ATOM      3  N   UNL     1       0.841   8.550  20.503  0.00  0.00    +0.000 NA
ATOM      4  C   UNL     1       0.195   9.427  21.337  0.00  0.00    +0.000 A 
ATOM      5  C   UNL     1      -0.371   9.208  22.602  0.00  0.00    +0.000 A 
ATOM      6  C   UNL     1      -0.912  10.295  23.300  0.00  0.00    +0.000 A 
ATOM      7  C   UNL     1      -0.901  11.575  22.744  0.00  0.00    +0.000 A 
ATOM      8  C   UNL     1      -0.376  11.808  21.467  0.00  0.00    +0.000 A 
ATOM      9  C   UNL     1       0.162  10.705  20.786  0.00  0.00    +0.000 A 
ENDROOT
BRANCH   1  10
ATOM     10  C   UNL     1       0.768  11.580  18.519  0.00  0.00    +0.000 C 
BRANCH  10  12
ATOM     11  O   UNL     1       2.363  13.099  19.441  0.00  0.00    +0.000 OA
ATOM     12  C   UNL     1       2.016  12.425  18.474  0.00  0.00    +0.000 C 
BRANCH  12  13
ATOM     13  O   UNL     1       2.761  12.400  17.353  0.00  0.00    +0.000 OA
ATOM     14  H   UNL     1       2.824  13.219  16.826  0.00  0.00    +0.000 HD
ENDBRANCH  12  13
ENDBRANCH  10  12
ENDBRANCH   1  10
BRANCH   2  15
ATOM     15  S   UNL     1       2.209   8.666  18.163  0.00  0.00    +0.000 S 
BRANCH  15  16
ATOM     16  C   UNL     1       2.589   6.974  18.761  0.00  0.00    +0.000 C 
BRANCH  16  17
ATOM     17  C   UNL     1       3.550   6.169  17.896  0.00  0.00    +0.000 A 
ATOM     18  C   UNL     1       4.618   6.827  17.245  0.00  0.00    +0.000 A 
ATOM     19  C   UNL     1       5.449   6.156  16.340  0.00  0.00    +0.000 A 
ATOM     20  C   UNL     1       5.233   4.814  16.050  0.00  0.00    +0.000 A 
ATOM     21  C   UNL     1       4.190   4.139  16.675  0.00  0.00    +0.000 A 
ATOM     22  C   UNL     1       3.353   4.806  17.586  0.00  0.00    +0.000 A 
ATOM     23 BR   UNL     1       1.943   3.768  18.329  0.00  0.00    +0.000 Br
ENDBRANCH  16  17
ENDBRANCH  15  16
ENDBRANCH   2  15
TORSDOF 6
ENDMDL
MODEL 7
REMARK VINA RESULT:      -6.9      3.643      7.575
REMARK  Name = 
REMARK  6 active torsions:
REMARK  status: ('A' for Active; 'I' for Inactive)
REMARK    1  A    between atoms: C_2  and  O_3
REMARK    2  A    between atoms: C_2  and  C_4
REMARK    3  A    between atoms: C_4  and  N_5
REMARK    4  A    between atoms: C_6  and  S_7
REMARK    5  A    between atoms: S_7  and  C_8
REMARK    6  A    between atoms: C_8  and  C_9
REMARK                            x       y       z     vdW  Elec       q    Type
REMARK                         _______ _______ _______ _____ _____    ______ ____
ROOT
ATOM      1  N   UNL     1       0.587   9.659  19.473  0.00  0.00    +0.000 N 
ATOM      2  C   UNL     1       1.313   8.522  19.740  0.00  0.00    +0.000 A 
ATOM      3  N   UNL     1       1.167   8.145  20.989  0.00  0.00    +0.000 NA
ATOM      4  C   UNL     1       0.388   9.109  21.580  0.00  0.00    +0.000 A 
ATOM      5  C   UNL     1      -0.053   9.213  22.908  0.00  0.00    +0.000 A 
ATOM      6  C   UNL     1      -0.781  10.345  23.293  0.00  0.00    +0.000 A 
ATOM      7  C   UNL     1      -1.074  11.351  22.371  0.00  0.00    +0.000 A 
ATOM      8  C   UNL     1      -0.676  11.247  21.031  0.00  0.00    +0.000 A 
ATOM      9  C   UNL     1       0.053  10.105  20.668  0.00  0.00    +0.000 A 
ENDROOT
BRANCH   1  10
ATOM     10  C   UNL     1       0.342  10.288  18.187  0.00  0.00    +0.000 C 
BRANCH  10  12
ATOM     11  O   UNL     1      -1.947   9.645  17.973  0.00  0.00    +0.000 OA
ATOM     12  C   UNL     1      -1.104  10.527  17.835  0.00  0.00    +0.000 C 
BRANCH  12  13
ATOM     13  O   UNL     1      -1.457  11.749  17.392  0.00  0.00    +0.000 OA
ATOM     14  H   UNL     1      -0.878  12.183  16.735  0.00  0.00    +0.000 HD
ENDBRANCH  12  13
ENDBRANCH  10  12
ENDBRANCH   1  10
BRANCH   2  15
ATOM     15  S   UNL     1       2.359   7.744  18.585  0.00  0.00    +0.000 S 
BRANCH  15  16
ATOM     16  C   UNL     1       2.964   6.319  19.568  0.00  0.00    +0.000 C 
BRANCH  16  17
ATOM     17  C   UNL     1       2.305   4.980  19.262  0.00  0.00    +0.000 A 
ATOM     18  C   UNL     1       1.286   4.495  20.112  0.00  0.00    +0.000 A 
ATOM     19  C   UNL     1       0.741   3.216  19.947  0.00  0.00    +0.000 A 
ATOM     20  C   UNL     1       1.204   2.380  18.937  0.00  0.00    +0.000 A 
ATOM     21  C   UNL     1       2.207   2.829  18.084  0.00  0.00    +0.000 A 
ATOM     22  C   UNL     1       2.756   4.113  18.243  0.00  0.00    +0.000 A 
ATOM     23 BR   UNL     1       4.150   4.574  17.033  0.00  0.00    +0.000 Br
ENDBRANCH  16  17
ENDBRANCH  15  16
ENDBRANCH   2  15
TORSDOF 6
ENDMDL
MODEL 8
REMARK VINA RESULT:      -6.8      4.691      5.941
REMARK  Name = 
REMARK  6 active torsions:
REMARK  status: ('A' for Active; 'I' for Inactive)
REMARK    1  A    between atoms: C_2  and  O_3
REMARK    2  A    between atoms: C_2  and  C_4
REMARK    3  A    between atoms: C_4  and  N_5
REMARK    4  A    between atoms: C_6  and  S_7
REMARK    5  A    between atoms: S_7  and  C_8
REMARK    6  A    between atoms: C_8  and  C_9
REMARK                            x       y       z     vdW  Elec       q    Type
REMARK                         _______ _______ _______ _____ _____    ______ ____
ROOT
ATOM      1  N   UNL     1       6.307   5.532  15.967  0.00  0.00    +0.000 N 
ATOM      2  C   UNL     1       5.037   5.102  16.273  0.00  0.00    +0.000 A 
ATOM      3  N   UNL     1       4.570   4.299  15.345  0.00  0.00    +0.000 NA
ATOM      4  C   UNL     1       5.528   4.267  14.363  0.00  0.00    +0.000 A 
ATOM      5  C   UNL     1       5.532   3.585  13.137  0.00  0.00    +0.000 A 
ATOM      6  C   UNL     1       6.606   3.775  12.259  0.00  0.00    +0.000 A 
ATOM      7  C   UNL     1       7.662   4.621  12.599  0.00  0.00    +0.000 A 
ATOM      8  C   UNL     1       7.697   5.281  13.834  0.00  0.00    +0.000 A 
ATOM      9  C   UNL     1       6.610   5.077  14.697  0.00  0.00    +0.000 A 
ENDROOT
BRANCH   1  10
ATOM     10  C   UNL     1       7.228   6.279  16.806  0.00  0.00    +0.000 C 
BRANCH  10  12
ATOM     11  O   UNL     1       7.964   6.194  19.076  0.00  0.00    +0.000 OA
ATOM     12  C   UNL     1       7.711   5.572  18.047  0.00  0.00    +0.000 C 
BRANCH  12  13
ATOM     13  O   UNL     1       7.828   4.231  18.009  0.00  0.00    +0.000 OA
ATOM     14  H   UNL     1       7.026   3.696  18.162  0.00  0.00    +0.000 HD
ENDBRANCH  12  13
ENDBRANCH  10  12
ENDBRANCH   1  10
BRANCH   2  15
ATOM     15  S   UNL     1       4.140   5.634  17.667  0.00  0.00    +0.000 S 
BRANCH  15  16
ATOM     16  C   UNL     1       2.682   4.524  17.587  0.00  0.00    +0.000 C 
BRANCH  16  17
ATOM     17  C   UNL     1       2.257   3.898  18.909  0.00  0.00    +0.000 A 
ATOM     18  C   UNL     1       1.532   4.670  19.844  0.00  0.00    +0.000 A 
ATOM     19  C   UNL     1       1.230   4.183  21.121  0.00  0.00    +0.000 A 
ATOM     20  C   UNL     1       1.653   2.916  21.506  0.00  0.00    +0.000 A 
ATOM     21  C   UNL     1       2.368   2.131  20.609  0.00  0.00    +0.000 A 
ATOM     22  C   UNL     1       2.672   2.614  19.324  0.00  0.00    +0.000 A 
ATOM     23 BR   UNL     1       3.694   1.449  18.221  0.00  0.00    +0.000 Br
ENDBRANCH  16  17
ENDBRANCH  15  16
ENDBRANCH   2  15
TORSDOF 6
ENDMDL
MODEL 9
REMARK VINA RESULT:      -6.8      4.636      5.892
REMARK  Name = 
REMARK  6 active torsions:
REMARK  status: ('A' for Active; 'I' for Inactive)
REMARK    1  A    between atoms: C_2  and  O_3
REMARK    2  A    between atoms: C_2  and  C_4
REMARK    3  A    between atoms: C_4  and  N_5
REMARK    4  A    between atoms: C_6  and  S_7
REMARK    5  A    between atoms: S_7  and  C_8
REMARK    6  A    between atoms: C_8  and  C_9
REMARK                            x       y       z     vdW  Elec       q    Type
REMARK                         _______ _______ _______ _____ _____    ______ ____
ROOT
ATOM      1  N   UNL     1       6.360   5.703  16.115  0.00  0.00    +0.000 N 
ATOM      2  C   UNL     1       5.059   5.436  16.473  0.00  0.00    +0.000 A 
ATOM      3  N   UNL     1       4.484   4.629  15.612  0.00  0.00    +0.000 NA
ATOM      4  C   UNL     1       5.408   4.426  14.617  0.00  0.00    +0.000 A 
ATOM      5  C   UNL     1       5.307   3.667  13.442  0.00  0.00    +0.000 A 
ATOM      6  C   UNL     1       6.372   3.679  12.533  0.00  0.00    +0.000 A 
ATOM      7  C   UNL     1       7.522   4.425  12.794  0.00  0.00    +0.000 A 
ATOM      8  C   UNL     1       7.659   5.159  13.980  0.00  0.00    +0.000 A 
ATOM      9  C   UNL     1       6.579   5.133  14.875  0.00  0.00    +0.000 A 
ENDROOT
BRANCH   1  10
ATOM     10  C   UNL     1       7.377   6.399  16.883  0.00  0.00    +0.000 C 
BRANCH  10  12
ATOM     11  O   UNL     1       7.881   4.488  18.223  0.00  0.00    +0.000 OA
ATOM     12  C   UNL     1       7.834   5.713  18.146  0.00  0.00    +0.000 C 
BRANCH  12  13
ATOM     13  O   UNL     1       8.220   6.480  19.182  0.00  0.00    +0.000 OA
ATOM     14  H   UNL     1       8.628   6.039  19.952  0.00  0.00    +0.000 HD
ENDBRANCH  12  13
ENDBRANCH  10  12
ENDBRANCH   1  10
BRANCH   2  15
ATOM     15  S   UNL     1       4.260   6.156  17.843  0.00  0.00    +0.000 S 
BRANCH  15  16
ATOM     16  C   UNL     1       4.350   4.784  19.057  0.00  0.00    +0.000 C 
BRANCH  16  17
ATOM     17  C   UNL     1       3.018   4.144  19.428  0.00  0.00    +0.000 A 
ATOM     18  C   UNL     1       2.109   4.854  20.244  0.00  0.00    +0.000 A 
ATOM     19  C   UNL     1       0.931   4.261  20.717  0.00  0.00    +0.000 A 
ATOM     20  C   UNL     1       0.634   2.941  20.399  0.00  0.00    +0.000 A 
ATOM     21  C   UNL     1       1.509   2.216  19.598  0.00  0.00    +0.000 A 
ATOM     22  C   UNL     1       2.691   2.806  19.119  0.00  0.00    +0.000 A 
ATOM     23 BR   UNL     1       3.813   1.681  18.073  0.00  0.00    +0.000 Br
ENDBRANCH  16  17
ENDBRANCH  15  16
ENDBRANCH   2  15
TORSDOF 6
ENDMDL
