MODEL 1
REMARK VINA RESULT:      -8.6      0.000      0.000
REMARK  Name = 
REMARK  9 active torsions:
REMARK  status: ('A' for Active; 'I' for Inactive)
REMARK    1  A    between atoms: C_1  and  C_2
REMARK    2  A    between atoms: C_2  and  C_3
REMARK    3  A    between atoms: C_2  and  O_4
REMARK    4  A    between atoms: O_4  and  C_5
REMARK    5  A    between atoms: C_10  and  O_11
REMARK    6  A    between atoms: O_11  and  C_12
REMARK    7  A    between atoms: C_16  and  N_17
REMARK    8  A    between atoms: C_22  and  S_23
REMARK    9  A    between atoms: S_23  and  C_24
REMARK                            x       y       z     vdW  Elec       q    Type
REMARK                         _______ _______ _______ _____ _____    ______ ____
ROOT
ATOM      1  C   UNL     1       2.763   6.097  18.866  0.00  0.00    +0.000 A 
ATOM      2  C   UNL     1       2.217   5.049  19.583  0.00  0.00    +0.000 A 
ATOM      3  C   UNL     1       1.360   5.317  20.667  0.00  0.00    +0.000 A 
ATOM      4  C   UNL     1       1.023   6.639  21.034  0.00  0.00    +0.000 A 
ATOM      5  C   UNL     1       1.578   7.717  20.347  0.00  0.00    +0.000 A 
ATOM      6  C   UNL     1       2.517   7.386  19.319  0.00  0.00    +0.000 A 
ENDROOT
BRANCH   5   7
ATOM      7  N   UNL     1       1.277   9.087  20.544  0.00  0.00    +0.000 N 
ATOM      8  C   UNL     1       0.933   9.764  19.247  0.00  0.00    +0.000 C 
ATOM      9  C   UNL     1       1.046  11.238  19.543  0.00  0.00    +0.000 C 
ATOM     10  C   UNL     1       0.253  11.152  20.781  0.00  0.00    +0.000 A 
ATOM     11  C   UNL     1      -0.788  11.984  21.122  0.00  0.00    +0.000 A 
ATOM     12  C   UNL     1      -1.436  11.693  22.299  0.00  0.00    +0.000 A 
ATOM     13  C   UNL     1      -0.916  10.724  23.185  0.00  0.00    +0.000 A 
ATOM     14  C   UNL     1       0.088   9.814  22.742  0.00  0.00    +0.000 A 
ATOM     15  C   UNL     1       0.557   9.945  21.457  0.00  0.00    +0.000 A 
BRANCH  12  16
ATOM     16  S   UNL     1      -3.026  12.467  22.546  0.00  0.00    +0.000 S 
ATOM     17  C   UNL     1      -2.577  14.131  22.999  0.00  0.00    +0.000 C 
ATOM     18  O   UNL     1      -3.699  12.495  21.268  0.00  0.00    +0.000 OA
ATOM     19  O   UNL     1      -3.639  11.857  23.703  0.00  0.00    +0.000 OA
ENDBRANCH  12  16
ENDBRANCH   5   7
BRANCH   1  20
ATOM     20  O   UNL     1       3.527   5.796  17.766  0.00  0.00    +0.000 OA
BRANCH  20  26
ATOM     21  C   UNL     1       6.583   4.650  14.153  0.00  0.00    +0.000 C 
ATOM     22  O   UNL     1       7.382   5.472  13.743  0.00  0.00    +0.000 OA
ATOM     23  N   UNL     1       5.784   4.851  15.264  0.00  0.00    +0.000 N 
ATOM     24  C   UNL     1       5.805   6.168  15.895  0.00  0.00    +0.000 C 
ATOM     25  C   UNL     1       5.974   6.030  17.400  0.00  0.00    +0.000 C 
ATOM     26  C   UNL     1       4.828   5.193  17.987  0.00  0.00    +0.000 C 
ATOM     27  C   UNL     1       4.849   3.810  17.301  0.00  0.00    +0.000 C 
ATOM     28  C   UNL     1       4.782   3.919  15.773  0.00  0.00    +0.000 C 
BRANCH  21  29
ATOM     29  O   UNL     1       6.424   3.411  13.578  0.00  0.00    +0.000 OA
BRANCH  29  31
ATOM     30  C   UNL     1       6.904   2.264  11.503  0.00  0.00    +0.000 C 
ATOM     31  C   UNL     1       6.200   3.450  12.155  0.00  0.00    +0.000 C 
ATOM     32  C   UNL     1       4.702   3.397  11.889  0.00  0.00    +0.000 C 
ENDBRANCH  29  31
ENDBRANCH  21  29
ENDBRANCH  20  26
ENDBRANCH   1  20
TORSDOF 6
ENDMDL
MODEL 2
REMARK VINA RESULT:      -8.4      0.957      1.095
REMARK  Name = 
REMARK  9 active torsions:
REMARK  status: ('A' for Active; 'I' for Inactive)
REMARK    1  A    between atoms: C_1  and  C_2
REMARK    2  A    between atoms: C_2  and  C_3
REMARK    3  A    between atoms: C_2  and  O_4
REMARK    4  A    between atoms: O_4  and  C_5
REMARK    5  A    between atoms: C_10  and  O_11
REMARK    6  A    between atoms: O_11  and  C_12
REMARK    7  A    between atoms: C_16  and  N_17
REMARK    8  A    between atoms: C_22  and  S_23
REMARK    9  A    between atoms: S_23  and  C_24
REMARK                            x       y       z     vdW  Elec       q    Type
REMARK                         _______ _______ _______ _____ _____    ______ ____
ROOT
ATOM      1  C   UNL     1       2.735   6.519  18.955  0.00  0.00    +0.000 A 
ATOM      2  C   UNL     1       2.306   5.576  19.871  0.00  0.00    +0.000 A 
ATOM      3  C   UNL     1       1.458   5.962  20.924  0.00  0.00    +0.000 A 
ATOM      4  C   UNL     1       1.010   7.295  21.063  0.00  0.00    +0.000 A 
ATOM      5  C   UNL     1       1.446   8.274  20.172  0.00  0.00    +0.000 A 
ATOM      6  C   UNL     1       2.384   7.843  19.181  0.00  0.00    +0.000 A 
ENDROOT
BRANCH   5   7
ATOM      7  N   UNL     1       1.026   9.625  20.134  0.00  0.00    +0.000 N 
ATOM      8  C   UNL     1       0.553  10.014  18.762  0.00  0.00    +0.000 C 
ATOM      9  C   UNL     1       0.539  11.521  18.773  0.00  0.00    +0.000 C 
ATOM     10  C   UNL     1      -0.178  11.604  20.057  0.00  0.00    +0.000 A 
ATOM     11  C   UNL     1      -1.275  12.395  20.310  0.00  0.00    +0.000 A 
ATOM     12  C   UNL     1      -1.831  12.278  21.561  0.00  0.00    +0.000 A 
ATOM     13  C   UNL     1      -1.176  11.542  22.573  0.00  0.00    +0.000 A 
ATOM     14  C   UNL     1      -0.114  10.652  22.237  0.00  0.00    +0.000 A 
ATOM     15  C   UNL     1       0.275  10.577  20.921  0.00  0.00    +0.000 A 
BRANCH  12  16
ATOM     16  S   UNL     1      -3.473  12.948  21.770  0.00  0.00    +0.000 S 
ATOM     17  C   UNL     1      -4.254  12.536  20.222  0.00  0.00    +0.000 C 
ATOM     18  O   UNL     1      -4.114  12.204  22.829  0.00  0.00    +0.000 OA
ATOM     19  O   UNL     1      -3.360  14.386  21.826  0.00  0.00    +0.000 OA
ENDBRANCH  12  16
ENDBRANCH   5   7
BRANCH   1  20
ATOM     20  O   UNL     1       3.494   6.090  17.895  0.00  0.00    +0.000 OA
BRANCH  20  26
ATOM     21  C   UNL     1       6.664   4.680  14.479  0.00  0.00    +0.000 C 
ATOM     22  O   UNL     1       7.617   5.384  14.200  0.00  0.00    +0.000 OA
ATOM     23  N   UNL     1       5.804   4.942  15.530  0.00  0.00    +0.000 N 
ATOM     24  C   UNL     1       5.971   6.198  16.256  0.00  0.00    +0.000 C 
ATOM     25  C   UNL     1       5.972   5.944  17.756  0.00  0.00    +0.000 C 
ATOM     26  C   UNL     1       4.658   5.272  18.180  0.00  0.00    +0.000 C 
ATOM     27  C   UNL     1       4.528   3.947  17.397  0.00  0.00    +0.000 C 
ATOM     28  C   UNL     1       4.625   4.156  15.882  0.00  0.00    +0.000 C 
BRANCH  21  29
ATOM     29  O   UNL     1       6.369   3.519  13.801  0.00  0.00    +0.000 OA
BRANCH  29  31
ATOM     30  C   UNL     1       7.178   2.777  11.647  0.00  0.00    +0.000 C 
ATOM     31  C   UNL     1       6.206   3.695  12.381  0.00  0.00    +0.000 C 
ATOM     32  C   UNL     1       4.768   3.367  12.004  0.00  0.00    +0.000 C 
ENDBRANCH  29  31
ENDBRANCH  21  29
ENDBRANCH  20  26
ENDBRANCH   1  20
TORSDOF 6
ENDMDL
MODEL 3
REMARK VINA RESULT:      -8.2      2.751      3.423
REMARK  Name = 
REMARK  9 active torsions:
REMARK  status: ('A' for Active; 'I' for Inactive)
REMARK    1  A    between atoms: C_1  and  C_2
REMARK    2  A    between atoms: C_2  and  C_3
REMARK    3  A    between atoms: C_2  and  O_4
REMARK    4  A    between atoms: O_4  and  C_5
REMARK    5  A    between atoms: C_10  and  O_11
REMARK    6  A    between atoms: O_11  and  C_12
REMARK    7  A    between atoms: C_16  and  N_17
REMARK    8  A    between atoms: C_22  and  S_23
REMARK    9  A    between atoms: S_23  and  C_24
REMARK                            x       y       z     vdW  Elec       q    Type
REMARK                         _______ _______ _______ _____ _____    ______ ____
ROOT
ATOM      1  C   UNL     1       2.579   6.915  18.649  0.00  0.00    +0.000 A 
ATOM      2  C   UNL     1       2.405   6.377  19.911  0.00  0.00    +0.000 A 
ATOM      3  C   UNL     1       1.730   7.117  20.898  0.00  0.00    +0.000 A 
ATOM      4  C   UNL     1       1.201   8.400  20.629  0.00  0.00    +0.000 A 
ATOM      5  C   UNL     1       1.383   8.980  19.375  0.00  0.00    +0.000 A 
ATOM      6  C   UNL     1       2.161   8.223  18.443  0.00  0.00    +0.000 A 
ENDROOT
BRANCH   5   7
ATOM      7  N   UNL     1       0.848  10.214  18.932  0.00  0.00    +0.000 N 
ATOM      8  C   UNL     1      -0.389  10.583  19.702  0.00  0.00    +0.000 C 
ATOM      9  C   UNL     1      -1.052  11.653  18.874  0.00  0.00    +0.000 C 
ATOM     10  C   UNL     1       0.190  12.423  18.694  0.00  0.00    +0.000 A 
ATOM     11  C   UNL     1       0.323  13.780  18.879  0.00  0.00    +0.000 A 
ATOM     12  C   UNL     1       1.587  14.293  18.716  0.00  0.00    +0.000 A 
ATOM     13  C   UNL     1       2.625  13.494  18.190  0.00  0.00    +0.000 A 
ATOM     14  C   UNL     1       2.474  12.078  18.122  0.00  0.00    +0.000 A 
ATOM     15  C   UNL     1       1.282  11.535  18.536  0.00  0.00    +0.000 A 
BRANCH  12  16
ATOM     16  S   UNL     1       1.871  15.934  19.361  0.00  0.00    +0.000 S 
ATOM     17  C   UNL     1       0.557  16.874  18.609  0.00  0.00    +0.000 C 
ATOM     18  O   UNL     1       1.653  15.884  20.788  0.00  0.00    +0.000 OA
ATOM     19  O   UNL     1       3.116  16.416  18.808  0.00  0.00    +0.000 OA
ENDBRANCH  12  16
ENDBRANCH   5   7
BRANCH   1  20
ATOM     20  O   UNL     1       3.169   6.131  17.690  0.00  0.00    +0.000 OA
BRANCH  20  26
ATOM     21  C   UNL     1       6.634   4.728  14.570  0.00  0.00    +0.000 C 
ATOM     22  O   UNL     1       7.603   5.438  14.371  0.00  0.00    +0.000 OA
ATOM     23  N   UNL     1       5.685   4.989  15.541  0.00  0.00    +0.000 N 
ATOM     24  C   UNL     1       5.778   6.250  16.271  0.00  0.00    +0.000 C 
ATOM     25  C   UNL     1       5.650   6.004  17.767  0.00  0.00    +0.000 C 
ATOM     26  C   UNL     1       4.310   5.323  18.079  0.00  0.00    +0.000 C 
ATOM     27  C   UNL     1       4.258   3.993  17.296  0.00  0.00    +0.000 C 
ATOM     28  C   UNL     1       4.485   4.195  15.794  0.00  0.00    +0.000 C 
BRANCH  21  29
ATOM     29  O   UNL     1       6.408   3.562  13.877  0.00  0.00    +0.000 OA
BRANCH  29  31
ATOM     30  C   UNL     1       7.213   2.867  11.705  0.00  0.00    +0.000 C 
ATOM     31  C   UNL     1       6.223   3.748  12.460  0.00  0.00    +0.000 C 
ATOM     32  C   UNL     1       4.791   3.383  12.096  0.00  0.00    +0.000 C 
ENDBRANCH  29  31
ENDBRANCH  21  29
ENDBRANCH  20  26
ENDBRANCH   1  20
TORSDOF 6
ENDMDL
MODEL 4
REMARK VINA RESULT:      -8.0      2.541      3.077
REMARK  Name = 
REMARK  9 active torsions:
REMARK  status: ('A' for Active; 'I' for Inactive)
REMARK    1  A    between atoms: C_1  and  C_2
REMARK    2  A    between atoms: C_2  and  C_3
REMARK    3  A    between atoms: C_2  and  O_4
REMARK    4  A    between atoms: O_4  and  C_5
REMARK    5  A    between atoms: C_10  and  O_11
REMARK    6  A    between atoms: O_11  and  C_12
REMARK    7  A    between atoms: C_16  and  N_17
REMARK    8  A    between atoms: C_22  and  S_23
REMARK    9  A    between atoms: S_23  and  C_24
REMARK                            x       y       z     vdW  Elec       q    Type
REMARK                         _______ _______ _______ _____ _____    ______ ____
ROOT
ATOM      1  C   UNL     1       2.991   5.965  18.851  0.00  0.00    +0.000 A 
ATOM      2  C   UNL     1       2.636   4.870  19.616  0.00  0.00    +0.000 A 
ATOM      3  C   UNL     1       1.773   5.036  20.714  0.00  0.00    +0.000 A 
ATOM      4  C   UNL     1       1.237   6.300  21.049  0.00  0.00    +0.000 A 
ATOM      5  C   UNL     1       1.597   7.428  20.314  0.00  0.00    +0.000 A 
ATOM      6  C   UNL     1       2.553   7.214  19.271  0.00  0.00    +0.000 A 
ENDROOT
BRANCH   5   7
ATOM      7  N   UNL     1       1.086   8.738  20.477  0.00  0.00    +0.000 N 
ATOM      8  C   UNL     1       1.144   9.175  21.913  0.00  0.00    +0.000 C 
ATOM      9  C   UNL     1       0.221  10.363  21.990  0.00  0.00    +0.000 C 
ATOM     10  C   UNL     1       0.796  11.014  20.801  0.00  0.00    +0.000 A 
ATOM     11  C   UNL     1       1.177  12.334  20.718  0.00  0.00    +0.000 A 
ATOM     12  C   UNL     1       1.749  12.726  19.532  0.00  0.00    +0.000 A 
ATOM     13  C   UNL     1       1.746  11.864  18.413  0.00  0.00    +0.000 A 
ATOM     14  C   UNL     1       1.448  10.479  18.577  0.00  0.00    +0.000 A 
ATOM     15  C   UNL     1       1.123  10.033  19.834  0.00  0.00    +0.000 A 
BRANCH  12  16
ATOM     16  S   UNL     1       2.630  14.279  19.546  0.00  0.00    +0.000 S 
ATOM     17  C   UNL     1       1.344  15.445  19.951  0.00  0.00    +0.000 C 
ATOM     18  O   UNL     1       3.578  14.231  20.634  0.00  0.00    +0.000 OA
ATOM     19  O   UNL     1       3.054  14.558  18.193  0.00  0.00    +0.000 OA
ENDBRANCH  12  16
ENDBRANCH   5   7
BRANCH   1  20
ATOM     20  O   UNL     1       3.768   5.751  17.740  0.00  0.00    +0.000 OA
BRANCH  20  26
ATOM     21  C   UNL     1       6.750   4.625  14.060  0.00  0.00    +0.000 C 
ATOM     22  O   UNL     1       7.526   5.457  13.624  0.00  0.00    +0.000 OA
ATOM     23  N   UNL     1       5.977   4.823  15.189  0.00  0.00    +0.000 N 
ATOM     24  C   UNL     1       5.993   6.145  15.810  0.00  0.00    +0.000 C 
ATOM     25  C   UNL     1       6.201   6.020  17.311  0.00  0.00    +0.000 C 
ATOM     26  C   UNL     1       5.083   5.170  17.933  0.00  0.00    +0.000 C 
ATOM     27  C   UNL     1       5.109   3.783  17.256  0.00  0.00    +0.000 C 
ATOM     28  C   UNL     1       5.003   3.879  15.730  0.00  0.00    +0.000 C 
BRANCH  21  29
ATOM     29  O   UNL     1       6.597   3.380  13.498  0.00  0.00    +0.000 OA
BRANCH  29  31
ATOM     30  C   UNL     1       6.834   2.153  11.427  0.00  0.00    +0.000 C 
ATOM     31  C   UNL     1       6.275   3.406  12.093  0.00  0.00    +0.000 C 
ATOM     32  C   UNL     1       4.763   3.471  11.934  0.00  0.00    +0.000 C 
ENDBRANCH  29  31
ENDBRANCH  21  29
ENDBRANCH  20  26
ENDBRANCH   1  20
TORSDOF 6
ENDMDL
MODEL 5
REMARK VINA RESULT:      -7.9      2.041      2.665
REMARK  Name = 
REMARK  9 active torsions:
REMARK  status: ('A' for Active; 'I' for Inactive)
REMARK    1  A    between atoms: C_1  and  C_2
REMARK    2  A    between atoms: C_2  and  C_3
REMARK    3  A    between atoms: C_2  and  O_4
REMARK    4  A    between atoms: O_4  and  C_5
REMARK    5  A    between atoms: C_10  and  O_11
REMARK    6  A    between atoms: O_11  and  C_12
REMARK    7  A    between atoms: C_16  and  N_17
REMARK    8  A    between atoms: C_22  and  S_23
REMARK    9  A    between atoms: S_23  and  C_24
REMARK                            x       y       z     vdW  Elec       q    Type
REMARK                         _______ _______ _______ _____ _____    ______ ____
ROOT
ATOM      1  C   UNL     1       3.312   6.145  19.144  0.00  0.00    +0.000 A 
ATOM      2  C   UNL     1       3.007   4.916  19.698  0.00  0.00    +0.000 A 
ATOM      3  C   UNL     1       1.995   4.820  20.670  0.00  0.00    +0.000 A 
ATOM      4  C   UNL     1       1.259   5.953  21.085  0.00  0.00    +0.000 A 
ATOM      5  C   UNL     1       1.560   7.210  20.565  0.00  0.00    +0.000 A 
ATOM      6  C   UNL     1       2.663   7.261  19.655  0.00  0.00    +0.000 A 
ENDROOT
BRANCH   5   7
ATOM      7  N   UNL     1       0.865   8.417  20.821  0.00  0.00    +0.000 N 
ATOM      8  C   UNL     1       1.156   8.935  22.201  0.00  0.00    +0.000 C 
ATOM      9  C   UNL     1       0.070   9.945  22.469  0.00  0.00    +0.000 C 
ATOM     10  C   UNL     1       0.240  10.621  21.171  0.00  0.00    +0.000 A 
ATOM     11  C   UNL     1       0.343  11.980  20.985  0.00  0.00    +0.000 A 
ATOM     12  C   UNL     1       0.558  12.401  19.695  0.00  0.00    +0.000 A 
ATOM     13  C   UNL     1       0.467  11.492  18.618  0.00  0.00    +0.000 A 
ATOM     14  C   UNL     1       0.474  10.088  18.864  0.00  0.00    +0.000 A 
ATOM     15  C   UNL     1       0.521   9.660  20.169  0.00  0.00    +0.000 A 
BRANCH  12  16
ATOM     16  S   UNL     1       1.119  14.084  19.488  0.00  0.00    +0.000 S 
ATOM     17  C   UNL     1       2.338  13.924  18.199  0.00  0.00    +0.000 C 
ATOM     18  O   UNL     1       0.005  14.854  18.986  0.00  0.00    +0.000 OA
ATOM     19  O   UNL     1       1.814  14.469  20.694  0.00  0.00    +0.000 OA
ENDBRANCH  12  16
ENDBRANCH   5   7
BRANCH   1  20
ATOM     20  O   UNL     1       4.248   6.186  18.141  0.00  0.00    +0.000 OA
BRANCH  20  26
ATOM     21  C   UNL     1       6.820   4.663  14.298  0.00  0.00    +0.000 C 
ATOM     22  O   UNL     1       7.754   5.326  13.884  0.00  0.00    +0.000 OA
ATOM     23  N   UNL     1       6.135   4.954  15.463  0.00  0.00    +0.000 N 
ATOM     24  C   UNL     1       6.463   6.196  16.159  0.00  0.00    +0.000 C 
ATOM     25  C   UNL     1       6.670   5.930  17.643  0.00  0.00    +0.000 C 
ATOM     26  C   UNL     1       5.402   5.313  18.252  0.00  0.00    +0.000 C 
ATOM     27  C   UNL     1       5.099   4.003  17.495  0.00  0.00    +0.000 C 
ATOM     28  C   UNL     1       4.984   4.219  15.981  0.00  0.00    +0.000 C 
BRANCH  21  29
ATOM     29  O   UNL     1       6.376   3.523  13.669  0.00  0.00    +0.000 OA
BRANCH  29  31
ATOM     30  C   UNL     1       7.226   2.724  11.550  0.00  0.00    +0.000 C 
ATOM     31  C   UNL     1       6.237   3.657  12.241  0.00  0.00    +0.000 C 
ATOM     32  C   UNL     1       4.807   3.310  11.850  0.00  0.00    +0.000 C 
ENDBRANCH  29  31
ENDBRANCH  21  29
ENDBRANCH  20  26
ENDBRANCH   1  20
TORSDOF 6
ENDMDL
MODEL 6
REMARK VINA RESULT:      -7.7      2.955      3.714
REMARK  Name = 
REMARK  9 active torsions:
REMARK  status: ('A' for Active; 'I' for Inactive)
REMARK    1  A    between atoms: C_1  and  C_2
REMARK    2  A    between atoms: C_2  and  C_3
REMARK    3  A    between atoms: C_2  and  O_4
REMARK    4  A    between atoms: O_4  and  C_5
REMARK    5  A    between atoms: C_10  and  O_11
REMARK    6  A    between atoms: O_11  and  C_12
REMARK    7  A    between atoms: C_16  and  N_17
REMARK    8  A    between atoms: C_22  and  S_23
REMARK    9  A    between atoms: S_23  and  C_24
REMARK                            x       y       z     vdW  Elec       q    Type
REMARK                         _______ _______ _______ _____ _____    ______ ____
ROOT
ATOM      1  C   UNL     1       2.393   7.554  19.074  0.00  0.00    +0.000 A 
ATOM      2  C   UNL     1       2.005   6.984  20.272  0.00  0.00    +0.000 A 
ATOM      3  C   UNL     1       1.136   7.683  21.129  0.00  0.00    +0.000 A 
ATOM      4  C   UNL     1       0.627   8.956  20.787  0.00  0.00    +0.000 A 
ATOM      5  C   UNL     1       1.020   9.569  19.599  0.00  0.00    +0.000 A 
ATOM      6  C   UNL     1       1.979   8.854  18.815  0.00  0.00    +0.000 A 
ENDROOT
BRANCH   5   7
ATOM      7  N   UNL     1       0.537  10.797  19.085  0.00  0.00    +0.000 N 
ATOM      8  C   UNL     1      -0.754  11.196  19.741  0.00  0.00    +0.000 C 
ATOM      9  C   UNL     1      -1.334  12.253  18.836  0.00  0.00    +0.000 C 
ATOM     10  C   UNL     1      -0.073  13.007  18.742  0.00  0.00    +0.000 A 
ATOM     11  C   UNL     1       0.061  14.366  18.907  0.00  0.00    +0.000 A 
ATOM     12  C   UNL     1       1.340  14.863  18.837  0.00  0.00    +0.000 A 
ATOM     13  C   UNL     1       2.408  14.041  18.417  0.00  0.00    +0.000 A 
ATOM     14  C   UNL     1       2.246  12.625  18.370  0.00  0.00    +0.000 A 
ATOM     15  C   UNL     1       1.018  12.104  18.696  0.00  0.00    +0.000 A 
BRANCH  12  16
ATOM     16  S   UNL     1       1.589  16.516  19.466  0.00  0.00    +0.000 S 
ATOM     17  C   UNL     1       1.569  16.262  21.229  0.00  0.00    +0.000 C 
ATOM     18  O   UNL     1       2.912  16.937  19.068  0.00  0.00    +0.000 OA
ATOM     19  O   UNL     1       0.421  17.296  19.130  0.00  0.00    +0.000 OA
ENDBRANCH  12  16
ENDBRANCH   5   7
BRANCH   1  20
ATOM     20  O   UNL     1       3.175   6.808  18.228  0.00  0.00    +0.000 OA
BRANCH  20  26
ATOM     21  C   UNL     1       6.893   4.376  16.237  0.00  0.00    +0.000 C 
ATOM     22  O   UNL     1       8.024   4.532  16.661  0.00  0.00    +0.000 OA
ATOM     23  N   UNL     1       5.772   4.919  16.838  0.00  0.00    +0.000 N 
ATOM     24  C   UNL     1       5.969   5.835  17.958  0.00  0.00    +0.000 C 
ATOM     25  C   UNL     1       5.060   5.455  19.117  0.00  0.00    +0.000 C 
ATOM     26  C   UNL     1       3.591   5.491  18.671  0.00  0.00    +0.000 C 
ATOM     27  C   UNL     1       3.426   4.504  17.496  0.00  0.00    +0.000 C 
ATOM     28  C   UNL     1       4.401   4.798  16.350  0.00  0.00    +0.000 C 
BRANCH  21  29
ATOM     29  O   UNL     1       6.608   3.601  15.137  0.00  0.00    +0.000 OA
BRANCH  29  31
ATOM     30  C   UNL     1       7.656   5.036  13.496  0.00  0.00    +0.000 C 
ATOM     31  C   UNL     1       6.363   4.357  13.935  0.00  0.00    +0.000 C 
ATOM     32  C   UNL     1       5.857   3.413  12.853  0.00  0.00    +0.000 C 
ENDBRANCH  29  31
ENDBRANCH  21  29
ENDBRANCH  20  26
ENDBRANCH   1  20
TORSDOF 6
ENDMDL
MODEL 7
REMARK VINA RESULT:      -7.7      1.911      2.873
REMARK  Name = 
REMARK  9 active torsions:
REMARK  status: ('A' for Active; 'I' for Inactive)
REMARK    1  A    between atoms: C_1  and  C_2
REMARK    2  A    between atoms: C_2  and  C_3
REMARK    3  A    between atoms: C_2  and  O_4
REMARK    4  A    between atoms: O_4  and  C_5
REMARK    5  A    between atoms: C_10  and  O_11
REMARK    6  A    between atoms: O_11  and  C_12
REMARK    7  A    between atoms: C_16  and  N_17
REMARK    8  A    between atoms: C_22  and  S_23
REMARK    9  A    between atoms: S_23  and  C_24
REMARK                            x       y       z     vdW  Elec       q    Type
REMARK                         _______ _______ _______ _____ _____    ______ ____
ROOT
ATOM      1  C   UNL     1       2.639   7.292  19.284  0.00  0.00    +0.000 A 
ATOM      2  C   UNL     1       2.785   7.846  18.025  0.00  0.00    +0.000 A 
ATOM      3  C   UNL     1       2.027   8.977  17.669  0.00  0.00    +0.000 A 
ATOM      4  C   UNL     1       1.128   9.581  18.577  0.00  0.00    +0.000 A 
ATOM      5  C   UNL     1       0.940   9.031  19.843  0.00  0.00    +0.000 A 
ATOM      6  C   UNL     1       1.663   7.826  20.114  0.00  0.00    +0.000 A 
ENDROOT
BRANCH   5   7
ATOM      7  N   UNL     1       0.141   9.565  20.883  0.00  0.00    +0.000 N 
ATOM      8  C   UNL     1       0.814   9.424  22.219  0.00  0.00    +0.000 C 
ATOM      9  C   UNL     1      -0.284   9.641  23.227  0.00  0.00    +0.000 C 
ATOM     10  C   UNL     1      -0.787  10.857  22.568  0.00  0.00    +0.000 A 
ATOM     11  C   UNL     1      -1.077  12.046  23.197  0.00  0.00    +0.000 A 
ATOM     12  C   UNL     1      -1.478  13.080  22.386  0.00  0.00    +0.000 A 
ATOM     13  C   UNL     1      -1.766  12.853  21.022  0.00  0.00    +0.000 A 
ATOM     14  C   UNL     1      -1.344  11.645  20.393  0.00  0.00    +0.000 A 
ATOM     15  C   UNL     1      -0.702  10.706  21.162  0.00  0.00    +0.000 A 
BRANCH  12  16
ATOM     16  S   UNL     1      -1.441  14.716  23.100  0.00  0.00    +0.000 S 
ATOM     17  C   UNL     1      -0.078  15.478  22.241  0.00  0.00    +0.000 C 
ATOM     18  O   UNL     1      -2.665  15.383  22.722  0.00  0.00    +0.000 OA
ATOM     19  O   UNL     1      -1.057  14.584  24.486  0.00  0.00    +0.000 OA
ENDBRANCH  12  16
ENDBRANCH   5   7
BRANCH   1  20
ATOM     20  O   UNL     1       3.454   6.241  19.624  0.00  0.00    +0.000 OA
BRANCH  20  26
ATOM     21  C   UNL     1       7.179   4.944  16.770  0.00  0.00    +0.000 C 
ATOM     22  O   UNL     1       8.064   4.229  17.206  0.00  0.00    +0.000 OA
ATOM     23  N   UNL     1       6.023   5.237  17.470  0.00  0.00    +0.000 N 
ATOM     24  C   UNL     1       5.922   4.777  18.852  0.00  0.00    +0.000 C 
ATOM     25  C   UNL     1       4.583   4.094  19.084  0.00  0.00    +0.000 C 
ATOM     26  C   UNL     1       3.433   5.064  18.776  0.00  0.00    +0.000 C 
ATOM     27  C   UNL     1       3.573   5.517  17.306  0.00  0.00    +0.000 C 
ATOM     28  C   UNL     1       4.952   6.119  17.013  0.00  0.00    +0.000 C 
BRANCH  21  29
ATOM     29  O   UNL     1       7.217   5.498  15.512  0.00  0.00    +0.000 OA
BRANCH  29  31
ATOM     30  C   UNL     1       5.735   4.145  14.161  0.00  0.00    +0.000 C 
ATOM     31  C   UNL     1       7.184   4.531  14.444  0.00  0.00    +0.000 C 
ATOM     32  C   UNL     1       7.830   5.139  13.207  0.00  0.00    +0.000 C 
ENDBRANCH  29  31
ENDBRANCH  21  29
ENDBRANCH  20  26
ENDBRANCH   1  20
TORSDOF 6
ENDMDL
MODEL 8
REMARK VINA RESULT:      -7.7      2.532      3.136
REMARK  Name = 
REMARK  9 active torsions:
REMARK  status: ('A' for Active; 'I' for Inactive)
REMARK    1  A    between atoms: C_1  and  C_2
REMARK    2  A    between atoms: C_2  and  C_3
REMARK    3  A    between atoms: C_2  and  O_4
REMARK    4  A    between atoms: O_4  and  C_5
REMARK    5  A    between atoms: C_10  and  O_11
REMARK    6  A    between atoms: O_11  and  C_12
REMARK    7  A    between atoms: C_16  and  N_17
REMARK    8  A    between atoms: C_22  and  S_23
REMARK    9  A    between atoms: S_23  and  C_24
REMARK                            x       y       z     vdW  Elec       q    Type
REMARK                         _______ _______ _______ _____ _____    ______ ____
ROOT
ATOM      1  C   UNL     1       4.085   5.713  19.029  0.00  0.00    +0.000 A 
ATOM      2  C   UNL     1       3.706   4.519  19.615  0.00  0.00    +0.000 A 
ATOM      3  C   UNL     1       2.544   4.469  20.406  0.00  0.00    +0.000 A 
ATOM      4  C   UNL     1       1.735   5.610  20.606  0.00  0.00    +0.000 A 
ATOM      5  C   UNL     1       2.105   6.834  20.052  0.00  0.00    +0.000 A 
ATOM      6  C   UNL     1       3.346   6.847  19.339  0.00  0.00    +0.000 A 
ENDROOT
BRANCH   5   7
ATOM      7  N   UNL     1       1.362   8.038  20.096  0.00  0.00    +0.000 N 
ATOM      8  C   UNL     1       1.112   8.477  21.511  0.00  0.00    +0.000 C 
ATOM      9  C   UNL     1       0.002   9.491  21.409  0.00  0.00    +0.000 C 
ATOM     10  C   UNL     1       0.646  10.232  20.311  0.00  0.00    +0.000 A 
ATOM     11  C   UNL     1       0.809  11.597  20.255  0.00  0.00    +0.000 A 
ATOM     12  C   UNL     1       1.492  12.082  19.167  0.00  0.00    +0.000 A 
ATOM     13  C   UNL     1       1.816  11.235  18.085  0.00  0.00    +0.000 A 
ATOM     14  C   UNL     1       1.732   9.819  18.234  0.00  0.00    +0.000 A 
ATOM     15  C   UNL     1       1.286   9.322  19.435  0.00  0.00    +0.000 A 
BRANCH  12  16
ATOM     16  S   UNL     1       2.086  13.763  19.282  0.00  0.00    +0.000 S 
ATOM     17  C   UNL     1       0.580  14.709  19.181  0.00  0.00    +0.000 C 
ATOM     18  O   UNL     1       2.658  13.932  20.597  0.00  0.00    +0.000 OA
ATOM     19  O   UNL     1       2.851  14.043  18.089  0.00  0.00    +0.000 OA
ENDBRANCH  12  16
ENDBRANCH   5   7
BRANCH   1  20
ATOM     20  O   UNL     1       5.177   5.705  18.198  0.00  0.00    +0.000 OA
BRANCH  20  26
ATOM     21  C   UNL     1       6.069   4.080  13.696  0.00  0.00    +0.000 C 
ATOM     22  O   UNL     1       7.113   4.365  13.138  0.00  0.00    +0.000 OA
ATOM     23  N   UNL     1       5.805   4.382  15.020  0.00  0.00    +0.000 N 
ATOM     24  C   UNL     1       6.773   5.203  15.742  0.00  0.00    +0.000 C 
ATOM     25  C   UNL     1       7.095   4.577  17.090  0.00  0.00    +0.000 C 
ATOM     26  C   UNL     1       5.814   4.430  17.925  0.00  0.00    +0.000 C 
ATOM     27  C   UNL     1       4.826   3.550  17.130  0.00  0.00    +0.000 C 
ATOM     28  C   UNL     1       4.558   4.101  15.725  0.00  0.00    +0.000 C 
BRANCH  21  29
ATOM     29  O   UNL     1       5.058   3.383  13.078  0.00  0.00    +0.000 OA
BRANCH  29  31
ATOM     30  C   UNL     1       5.852   1.795  11.435  0.00  0.00    +0.000 C 
ATOM     31  C   UNL     1       5.262   3.183  11.666  0.00  0.00    +0.000 C 
ATOM     32  C   UNL     1       3.926   3.324  10.949  0.00  0.00    +0.000 C 
ENDBRANCH  29  31
ENDBRANCH  21  29
ENDBRANCH  20  26
ENDBRANCH   1  20
TORSDOF 6
ENDMDL
MODEL 9
REMARK VINA RESULT:      -7.5      3.062      4.552
REMARK  Name = 
REMARK  9 active torsions:
REMARK  status: ('A' for Active; 'I' for Inactive)
REMARK    1  A    between atoms: C_1  and  C_2
REMARK    2  A    between atoms: C_2  and  C_3
REMARK    3  A    between atoms: C_2  and  O_4
REMARK    4  A    between atoms: O_4  and  C_5
REMARK    5  A    between atoms: C_10  and  O_11
REMARK    6  A    between atoms: O_11  and  C_12
REMARK    7  A    between atoms: C_16  and  N_17
REMARK    8  A    between atoms: C_22  and  S_23
REMARK    9  A    between atoms: S_23  and  C_24
REMARK                            x       y       z     vdW  Elec       q    Type
REMARK                         _______ _______ _______ _____ _____    ______ ____
ROOT
ATOM      1  C   UNL     1       1.419   8.659  20.434  0.00  0.00    +0.000 A 
ATOM      2  C   UNL     1       1.386   8.717  21.815  0.00  0.00    +0.000 A 
ATOM      3  C   UNL     1       0.463   9.563  22.456  0.00  0.00    +0.000 A 
ATOM      4  C   UNL     1      -0.456  10.347  21.722  0.00  0.00    +0.000 A 
ATOM      5  C   UNL     1      -0.430  10.331  20.329  0.00  0.00    +0.000 A 
ATOM      6  C   UNL     1       0.594   9.528  19.733  0.00  0.00    +0.000 A 
ENDROOT
BRANCH   5   7
ATOM      7  N   UNL     1      -1.331  10.994  19.462  0.00  0.00    +0.000 N 
ATOM      8  C   UNL     1      -1.670  10.146  18.269  0.00  0.00    +0.000 C 
ATOM      9  C   UNL     1      -2.273  11.104  17.275  0.00  0.00    +0.000 C 
ATOM     10  C   UNL     1      -3.178  11.716  18.263  0.00  0.00    +0.000 A 
ATOM     11  C   UNL     1      -4.523  11.944  18.082  0.00  0.00    +0.000 A 
ATOM     12  C   UNL     1      -5.199  12.471  19.155  0.00  0.00    +0.000 A 
ATOM     13  C   UNL     1      -4.496  12.934  20.289  0.00  0.00    +0.000 A 
ATOM     14  C   UNL     1      -3.130  12.575  20.481  0.00  0.00    +0.000 A 
ATOM     15  C   UNL     1      -2.520  11.816  19.513  0.00  0.00    +0.000 A 
BRANCH  12  16
ATOM     16  S   UNL     1      -6.981  12.374  19.103  0.00  0.00    +0.000 S 
ATOM     17  C   UNL     1      -7.312  10.907  20.060  0.00  0.00    +0.000 C 
ATOM     18  O   UNL     1      -7.500  13.521  19.809  0.00  0.00    +0.000 OA
ATOM     19  O   UNL     1      -7.368  12.094  17.739  0.00  0.00    +0.000 OA
ENDBRANCH  12  16
ENDBRANCH   5   7
BRANCH   1  20
ATOM     20  O   UNL     1       2.276   7.762  19.847  0.00  0.00    +0.000 OA
BRANCH  20  26
ATOM     21  C   UNL     1       4.993   3.985  18.414  0.00  0.00    +0.000 C 
ATOM     22  O   UNL     1       5.307   3.120  19.210  0.00  0.00    +0.000 OA
ATOM     23  N   UNL     1       4.111   5.008  18.708  0.00  0.00    +0.000 N 
ATOM     24  C   UNL     1       3.638   5.132  20.084  0.00  0.00    +0.000 C 
ATOM     25  C   UNL     1       2.126   5.295  20.110  0.00  0.00    +0.000 C 
ATOM     26  C   UNL     1       1.714   6.538  19.308  0.00  0.00    +0.000 C 
ATOM     27  C   UNL     1       2.224   6.361  17.861  0.00  0.00    +0.000 C 
ATOM     28  C   UNL     1       3.732   6.092  17.806  0.00  0.00    +0.000 C 
BRANCH  21  29
ATOM     29  O   UNL     1       5.451   4.008  17.117  0.00  0.00    +0.000 OA
BRANCH  29  31
ATOM     30  C   UNL     1       7.718   4.568  17.745  0.00  0.00    +0.000 C 
ATOM     31  C   UNL     1       6.516   4.951  16.888  0.00  0.00    +0.000 C 
ATOM     32  C   UNL     1       6.883   4.932  15.410  0.00  0.00    +0.000 C 
ENDBRANCH  29  31
ENDBRANCH  21  29
ENDBRANCH  20  26
ENDBRANCH   1  20
TORSDOF 6
ENDMDL
