MODEL 1
REMARK VINA RESULT:      -7.8      0.000      0.000
REMARK  Name = 
REMARK  7 active torsions:
REMARK  status: ('A' for Active; 'I' for Inactive)
REMARK    1  A    between atoms: C_1  and  C_2
REMARK    2  A    between atoms: C_2  and  O_3
REMARK    3  A    between atoms: O_3  and  C_4
REMARK    4  A    between atoms: C_4  and  C_6
REMARK    5  A    between atoms: C_6  and  C_7
REMARK    6  A    between atoms: C_14  and  C_15
REMARK    7  A    between atoms: C_22  and  C_23
REMARK                            x       y       z     vdW  Elec       q    Type
REMARK                         _______ _______ _______ _____ _____    ______ ____
ROOT
ATOM      1  C   UNL     1       5.279   5.782  17.501  0.00  0.00    +0.000 C 
ATOM      2  N   UNL     1       5.229   5.801  15.975  0.00  0.00    +0.000 NA
ATOM      3  C   UNL     1       5.844   4.689  15.636  0.00  0.00    +0.000 C 
ATOM      4  N   UNL     1       6.141   3.808  16.658  0.00  0.00    +0.000 N 
ATOM      5  C   UNL     1       5.385   4.252  17.830  0.00  0.00    +0.000 C 
ATOM      6  H   UNL     1       6.112   2.816  16.450  0.00  0.00    +0.000 HD
ENDROOT
BRANCH   1   7
ATOM      7  C   UNL     1       6.476   6.671  17.917  0.00  0.00    +0.000 A 
ATOM      8  C   UNL     1       6.601   7.940  17.314  0.00  0.00    +0.000 A 
ATOM      9  C   UNL     1       7.675   8.783  17.616  0.00  0.00    +0.000 A 
ATOM     10  C   UNL     1       8.646   8.372  18.520  0.00  0.00    +0.000 A 
ATOM     11  C   UNL     1       8.541   7.124  19.126  0.00  0.00    +0.000 A 
ATOM     12  C   UNL     1       7.468   6.279  18.829  0.00  0.00    +0.000 A 
ENDBRANCH   1   7
BRANCH   3  13
ATOM     13  C   UNL     1       6.136   4.370  14.222  0.00  0.00    +0.000 A 
ATOM     14  C   UNL     1       5.281   3.525  13.506  0.00  0.00    +0.000 A 
ATOM     15  C   UNL     1       5.588   3.182  12.189  0.00  0.00    +0.000 A 
ATOM     16  C   UNL     1       6.739   3.691  11.585  0.00  0.00    +0.000 A 
ATOM     17  C   UNL     1       7.582   4.549  12.293  0.00  0.00    +0.000 A 
ATOM     18  C   UNL     1       7.284   4.886  13.615  0.00  0.00    +0.000 A 
ENDBRANCH   3  13
BRANCH   5  19
ATOM     19  C   UNL     1       4.075   3.467  17.949  0.00  0.00    +0.000 A 
ATOM     20  C   UNL     1       3.953   2.497  18.960  0.00  0.00    +0.000 A 
ATOM     21  C   UNL     1       2.760   1.791  19.143  0.00  0.00    +0.000 A 
ATOM     22  C   UNL     1       1.669   2.036  18.313  0.00  0.00    +0.000 A 
ATOM     23  C   UNL     1       1.768   2.988  17.305  0.00  0.00    +0.000 A 
ATOM     24  C   UNL     1       2.956   3.702  17.128  0.00  0.00    +0.000 A 
ENDBRANCH   5  19
BRANCH   1  25
ATOM     25  C   UNL     1       4.012   6.333  18.164  0.00  0.00    +0.000 C 
ATOM     26  O   UNL     1       3.212   7.060  17.572  0.00  0.00    +0.000 OA
BRANCH  25  27
ATOM     27  O   UNL     1       3.862   5.945  19.463  0.00  0.00    +0.000 OA
BRANCH  27  29
ATOM     28  C   UNL     1       2.060   4.998  20.770  0.00  0.00    +0.000 C 
ATOM     29  C   UNL     1       2.579   6.223  20.039  0.00  0.00    +0.000 C 
ENDBRANCH  27  29
ENDBRANCH  25  27
ENDBRANCH   1  25
TORSDOF 6
ENDMDL
MODEL 2
REMARK VINA RESULT:      -7.7      0.821      1.555
REMARK  Name = 
REMARK  7 active torsions:
REMARK  status: ('A' for Active; 'I' for Inactive)
REMARK    1  A    between atoms: C_1  and  C_2
REMARK    2  A    between atoms: C_2  and  O_3
REMARK    3  A    between atoms: O_3  and  C_4
REMARK    4  A    between atoms: C_4  and  C_6
REMARK    5  A    between atoms: C_6  and  C_7
REMARK    6  A    between atoms: C_14  and  C_15
REMARK    7  A    between atoms: C_22  and  C_23
REMARK                            x       y       z     vdW  Elec       q    Type
REMARK                         _______ _______ _______ _____ _____    ______ ____
ROOT
ATOM      1  C   UNL     1       5.413   5.857  17.522  0.00  0.00    +0.000 C 
ATOM      2  N   UNL     1       5.271   5.829  16.002  0.00  0.00    +0.000 NA
ATOM      3  C   UNL     1       5.931   4.746  15.654  0.00  0.00    +0.000 C 
ATOM      4  N   UNL     1       6.340   3.914  16.677  0.00  0.00    +0.000 N 
ATOM      5  C   UNL     1       5.629   4.345  17.882  0.00  0.00    +0.000 C 
ATOM      6  H   UNL     1       6.359   2.916  16.496  0.00  0.00    +0.000 HD
ENDROOT
BRANCH   1   7
ATOM      7  C   UNL     1       6.577   6.825  17.842  0.00  0.00    +0.000 A 
ATOM      8  C   UNL     1       7.540   6.416  18.788  0.00  0.00    +0.000 A 
ATOM      9  C   UNL     1       8.600   7.251  19.151  0.00  0.00    +0.000 A 
ATOM     10  C   UNL     1       8.716   8.513  18.580  0.00  0.00    +0.000 A 
ATOM     11  C   UNL     1       7.777   8.936  17.645  0.00  0.00    +0.000 A 
ATOM     12  C   UNL     1       6.716   8.103  17.277  0.00  0.00    +0.000 A 
ENDBRANCH   1   7
BRANCH   3  13
ATOM     13  C   UNL     1       6.157   4.404  14.232  0.00  0.00    +0.000 A 
ATOM     14  C   UNL     1       5.253   3.575  13.561  0.00  0.00    +0.000 A 
ATOM     15  C   UNL     1       5.497   3.211  12.237  0.00  0.00    +0.000 A 
ATOM     16  C   UNL     1       6.636   3.683  11.581  0.00  0.00    +0.000 A 
ATOM     17  C   UNL     1       7.529   4.525  12.246  0.00  0.00    +0.000 A 
ATOM     18  C   UNL     1       7.294   4.883  13.574  0.00  0.00    +0.000 A 
ENDBRANCH   3  13
BRANCH   5  19
ATOM     19  C   UNL     1       4.378   3.488  18.099  0.00  0.00    +0.000 A 
ATOM     20  C   UNL     1       4.220   2.815  19.324  0.00  0.00    +0.000 A 
ATOM     21  C   UNL     1       3.071   2.064  19.590  0.00  0.00    +0.000 A 
ATOM     22  C   UNL     1       2.064   1.965  18.635  0.00  0.00    +0.000 A 
ATOM     23  C   UNL     1       2.200   2.619  17.416  0.00  0.00    +0.000 A 
ATOM     24  C   UNL     1       3.342   3.380  17.153  0.00  0.00    +0.000 A 
ENDBRANCH   5  19
BRANCH   1  25
ATOM     25  C   UNL     1       4.156   6.351  18.246  0.00  0.00    +0.000 C 
ATOM     26  O   UNL     1       3.927   6.102  19.431  0.00  0.00    +0.000 OA
BRANCH  25  27
ATOM     27  O   UNL     1       3.322   7.085  17.454  0.00  0.00    +0.000 OA
BRANCH  27  29
ATOM     28  C   UNL     1       2.101   9.146  17.791  0.00  0.00    +0.000 C 
ATOM     29  C   UNL     1       2.198   7.669  18.126  0.00  0.00    +0.000 C 
ENDBRANCH  27  29
ENDBRANCH  25  27
ENDBRANCH   1  25
TORSDOF 6
ENDMDL
MODEL 3
REMARK VINA RESULT:      -7.5      0.803      1.544
REMARK  Name = 
REMARK  7 active torsions:
REMARK  status: ('A' for Active; 'I' for Inactive)
REMARK    1  A    between atoms: C_1  and  C_2
REMARK    2  A    between atoms: C_2  and  O_3
REMARK    3  A    between atoms: O_3  and  C_4
REMARK    4  A    between atoms: C_4  and  C_6
REMARK    5  A    between atoms: C_6  and  C_7
REMARK    6  A    between atoms: C_14  and  C_15
REMARK    7  A    between atoms: C_22  and  C_23
REMARK                            x       y       z     vdW  Elec       q    Type
REMARK                         _______ _______ _______ _____ _____    ______ ____
ROOT
ATOM      1  C   UNL     1       5.383   5.801  17.582  0.00  0.00    +0.000 C 
ATOM      2  N   UNL     1       5.313   5.798  16.057  0.00  0.00    +0.000 NA
ATOM      3  C   UNL     1       5.954   4.699  15.724  0.00  0.00    +0.000 C 
ATOM      4  N   UNL     1       6.288   3.840  16.753  0.00  0.00    +0.000 N 
ATOM      5  C   UNL     1       5.534   4.277  17.929  0.00  0.00    +0.000 C 
ATOM      6  H   UNL     1       6.284   2.845  16.557  0.00  0.00    +0.000 HD
ENDROOT
BRANCH   1   7
ATOM      7  C   UNL     1       6.560   6.727  17.972  0.00  0.00    +0.000 A 
ATOM      8  C   UNL     1       6.661   7.979  17.330  0.00  0.00    +0.000 A 
ATOM      9  C   UNL     1       7.715   8.852  17.608  0.00  0.00    +0.000 A 
ATOM     10  C   UNL     1       8.693   8.491  18.526  0.00  0.00    +0.000 A 
ATOM     11  C   UNL     1       8.612   7.261  19.171  0.00  0.00    +0.000 A 
ATOM     12  C   UNL     1       7.558   6.384  18.899  0.00  0.00    +0.000 A 
ENDBRANCH   1   7
BRANCH   3  13
ATOM     13  C   UNL     1       6.238   4.371  14.310  0.00  0.00    +0.000 A 
ATOM     14  C   UNL     1       7.346   4.936  13.671  0.00  0.00    +0.000 A 
ATOM     15  C   UNL     1       7.580   4.668  12.322  0.00  0.00    +0.000 A 
ATOM     16  C   UNL     1       6.717   3.827  11.617  0.00  0.00    +0.000 A 
ATOM     17  C   UNL     1       5.621   3.249  12.260  0.00  0.00    +0.000 A 
ATOM     18  C   UNL     1       5.377   3.523  13.606  0.00  0.00    +0.000 A 
ENDBRANCH   3  13
BRANCH   5  19
ATOM     19  C   UNL     1       4.248   3.459  18.073  0.00  0.00    +0.000 A 
ATOM     20  C   UNL     1       4.045   2.713  19.249  0.00  0.00    +0.000 A 
ATOM     21  C   UNL     1       2.865   1.992  19.451  0.00  0.00    +0.000 A 
ATOM     22  C   UNL     1       1.869   1.996  18.479  0.00  0.00    +0.000 A 
ATOM     23  C   UNL     1       2.048   2.723  17.308  0.00  0.00    +0.000 A 
ATOM     24  C   UNL     1       3.223   3.454  17.109  0.00  0.00    +0.000 A 
ENDBRANCH   5  19
BRANCH   1  25
ATOM     25  C   UNL     1       4.109   6.325  18.254  0.00  0.00    +0.000 C 
ATOM     26  O   UNL     1       3.862   6.145  19.448  0.00  0.00    +0.000 OA
BRANCH  25  27
ATOM     27  O   UNL     1       3.282   7.001  17.404  0.00  0.00    +0.000 OA
BRANCH  27  29
ATOM     28  C   UNL     1       1.504   8.590  17.809  0.00  0.00    +0.000 C 
ATOM     29  C   UNL     1       3.003   8.357  17.775  0.00  0.00    +0.000 C 
ENDBRANCH  27  29
ENDBRANCH  25  27
ENDBRANCH   1  25
TORSDOF 6
ENDMDL
MODEL 4
REMARK VINA RESULT:      -7.4      0.195      1.303
REMARK  Name = 
REMARK  7 active torsions:
REMARK  status: ('A' for Active; 'I' for Inactive)
REMARK    1  A    between atoms: C_1  and  C_2
REMARK    2  A    between atoms: C_2  and  O_3
REMARK    3  A    between atoms: O_3  and  C_4
REMARK    4  A    between atoms: C_4  and  C_6
REMARK    5  A    between atoms: C_6  and  C_7
REMARK    6  A    between atoms: C_14  and  C_15
REMARK    7  A    between atoms: C_22  and  C_23
REMARK                            x       y       z     vdW  Elec       q    Type
REMARK                         _______ _______ _______ _____ _____    ______ ____
ROOT
ATOM      1  C   UNL     1       5.387   5.858  17.520  0.00  0.00    +0.000 C 
ATOM      2  N   UNL     1       5.343   5.836  15.994  0.00  0.00    +0.000 NA
ATOM      3  C   UNL     1       5.995   4.737  15.685  0.00  0.00    +0.000 C 
ATOM      4  N   UNL     1       6.316   3.893  16.730  0.00  0.00    +0.000 N 
ATOM      5  C   UNL     1       5.541   4.340  17.888  0.00  0.00    +0.000 C 
ATOM      6  H   UNL     1       6.321   2.895  16.547  0.00  0.00    +0.000 HD
ENDROOT
BRANCH   1   7
ATOM      7  C   UNL     1       6.553   6.796  17.917  0.00  0.00    +0.000 A 
ATOM      8  C   UNL     1       6.622   8.065  17.305  0.00  0.00    +0.000 A 
ATOM      9  C   UNL     1       7.664   8.951  17.590  0.00  0.00    +0.000 A 
ATOM     10  C   UNL     1       8.660   8.585  18.486  0.00  0.00    +0.000 A 
ATOM     11  C   UNL     1       8.611   7.338  19.101  0.00  0.00    +0.000 A 
ATOM     12  C   UNL     1       7.569   6.449  18.821  0.00  0.00    +0.000 A 
ENDBRANCH   1   7
BRANCH   3  13
ATOM     13  C   UNL     1       6.303   4.392  14.280  0.00  0.00    +0.000 A 
ATOM     14  C   UNL     1       7.395   4.986  13.639  0.00  0.00    +0.000 A 
ATOM     15  C   UNL     1       7.652   4.701  12.298  0.00  0.00    +0.000 A 
ATOM     16  C   UNL     1       6.827   3.815  11.603  0.00  0.00    +0.000 A 
ATOM     17  C   UNL     1       5.748   3.208  12.247  0.00  0.00    +0.000 A 
ATOM     18  C   UNL     1       5.482   3.499  13.586  0.00  0.00    +0.000 A 
ENDBRANCH   3  13
BRANCH   5  19
ATOM     19  C   UNL     1       4.257   3.516  18.022  0.00  0.00    +0.000 A 
ATOM     20  C   UNL     1       3.240   3.682  17.065  0.00  0.00    +0.000 A 
ATOM     21  C   UNL     1       2.072   2.916  17.113  0.00  0.00    +0.000 A 
ATOM     22  C   UNL     1       1.895   1.975  18.124  0.00  0.00    +0.000 A 
ATOM     23  C   UNL     1       2.885   1.797  19.083  0.00  0.00    +0.000 A 
ATOM     24  C   UNL     1       4.059   2.554  19.029  0.00  0.00    +0.000 A 
ENDBRANCH   5  19
BRANCH   1  25
ATOM     25  C   UNL     1       4.099   6.384  18.164  0.00  0.00    +0.000 C 
ATOM     26  O   UNL     1       3.284   7.077  17.554  0.00  0.00    +0.000 OA
BRANCH  25  27
ATOM     27  O   UNL     1       3.951   6.013  19.469  0.00  0.00    +0.000 OA
BRANCH  27  29
ATOM     28  C   UNL     1       1.960   5.115  20.508  0.00  0.00    +0.000 C 
ATOM     29  C   UNL     1       2.695   6.366  20.064  0.00  0.00    +0.000 C 
ENDBRANCH  27  29
ENDBRANCH  25  27
ENDBRANCH   1  25
TORSDOF 6
ENDMDL
MODEL 5
REMARK VINA RESULT:      -7.1      2.357      5.654
REMARK  Name = 
REMARK  7 active torsions:
REMARK  status: ('A' for Active; 'I' for Inactive)
REMARK    1  A    between atoms: C_1  and  C_2
REMARK    2  A    between atoms: C_2  and  O_3
REMARK    3  A    between atoms: O_3  and  C_4
REMARK    4  A    between atoms: C_4  and  C_6
REMARK    5  A    between atoms: C_6  and  C_7
REMARK    6  A    between atoms: C_14  and  C_15
REMARK    7  A    between atoms: C_22  and  C_23
REMARK                            x       y       z     vdW  Elec       q    Type
REMARK                         _______ _______ _______ _____ _____    ______ ____
ROOT
ATOM      1  C   UNL     1       4.264   5.015  18.143  0.00  0.00    +0.000 C 
ATOM      2  N   UNL     1       4.065   6.438  18.658  0.00  0.00    +0.000 NA
ATOM      3  C   UNL     1       2.803   6.688  18.385  0.00  0.00    +0.000 C 
ATOM      4  N   UNL     1       2.041   5.622  17.948  0.00  0.00    +0.000 N 
ATOM      5  C   UNL     1       2.818   4.410  18.214  0.00  0.00    +0.000 C 
ATOM      6  H   UNL     1       1.063   5.599  18.215  0.00  0.00    +0.000 HD
ENDROOT
BRANCH   1   7
ATOM      7  C   UNL     1       4.903   5.136  16.738  0.00  0.00    +0.000 A 
ATOM      8  C   UNL     1       5.322   3.954  16.095  0.00  0.00    +0.000 A 
ATOM      9  C   UNL     1       5.937   3.989  14.840  0.00  0.00    +0.000 A 
ATOM     10  C   UNL     1       6.149   5.207  14.206  0.00  0.00    +0.000 A 
ATOM     11  C   UNL     1       5.742   6.386  14.823  0.00  0.00    +0.000 A 
ATOM     12  C   UNL     1       5.125   6.355  16.077  0.00  0.00    +0.000 A 
ENDBRANCH   1   7
BRANCH   3  13
ATOM     13  C   UNL     1       2.216   8.027  18.606  0.00  0.00    +0.000 A 
ATOM     14  C   UNL     1       1.530   8.302  19.793  0.00  0.00    +0.000 A 
ATOM     15  C   UNL     1       0.931   9.549  19.976  0.00  0.00    +0.000 A 
ATOM     16  C   UNL     1       1.028  10.523  18.980  0.00  0.00    +0.000 A 
ATOM     17  C   UNL     1       1.727  10.254  17.802  0.00  0.00    +0.000 A 
ATOM     18  C   UNL     1       2.319   9.005  17.611  0.00  0.00    +0.000 A 
ENDBRANCH   3  13
BRANCH   5  19
ATOM     19  C   UNL     1       2.386   3.779  19.541  0.00  0.00    +0.000 A 
ATOM     20  C   UNL     1       1.867   2.471  19.534  0.00  0.00    +0.000 A 
ATOM     21  C   UNL     1       1.507   1.832  20.724  0.00  0.00    +0.000 A 
ATOM     22  C   UNL     1       1.652   2.490  21.942  0.00  0.00    +0.000 A 
ATOM     23  C   UNL     1       2.159   3.784  21.972  0.00  0.00    +0.000 A 
ATOM     24  C   UNL     1       2.530   4.420  20.785  0.00  0.00    +0.000 A 
ENDBRANCH   5  19
BRANCH   1  25
ATOM     25  C   UNL     1       5.187   4.167  19.024  0.00  0.00    +0.000 C 
ATOM     26  O   UNL     1       5.072   2.945  19.129  0.00  0.00    +0.000 OA
BRANCH  25  27
ATOM     27  O   UNL     1       6.138   4.895  19.679  0.00  0.00    +0.000 OA
BRANCH  27  29
ATOM     28  C   UNL     1       7.776   6.379  18.696  0.00  0.00    +0.000 C 
ATOM     29  C   UNL     1       7.419   4.944  19.037  0.00  0.00    +0.000 C 
ENDBRANCH  27  29
ENDBRANCH  25  27
ENDBRANCH   1  25
TORSDOF 6
ENDMDL
MODEL 6
REMARK VINA RESULT:      -7.1      2.320      5.663
REMARK  Name = 
REMARK  7 active torsions:
REMARK  status: ('A' for Active; 'I' for Inactive)
REMARK    1  A    between atoms: C_1  and  C_2
REMARK    2  A    between atoms: C_2  and  O_3
REMARK    3  A    between atoms: O_3  and  C_4
REMARK    4  A    between atoms: C_4  and  C_6
REMARK    5  A    between atoms: C_6  and  C_7
REMARK    6  A    between atoms: C_14  and  C_15
REMARK    7  A    between atoms: C_22  and  C_23
REMARK                            x       y       z     vdW  Elec       q    Type
REMARK                         _______ _______ _______ _____ _____    ______ ____
ROOT
ATOM      1  C   UNL     1       4.327   4.959  18.120  0.00  0.00    +0.000 C 
ATOM      2  N   UNL     1       4.089   6.378  18.633  0.00  0.00    +0.000 NA
ATOM      3  C   UNL     1       2.819   6.591  18.363  0.00  0.00    +0.000 C 
ATOM      4  N   UNL     1       2.087   5.504  17.930  0.00  0.00    +0.000 N 
ATOM      5  C   UNL     1       2.898   4.315  18.196  0.00  0.00    +0.000 C 
ATOM      6  H   UNL     1       1.110   5.454  18.199  0.00  0.00    +0.000 HD
ENDROOT
BRANCH   1   7
ATOM      7  C   UNL     1       4.958   5.096  16.713  0.00  0.00    +0.000 A 
ATOM      8  C   UNL     1       5.405   3.924  16.070  0.00  0.00    +0.000 A 
ATOM      9  C   UNL     1       6.015   3.975  14.813  0.00  0.00    +0.000 A 
ATOM     10  C   UNL     1       6.195   5.197  14.178  0.00  0.00    +0.000 A 
ATOM     11  C   UNL     1       5.760   6.366  14.795  0.00  0.00    +0.000 A 
ATOM     12  C   UNL     1       5.148   6.320  16.051  0.00  0.00    +0.000 A 
ENDBRANCH   1   7
BRANCH   3  13
ATOM     13  C   UNL     1       2.197   7.915  18.583  0.00  0.00    +0.000 A 
ATOM     14  C   UNL     1       2.284   8.900  17.594  0.00  0.00    +0.000 A 
ATOM     15  C   UNL     1       1.743  10.165  17.826  0.00  0.00    +0.000 A 
ATOM     16  C   UNL     1       1.106  10.441  19.037  0.00  0.00    +0.000 A 
ATOM     17  C   UNL     1       1.004   9.452  20.017  0.00  0.00    +0.000 A 
ATOM     18  C   UNL     1       1.553   8.189  19.793  0.00  0.00    +0.000 A 
ENDBRANCH   3  13
BRANCH   5  19
ATOM     19  C   UNL     1       2.486   3.674  19.525  0.00  0.00    +0.000 A 
ATOM     20  C   UNL     1       2.546   4.446  20.699  0.00  0.00    +0.000 A 
ATOM     21  C   UNL     1       2.132   3.923  21.928  0.00  0.00    +0.000 A 
ATOM     22  C   UNL     1       1.658   2.617  22.007  0.00  0.00    +0.000 A 
ATOM     23  C   UNL     1       1.593   1.834  20.860  0.00  0.00    +0.000 A 
ATOM     24  C   UNL     1       1.995   2.359  19.629  0.00  0.00    +0.000 A 
ENDBRANCH   5  19
BRANCH   1  25
ATOM     25  C   UNL     1       5.275   4.139  19.001  0.00  0.00    +0.000 C 
ATOM     26  O   UNL     1       5.188   2.915  19.114  0.00  0.00    +0.000 OA
BRANCH  25  27
ATOM     27  O   UNL     1       6.213   4.893  19.644  0.00  0.00    +0.000 OA
BRANCH  27  29
ATOM     28  C   UNL     1       7.800   6.438  18.672  0.00  0.00    +0.000 C 
ATOM     29  C   UNL     1       7.480   4.987  18.980  0.00  0.00    +0.000 C 
ENDBRANCH  27  29
ENDBRANCH  25  27
ENDBRANCH   1  25
TORSDOF 6
ENDMDL
MODEL 7
REMARK VINA RESULT:      -6.8      2.448      7.103
REMARK  Name = 
REMARK  7 active torsions:
REMARK  status: ('A' for Active; 'I' for Inactive)
REMARK    1  A    between atoms: C_1  and  C_2
REMARK    2  A    between atoms: C_2  and  O_3
REMARK    3  A    between atoms: O_3  and  C_4
REMARK    4  A    between atoms: C_4  and  C_6
REMARK    5  A    between atoms: C_6  and  C_7
REMARK    6  A    between atoms: C_14  and  C_15
REMARK    7  A    between atoms: C_22  and  C_23
REMARK                            x       y       z     vdW  Elec       q    Type
REMARK                         _______ _______ _______ _____ _____    ______ ____
ROOT
ATOM      1  C   UNL     1       3.452   4.833  18.327  0.00  0.00    +0.000 C 
ATOM      2  N   UNL     1       2.643   6.047  17.876  0.00  0.00    +0.000 NA
ATOM      3  C   UNL     1       2.713   6.861  18.907  0.00  0.00    +0.000 C 
ATOM      4  N   UNL     1       3.587   6.509  19.916  0.00  0.00    +0.000 N 
ATOM      5  C   UNL     1       4.438   5.443  19.385  0.00  0.00    +0.000 C 
ATOM      6  H   UNL     1       4.057   7.255  20.417  0.00  0.00    +0.000 HD
ENDROOT
BRANCH   1   7
ATOM      7  C   UNL     1       2.434   3.787  18.842  0.00  0.00    +0.000 A 
ATOM      8  C   UNL     1       2.568   3.327  20.169  0.00  0.00    +0.000 A 
ATOM      9  C   UNL     1       1.705   2.360  20.691  0.00  0.00    +0.000 A 
ATOM     10  C   UNL     1       0.697   1.828  19.897  0.00  0.00    +0.000 A 
ATOM     11  C   UNL     1       0.547   2.268  18.586  0.00  0.00    +0.000 A 
ATOM     12  C   UNL     1       1.406   3.238  18.060  0.00  0.00    +0.000 A 
ENDBRANCH   1   7
BRANCH   3  13
ATOM     13  C   UNL     1       1.946   8.125  18.945  0.00  0.00    +0.000 A 
ATOM     14  C   UNL     1       1.855   8.921  17.798  0.00  0.00    +0.000 A 
ATOM     15  C   UNL     1       1.177  10.139  17.851  0.00  0.00    +0.000 A 
ATOM     16  C   UNL     1       0.580  10.554  19.043  0.00  0.00    +0.000 A 
ATOM     17  C   UNL     1       0.655   9.752  20.182  0.00  0.00    +0.000 A 
ATOM     18  C   UNL     1       1.342   8.537  20.136  0.00  0.00    +0.000 A 
ENDBRANCH   3  13
BRANCH   5  19
ATOM     19  C   UNL     1       5.757   6.022  18.864  0.00  0.00    +0.000 A 
ATOM     20  C   UNL     1       5.716   7.088  17.948  0.00  0.00    +0.000 A 
ATOM     21  C   UNL     1       6.892   7.685  17.483  0.00  0.00    +0.000 A 
ATOM     22  C   UNL     1       8.130   7.223  17.919  0.00  0.00    +0.000 A 
ATOM     23  C   UNL     1       8.194   6.167  18.822  0.00  0.00    +0.000 A 
ATOM     24  C   UNL     1       7.020   5.577  19.296  0.00  0.00    +0.000 A 
ENDBRANCH   5  19
BRANCH   1  25
ATOM     25  C   UNL     1       4.279   4.196  17.206  0.00  0.00    +0.000 C 
ATOM     26  O   UNL     1       4.717   3.046  17.271  0.00  0.00    +0.000 OA
BRANCH  25  27
ATOM     27  O   UNL     1       4.484   5.023  16.140  0.00  0.00    +0.000 OA
BRANCH  27  29
ATOM     28  C   UNL     1       6.708   4.828  15.212  0.00  0.00    +0.000 C 
ATOM     29  C   UNL     1       5.244   4.457  15.065  0.00  0.00    +0.000 C 
ENDBRANCH  27  29
ENDBRANCH  25  27
ENDBRANCH   1  25
TORSDOF 6
ENDMDL
MODEL 8
REMARK VINA RESULT:      -6.8      7.549     10.801
REMARK  Name = 
REMARK  7 active torsions:
REMARK  status: ('A' for Active; 'I' for Inactive)
REMARK    1  A    between atoms: C_1  and  C_2
REMARK    2  A    between atoms: C_2  and  O_3
REMARK    3  A    between atoms: O_3  and  C_4
REMARK    4  A    between atoms: C_4  and  C_6
REMARK    5  A    between atoms: C_6  and  C_7
REMARK    6  A    between atoms: C_14  and  C_15
REMARK    7  A    between atoms: C_22  and  C_23
REMARK                            x       y       z     vdW  Elec       q    Type
REMARK                         _______ _______ _______ _____ _____    ______ ____
ROOT
ATOM      1  C   UNL     1       0.180  13.189  20.981  0.00  0.00    +0.000 C 
ATOM      2  N   UNL     1       0.954  11.874  21.013  0.00  0.00    +0.000 NA
ATOM      3  C   UNL     1       0.765  11.378  19.810  0.00  0.00    +0.000 C 
ATOM      4  N   UNL     1       0.159  12.207  18.887  0.00  0.00    +0.000 N 
ATOM      5  C   UNL     1       0.176  13.556  19.455  0.00  0.00    +0.000 C 
ATOM      6  H   UNL     1       0.443  12.121  17.917  0.00  0.00    +0.000 HD
ENDROOT
BRANCH   1   7
ATOM      7  C   UNL     1      -1.195  12.912  21.636  0.00  0.00    +0.000 A 
ATOM      8  C   UNL     1      -2.347  13.421  21.002  0.00  0.00    +0.000 A 
ATOM      9  C   UNL     1      -3.618  13.238  21.554  0.00  0.00    +0.000 A 
ATOM     10  C   UNL     1      -3.762  12.549  22.752  0.00  0.00    +0.000 A 
ATOM     11  C   UNL     1      -2.638  12.039  23.394  0.00  0.00    +0.000 A 
ATOM     12  C   UNL     1      -1.364  12.217  22.844  0.00  0.00    +0.000 A 
ENDBRANCH   1   7
BRANCH   3  13
ATOM     13  C   UNL     1       1.245  10.026  19.449  0.00  0.00    +0.000 A 
ATOM     14  C   UNL     1       1.272   9.015  20.414  0.00  0.00    +0.000 A 
ATOM     15  C   UNL     1       1.775   7.756  20.085  0.00  0.00    +0.000 A 
ATOM     16  C   UNL     1       2.239   7.505  18.793  0.00  0.00    +0.000 A 
ATOM     17  C   UNL     1       2.196   8.510  17.825  0.00  0.00    +0.000 A 
ATOM     18  C   UNL     1       1.703   9.774  18.153  0.00  0.00    +0.000 A 
ENDBRANCH   3  13
BRANCH   5  19
ATOM     19  C   UNL     1       1.374  14.346  18.919  0.00  0.00    +0.000 A 
ATOM     20  C   UNL     1       2.542  13.649  18.561  0.00  0.00    +0.000 A 
ATOM     21  C   UNL     1       3.643  14.318  18.018  0.00  0.00    +0.000 A 
ATOM     22  C   UNL     1       3.601  15.697  17.832  0.00  0.00    +0.000 A 
ATOM     23  C   UNL     1       2.458  16.407  18.182  0.00  0.00    +0.000 A 
ATOM     24  C   UNL     1       1.352  15.738  18.714  0.00  0.00    +0.000 A 
ENDBRANCH   5  19
BRANCH   1  25
ATOM     25  C   UNL     1       0.865  14.324  21.749  0.00  0.00    +0.000 C 
ATOM     26  O   UNL     1       0.285  15.367  22.057  0.00  0.00    +0.000 OA
BRANCH  25  27
ATOM     27  O   UNL     1       2.172  14.068  22.051  0.00  0.00    +0.000 OA
BRANCH  27  29
ATOM     28  C   UNL     1       4.454  14.760  21.649  0.00  0.00    +0.000 C 
ATOM     29  C   UNL     1       3.045  15.204  21.996  0.00  0.00    +0.000 C 
ENDBRANCH  27  29
ENDBRANCH  25  27
ENDBRANCH   1  25
TORSDOF 6
ENDMDL
MODEL 9
REMARK VINA RESULT:      -6.6      7.647     10.909
REMARK  Name = 
REMARK  7 active torsions:
REMARK  status: ('A' for Active; 'I' for Inactive)
REMARK    1  A    between atoms: C_1  and  C_2
REMARK    2  A    between atoms: C_2  and  O_3
REMARK    3  A    between atoms: O_3  and  C_4
REMARK    4  A    between atoms: C_4  and  C_6
REMARK    5  A    between atoms: C_6  and  C_7
REMARK    6  A    between atoms: C_14  and  C_15
REMARK    7  A    between atoms: C_22  and  C_23
REMARK                            x       y       z     vdW  Elec       q    Type
REMARK                         _______ _______ _______ _____ _____    ______ ____
ROOT
ATOM      1  C   UNL     1       0.171  13.240  20.955  0.00  0.00    +0.000 C 
ATOM      2  N   UNL     1       1.001  11.959  20.984  0.00  0.00    +0.000 NA
ATOM      3  C   UNL     1       0.798  11.437  19.794  0.00  0.00    +0.000 C 
ATOM      4  N   UNL     1       0.129  12.224  18.878  0.00  0.00    +0.000 N 
ATOM      5  C   UNL     1       0.106  13.582  19.425  0.00  0.00    +0.000 C 
ATOM      6  H   UNL     1       0.387  12.135  17.901  0.00  0.00    +0.000 HD
ENDROOT
BRANCH   1   7
ATOM      7  C   UNL     1      -1.170  12.917  21.657  0.00  0.00    +0.000 A 
ATOM      8  C   UNL     1      -2.350  13.476  21.124  0.00  0.00    +0.000 A 
ATOM      9  C   UNL     1      -3.592  13.253  21.724  0.00  0.00    +0.000 A 
ATOM     10  C   UNL     1      -3.679  12.474  22.871  0.00  0.00    +0.000 A 
ATOM     11  C   UNL     1      -2.527  11.912  23.413  0.00  0.00    +0.000 A 
ATOM     12  C   UNL     1      -1.282  12.130  22.815  0.00  0.00    +0.000 A 
ENDBRANCH   1   7
BRANCH   3  13
ATOM     13  C   UNL     1       1.323  10.100  19.439  0.00  0.00    +0.000 A 
ATOM     14  C   UNL     1       1.806   9.861  18.149  0.00  0.00    +0.000 A 
ATOM     15  C   UNL     1       2.251   8.586  17.800  0.00  0.00    +0.000 A 
ATOM     16  C   UNL     1       2.225   7.555  18.741  0.00  0.00    +0.000 A 
ATOM     17  C   UNL     1       1.759   7.799  20.034  0.00  0.00    +0.000 A 
ATOM     18  C   UNL     1       1.303   9.071  20.384  0.00  0.00    +0.000 A 
ENDBRANCH   3  13
BRANCH   5  19
ATOM     19  C   UNL     1       1.253  14.412  18.841  0.00  0.00    +0.000 A 
ATOM     20  C   UNL     1       1.099  15.807  18.740  0.00  0.00    +0.000 A 
ATOM     21  C   UNL     1       2.136  16.614  18.263  0.00  0.00    +0.000 A 
ATOM     22  C   UNL     1       3.342  16.043  17.871  0.00  0.00    +0.000 A 
ATOM     23  C   UNL     1       3.516  14.666  17.958  0.00  0.00    +0.000 A 
ATOM     24  C   UNL     1       2.484  13.859  18.446  0.00  0.00    +0.000 A 
ENDBRANCH   5  19
BRANCH   1  25
ATOM     25  C   UNL     1       0.831  14.416  21.685  0.00  0.00    +0.000 C 
ATOM     26  O   UNL     1       0.219  15.443  21.984  0.00  0.00    +0.000 OA
BRANCH  25  27
ATOM     27  O   UNL     1       2.152  14.214  21.964  0.00  0.00    +0.000 OA
BRANCH  27  29
ATOM     28  C   UNL     1       4.287  15.238  21.474  0.00  0.00    +0.000 C 
ATOM     29  C   UNL     1       2.929  15.406  22.131  0.00  0.00    +0.000 C 
ENDBRANCH  27  29
ENDBRANCH  25  27
ENDBRANCH   1  25
TORSDOF 6
ENDMDL
