MODEL 1
REMARK VINA RESULT:      -7.8      0.000      0.000
REMARK  Name = 
REMARK  8 active torsions:
REMARK  status: ('A' for Active; 'I' for Inactive)
REMARK    1  A    between atoms: C_1  and  O_2
REMARK    2  A    between atoms: O_2  and  C_3
REMARK    3  A    between atoms: C_6  and  N_7
REMARK    4  A    between atoms: N_10  and  S_11
REMARK    5  A    between atoms: S_11  and  C_14
REMARK    6  A    between atoms: C_14  and  C_15
REMARK    7  A    between atoms: C_15  and  N_16
REMARK    8  A    between atoms: C_17  and  C_19
REMARK                            x       y       z     vdW  Elec       q    Type
REMARK                         _______ _______ _______ _____ _____    ______ ____
ROOT
ATOM      1  S   UNL     1       0.770   9.880  19.073  0.00  0.00    +0.000 S 
ATOM      2  O   UNL     1       0.645   9.035  20.254  0.00  0.00    +0.000 OA
ATOM      3  O   UNL     1      -0.125   9.692  17.968  0.00  0.00    +0.000 OA
ENDROOT
BRANCH   1   7
ATOM      4  N   UNL     1      -1.863  12.015  20.828  0.00  0.00    +0.000 N 
ATOM      5  C   UNL     1      -1.759  11.899  19.368  0.00  0.00    +0.000 C 
ATOM      6  C   UNL     1      -0.354  12.322  18.917  0.00  0.00    +0.000 C 
ATOM      7  N   UNL     1       0.706  11.504  19.604  0.00  0.00    +0.000 NA
ATOM      8  C   UNL     1       0.579  11.727  21.097  0.00  0.00    +0.000 C 
ATOM      9  C   UNL     1      -0.822  11.350  21.632  0.00  0.00    +0.000 C 
BRANCH   4  13
ATOM     10  C   UNL     1      -5.489  13.377  22.433  0.00  0.00    +0.000 A 
ATOM     11  C   UNL     1      -4.446  13.000  23.269  0.00  0.00    +0.000 A 
ATOM     12  C   UNL     1      -3.213  12.645  22.729  0.00  0.00    +0.000 A 
ATOM     13  C   UNL     1      -3.003  12.587  21.343  0.00  0.00    +0.000 A 
ATOM     14  C   UNL     1      -4.050  13.003  20.516  0.00  0.00    +0.000 A 
ATOM     15  C   UNL     1      -5.290  13.380  21.052  0.00  0.00    +0.000 A 
BRANCH  10  17
ATOM     16  C   UNL     1      -7.153  12.713  23.964  0.00  0.00    +0.000 C 
ATOM     17  O   UNL     1      -6.653  13.699  23.071  0.00  0.00    +0.000 OA
ENDBRANCH  10  17
ENDBRANCH   4  13
ENDBRANCH   1   7
BRANCH   1  18
ATOM     18  C   UNL     1       2.439   9.728  18.468  0.00  0.00    +0.000 C 
BRANCH  18  19
ATOM     19  C   UNL     1       2.535   8.592  17.471  0.00  0.00    +0.000 C 
BRANCH  19  20
ATOM     20  N   UNL     1       2.196   7.303  18.047  0.00  0.00    +0.000 N 
ATOM     21  C   UNL     1       3.078   6.245  18.015  0.00  0.00    +0.000 C 
ATOM     22  O   UNL     1       4.163   6.326  17.440  0.00  0.00    +0.000 OA
ATOM     23  H   UNL     1       1.288   7.197  18.480  0.00  0.00    +0.000 HD
BRANCH  21  24
ATOM     24  C   UNL     1       2.622   4.977  18.749  0.00  0.00    +0.000 C 
ATOM     25  C   UNL     1       1.652   4.136  17.886  0.00  0.00    +0.000 C 
ATOM     26  C   UNL     1       1.209   2.871  18.650  0.00  0.00    +0.000 C 
ATOM     27  C   UNL     1       2.445   2.021  18.982  0.00  0.00    +0.000 C 
ATOM     28  C   UNL     1       3.428   2.832  19.841  0.00  0.00    +0.000 C 
ATOM     29  C   UNL     1       2.732   3.251  21.146  0.00  0.00    +0.000 C 
ATOM     30  C   UNL     1       1.482   4.092  20.834  0.00  0.00    +0.000 C 
ATOM     31  C   UNL     1       0.515   3.279  19.960  0.00  0.00    +0.000 C 
ATOM     32  C   UNL     1       1.910   5.355  20.070  0.00  0.00    +0.000 C 
ATOM     33  C   UNL     1       3.855   4.093  19.072  0.00  0.00    +0.000 C 
ENDBRANCH  21  24
ENDBRANCH  19  20
ENDBRANCH  18  19
ENDBRANCH   1  18
TORSDOF 7
ENDMDL
MODEL 2
REMARK VINA RESULT:      -7.7      1.595      2.590
REMARK  Name = 
REMARK  8 active torsions:
REMARK  status: ('A' for Active; 'I' for Inactive)
REMARK    1  A    between atoms: C_1  and  O_2
REMARK    2  A    between atoms: O_2  and  C_3
REMARK    3  A    between atoms: C_6  and  N_7
REMARK    4  A    between atoms: N_10  and  S_11
REMARK    5  A    between atoms: S_11  and  C_14
REMARK    6  A    between atoms: C_14  and  C_15
REMARK    7  A    between atoms: C_15  and  N_16
REMARK    8  A    between atoms: C_17  and  C_19
REMARK                            x       y       z     vdW  Elec       q    Type
REMARK                         _______ _______ _______ _____ _____    ______ ____
ROOT
ATOM      1  S   UNL     1       1.167   9.814  19.734  0.00  0.00    +0.000 S 
ATOM      2  O   UNL     1       1.599  11.200  19.856  0.00  0.00    +0.000 OA
ATOM      3  O   UNL     1       1.829   8.794  20.494  0.00  0.00    +0.000 OA
ENDROOT
BRANCH   1   7
ATOM      4  N   UNL     1      -1.200  11.939  21.843  0.00  0.00    +0.000 N 
ATOM      5  C   UNL     1      -0.501  10.756  22.358  0.00  0.00    +0.000 C 
ATOM      6  C   UNL     1      -0.850   9.535  21.496  0.00  0.00    +0.000 C 
ATOM      7  N   UNL     1      -0.513   9.778  20.050  0.00  0.00    +0.000 NA
ATOM      8  C   UNL     1      -1.321  10.967  19.571  0.00  0.00    +0.000 C 
ATOM      9  C   UNL     1      -1.048  12.239  20.408  0.00  0.00    +0.000 C 
BRANCH   4  13
ATOM     10  C   UNL     1      -3.155  14.709  24.309  0.00  0.00    +0.000 A 
ATOM     11  C   UNL     1      -3.859  13.662  23.729  0.00  0.00    +0.000 A 
ATOM     12  C   UNL     1      -3.185  12.691  22.994  0.00  0.00    +0.000 A 
ATOM     13  C   UNL     1      -1.805  12.771  22.756  0.00  0.00    +0.000 A 
ATOM     14  C   UNL     1      -1.105  13.810  23.375  0.00  0.00    +0.000 A 
ATOM     15  C   UNL     1      -1.774  14.782  24.133  0.00  0.00    +0.000 A 
BRANCH  10  17
ATOM     16  C   UNL     1      -5.102  16.038  24.343  0.00  0.00    +0.000 C 
ATOM     17  O   UNL     1      -3.919  15.605  25.001  0.00  0.00    +0.000 OA
ENDBRANCH  10  17
ENDBRANCH   4  13
ENDBRANCH   1   7
BRANCH   1  18
ATOM     18  C   UNL     1       1.254   9.366  18.011  0.00  0.00    +0.000 C 
BRANCH  18  19
ATOM     19  C   UNL     1       2.435   8.449  17.765  0.00  0.00    +0.000 C 
BRANCH  19  20
ATOM     20  N   UNL     1       2.199   7.088  18.216  0.00  0.00    +0.000 N 
ATOM     21  C   UNL     1       3.165   6.113  18.098  0.00  0.00    +0.000 C 
ATOM     22  O   UNL     1       4.244   6.335  17.549  0.00  0.00    +0.000 OA
ATOM     23  H   UNL     1       1.300   6.870  18.623  0.00  0.00    +0.000 HD
BRANCH  21  24
ATOM     24  C   UNL     1       2.810   4.749  18.705  0.00  0.00    +0.000 C 
ATOM     25  C   UNL     1       4.047   4.062  19.329  0.00  0.00    +0.000 C 
ATOM     26  C   UNL     1       3.660   2.694  19.927  0.00  0.00    +0.000 C 
ATOM     27  C   UNL     1       2.600   2.900  21.021  0.00  0.00    +0.000 C 
ATOM     28  C   UNL     1       1.357   3.583  20.429  0.00  0.00    +0.000 C 
ATOM     29  C   UNL     1       0.775   2.696  19.317  0.00  0.00    +0.000 C 
ATOM     30  C   UNL     1       1.825   2.463  18.218  0.00  0.00    +0.000 C 
ATOM     31  C   UNL     1       3.071   1.798  18.824  0.00  0.00    +0.000 C 
ATOM     32  C   UNL     1       2.223   3.820  17.615  0.00  0.00    +0.000 C 
ATOM     33  C   UNL     1       1.758   4.940  19.830  0.00  0.00    +0.000 C 
ENDBRANCH  21  24
ENDBRANCH  19  20
ENDBRANCH  18  19
ENDBRANCH   1  18
TORSDOF 7
ENDMDL
MODEL 3
REMARK VINA RESULT:      -7.7      3.620      5.942
REMARK  Name = 
REMARK  8 active torsions:
REMARK  status: ('A' for Active; 'I' for Inactive)
REMARK    1  A    between atoms: C_1  and  O_2
REMARK    2  A    between atoms: O_2  and  C_3
REMARK    3  A    between atoms: C_6  and  N_7
REMARK    4  A    between atoms: N_10  and  S_11
REMARK    5  A    between atoms: S_11  and  C_14
REMARK    6  A    between atoms: C_14  and  C_15
REMARK    7  A    between atoms: C_15  and  N_16
REMARK    8  A    between atoms: C_17  and  C_19
REMARK                            x       y       z     vdW  Elec       q    Type
REMARK                         _______ _______ _______ _____ _____    ______ ____
ROOT
ATOM      1  S   UNL     1       0.222  10.442  19.153  0.00  0.00    +0.000 S 
ATOM      2  O   UNL     1      -0.835  10.008  18.248  0.00  0.00    +0.000 OA
ATOM      3  O   UNL     1       1.577  10.501  18.686  0.00  0.00    +0.000 OA
ENDROOT
BRANCH   1   7
ATOM      4  N   UNL     1       1.899  13.863  19.388  0.00  0.00    +0.000 N 
ATOM      5  C   UNL     1       2.018  12.832  20.425  0.00  0.00    +0.000 C 
ATOM      6  C   UNL     1       0.620  12.434  20.920  0.00  0.00    +0.000 C 
ATOM      7  N   UNL     1      -0.244  11.962  19.782  0.00  0.00    +0.000 NA
ATOM      8  C   UNL     1      -0.376  13.098  18.789  0.00  0.00    +0.000 C 
ATOM      9  C   UNL     1       0.995  13.580  18.259  0.00  0.00    +0.000 C 
BRANCH   4  13
ATOM     10  C   UNL     1       4.800  16.890  19.425  0.00  0.00    +0.000 A 
ATOM     11  C   UNL     1       4.025  16.669  18.293  0.00  0.00    +0.000 A 
ATOM     12  C   UNL     1       2.998  15.731  18.323  0.00  0.00    +0.000 A 
ATOM     13  C   UNL     1       2.757  14.937  19.454  0.00  0.00    +0.000 A 
ATOM     14  C   UNL     1       3.520  15.194  20.595  0.00  0.00    +0.000 A 
ATOM     15  C   UNL     1       4.544  16.151  20.580  0.00  0.00    +0.000 A 
BRANCH  10  17
ATOM     16  C   UNL     1       7.101  17.382  19.560  0.00  0.00    +0.000 C 
ATOM     17  O   UNL     1       5.781  17.828  19.279  0.00  0.00    +0.000 OA
ENDBRANCH  10  17
ENDBRANCH   4  13
ENDBRANCH   1   7
BRANCH   1  18
ATOM     18  C   UNL     1       0.176   9.389  20.590  0.00  0.00    +0.000 C 
BRANCH  18  19
ATOM     19  C   UNL     1       1.548   8.807  20.859  0.00  0.00    +0.000 C 
BRANCH  19  20
ATOM     20  N   UNL     1       1.605   7.371  20.642  0.00  0.00    +0.000 N 
ATOM     21  C   UNL     1       2.203   6.836  19.521  0.00  0.00    +0.000 C 
ATOM     22  O   UNL     1       2.655   7.550  18.627  0.00  0.00    +0.000 OA
ATOM     23  H   UNL     1       1.194   6.766  21.339  0.00  0.00    +0.000 HD
BRANCH  21  24
ATOM     24  C   UNL     1       2.276   5.304  19.475  0.00  0.00    +0.000 C 
ATOM     25  C   UNL     1       3.700   4.790  19.793  0.00  0.00    +0.000 C 
ATOM     26  C   UNL     1       3.742   3.249  19.735  0.00  0.00    +0.000 C 
ATOM     27  C   UNL     1       2.762   2.676  20.772  0.00  0.00    +0.000 C 
ATOM     28  C   UNL     1       1.337   3.171  20.479  0.00  0.00    +0.000 C 
ATOM     29  C   UNL     1       0.919   2.709  19.074  0.00  0.00    +0.000 C 
ATOM     30  C   UNL     1       1.897   3.260  18.022  0.00  0.00    +0.000 C 
ATOM     31  C   UNL     1       3.322   2.775  18.334  0.00  0.00    +0.000 C 
ATOM     32  C   UNL     1       1.867   4.796  18.071  0.00  0.00    +0.000 C 
ATOM     33  C   UNL     1       1.310   4.707  20.532  0.00  0.00    +0.000 C 
ENDBRANCH  21  24
ENDBRANCH  19  20
ENDBRANCH  18  19
ENDBRANCH   1  18
TORSDOF 7
ENDMDL
MODEL 4
REMARK VINA RESULT:      -7.6      1.160      1.796
REMARK  Name = 
REMARK  8 active torsions:
REMARK  status: ('A' for Active; 'I' for Inactive)
REMARK    1  A    between atoms: C_1  and  O_2
REMARK    2  A    between atoms: O_2  and  C_3
REMARK    3  A    between atoms: C_6  and  N_7
REMARK    4  A    between atoms: N_10  and  S_11
REMARK    5  A    between atoms: S_11  and  C_14
REMARK    6  A    between atoms: C_14  and  C_15
REMARK    7  A    between atoms: C_15  and  N_16
REMARK    8  A    between atoms: C_17  and  C_19
REMARK                            x       y       z     vdW  Elec       q    Type
REMARK                         _______ _______ _______ _____ _____    ______ ____
ROOT
ATOM      1  S   UNL     1       0.245   9.977  19.298  0.00  0.00    +0.000 S 
ATOM      2  O   UNL     1       0.948   9.323  20.393  0.00  0.00    +0.000 OA
ATOM      3  O   UNL     1      -1.140   9.682  19.066  0.00  0.00    +0.000 OA
ENDROOT
BRANCH   1   7
ATOM      4  N   UNL     1      -1.470  12.657  21.406  0.00  0.00    +0.000 N 
ATOM      5  C   UNL     1      -1.904  12.294  20.052  0.00  0.00    +0.000 C 
ATOM      6  C   UNL     1      -0.737  12.474  19.070  0.00  0.00    +0.000 C 
ATOM      7  N   UNL     1       0.457  11.662  19.494  0.00  0.00    +0.000 NA
ATOM      8  C   UNL     1       0.888  12.138  20.866  0.00  0.00    +0.000 C 
ATOM      9  C   UNL     1      -0.244  12.016  21.914  0.00  0.00    +0.000 C 
BRANCH   4  13
ATOM     10  C   UNL     1      -4.365  14.870  23.480  0.00  0.00    +0.000 A 
ATOM     11  C   UNL     1      -4.071  13.566  23.856  0.00  0.00    +0.000 A 
ATOM     12  C   UNL     1      -3.040  12.874  23.228  0.00  0.00    +0.000 A 
ATOM     13  C   UNL     1      -2.319  13.432  22.162  0.00  0.00    +0.000 A 
ATOM     14  C   UNL     1      -2.602  14.757  21.818  0.00  0.00    +0.000 A 
ATOM     15  C   UNL     1      -3.626  15.468  22.459  0.00  0.00    +0.000 A 
BRANCH  10  17
ATOM     16  C   UNL     1      -6.667  15.373  23.524  0.00  0.00    +0.000 C 
ATOM     17  O   UNL     1      -5.398  15.449  24.160  0.00  0.00    +0.000 OA
ENDBRANCH  10  17
ENDBRANCH   4  13
ENDBRANCH   1   7
BRANCH   1  18
ATOM     18  C   UNL     1       1.142   9.639  17.795  0.00  0.00    +0.000 C 
BRANCH  18  19
ATOM     19  C   UNL     1       2.399   8.850  18.100  0.00  0.00    +0.000 C 
BRANCH  19  20
ATOM     20  N   UNL     1       2.125   7.478  18.492  0.00  0.00    +0.000 N 
ATOM     21  C   UNL     1       3.065   6.483  18.333  0.00  0.00    +0.000 C 
ATOM     22  O   UNL     1       4.150   6.699  17.794  0.00  0.00    +0.000 OA
ATOM     23  H   UNL     1       1.220   7.267  18.890  0.00  0.00    +0.000 HD
BRANCH  21  24
ATOM     24  C   UNL     1       2.671   5.105  18.881  0.00  0.00    +0.000 C 
ATOM     25  C   UNL     1       3.913   4.223  19.154  0.00  0.00    +0.000 C 
ATOM     26  C   UNL     1       3.486   2.845  19.700  0.00  0.00    +0.000 C 
ATOM     27  C   UNL     1       2.713   3.037  21.014  0.00  0.00    +0.000 C 
ATOM     28  C   UNL     1       1.472   3.911  20.773  0.00  0.00    +0.000 C 
ATOM     29  C   UNL     1       0.562   3.222  19.743  0.00  0.00    +0.000 C 
ATOM     30  C   UNL     1       1.322   3.006  18.424  0.00  0.00    +0.000 C 
ATOM     31  C   UNL     1       2.571   2.148  18.679  0.00  0.00    +0.000 C 
ATOM     32  C   UNL     1       1.756   4.373  17.869  0.00  0.00    +0.000 C 
ATOM     33  C   UNL     1       1.910   5.277  20.222  0.00  0.00    +0.000 C 
ENDBRANCH  21  24
ENDBRANCH  19  20
ENDBRANCH  18  19
ENDBRANCH   1  18
TORSDOF 7
ENDMDL
MODEL 5
REMARK VINA RESULT:      -7.6      1.138      1.759
REMARK  Name = 
REMARK  8 active torsions:
REMARK  status: ('A' for Active; 'I' for Inactive)
REMARK    1  A    between atoms: C_1  and  O_2
REMARK    2  A    between atoms: O_2  and  C_3
REMARK    3  A    between atoms: C_6  and  N_7
REMARK    4  A    between atoms: N_10  and  S_11
REMARK    5  A    between atoms: S_11  and  C_14
REMARK    6  A    between atoms: C_14  and  C_15
REMARK    7  A    between atoms: C_15  and  N_16
REMARK    8  A    between atoms: C_17  and  C_19
REMARK                            x       y       z     vdW  Elec       q    Type
REMARK                         _______ _______ _______ _____ _____    ______ ____
ROOT
ATOM      1  S   UNL     1       0.426  10.003  19.513  0.00  0.00    +0.000 S 
ATOM      2  O   UNL     1       1.279   9.442  20.554  0.00  0.00    +0.000 OA
ATOM      3  O   UNL     1      -0.956   9.625  19.448  0.00  0.00    +0.000 OA
ENDROOT
BRANCH   1   7
ATOM      4  N   UNL     1      -1.554  12.743  21.285  0.00  0.00    +0.000 N 
ATOM      5  C   UNL     1      -1.859  12.274  19.928  0.00  0.00    +0.000 C 
ATOM      6  C   UNL     1      -0.621  12.437  19.035  0.00  0.00    +0.000 C 
ATOM      7  N   UNL     1       0.562  11.704  19.610  0.00  0.00    +0.000 NA
ATOM      8  C   UNL     1       0.858  12.286  20.977  0.00  0.00    +0.000 C 
ATOM      9  C   UNL     1      -0.353  12.187  21.934  0.00  0.00    +0.000 C 
BRANCH   4  13
ATOM     10  C   UNL     1      -4.607  14.796  23.294  0.00  0.00    +0.000 A 
ATOM     11  C   UNL     1      -3.511  14.304  23.992  0.00  0.00    +0.000 A 
ATOM     12  C   UNL     1      -2.455  13.713  23.304  0.00  0.00    +0.000 A 
ATOM     13  C   UNL     1      -2.490  13.531  21.914  0.00  0.00    +0.000 A 
ATOM     14  C   UNL     1      -3.582  14.062  21.222  0.00  0.00    +0.000 A 
ATOM     15  C   UNL     1      -4.641  14.677  21.905  0.00  0.00    +0.000 A 
BRANCH  10  17
ATOM     16  C   UNL     1      -6.227  16.493  23.524  0.00  0.00    +0.000 C 
ATOM     17  O   UNL     1      -5.585  15.350  24.071  0.00  0.00    +0.000 OA
ENDBRANCH  10  17
ENDBRANCH   4  13
ENDBRANCH   1   7
BRANCH   1  18
ATOM     18  C   UNL     1       1.176   9.636  17.939  0.00  0.00    +0.000 C 
BRANCH  18  19
ATOM     19  C   UNL     1       2.425   8.801  18.133  0.00  0.00    +0.000 C 
BRANCH  19  20
ATOM     20  N   UNL     1       2.135   7.433  18.530  0.00  0.00    +0.000 N 
ATOM     21  C   UNL     1       3.073   6.432  18.398  0.00  0.00    +0.000 C 
ATOM     22  O   UNL     1       4.170   6.638  17.880  0.00  0.00    +0.000 OA
ATOM     23  H   UNL     1       1.222   7.230  18.910  0.00  0.00    +0.000 HD
BRANCH  21  24
ATOM     24  C   UNL     1       2.661   5.060  18.948  0.00  0.00    +0.000 C 
ATOM     25  C   UNL     1       1.781   5.194  20.214  0.00  0.00    +0.000 C 
ATOM     26  C   UNL     1       1.386   3.801  20.745  0.00  0.00    +0.000 C 
ATOM     27  C   UNL     1       0.591   3.052  19.663  0.00  0.00    +0.000 C 
ATOM     28  C   UNL     1       1.442   2.905  18.392  0.00  0.00    +0.000 C 
ATOM     29  C   UNL     1       2.716   2.114  18.726  0.00  0.00    +0.000 C 
ATOM     30  C   UNL     1       3.520   2.839  19.819  0.00  0.00    +0.000 C 
ATOM     31  C   UNL     1       2.654   2.998  21.079  0.00  0.00    +0.000 C 
ATOM     32  C   UNL     1       3.918   4.230  19.303  0.00  0.00    +0.000 C 
ATOM     33  C   UNL     1       1.836   4.298  17.878  0.00  0.00    +0.000 C 
ENDBRANCH  21  24
ENDBRANCH  19  20
ENDBRANCH  18  19
ENDBRANCH   1  18
TORSDOF 7
ENDMDL
MODEL 6
REMARK VINA RESULT:      -7.5      1.375      1.722
REMARK  Name = 
REMARK  8 active torsions:
REMARK  status: ('A' for Active; 'I' for Inactive)
REMARK    1  A    between atoms: C_1  and  O_2
REMARK    2  A    between atoms: O_2  and  C_3
REMARK    3  A    between atoms: C_6  and  N_7
REMARK    4  A    between atoms: N_10  and  S_11
REMARK    5  A    between atoms: S_11  and  C_14
REMARK    6  A    between atoms: C_14  and  C_15
REMARK    7  A    between atoms: C_15  and  N_16
REMARK    8  A    between atoms: C_17  and  C_19
REMARK                            x       y       z     vdW  Elec       q    Type
REMARK                         _______ _______ _______ _____ _____    ______ ____
ROOT
ATOM      1  S   UNL     1       0.232   9.920  19.160  0.00  0.00    +0.000 S 
ATOM      2  O   UNL     1       0.765   9.156  20.280  0.00  0.00    +0.000 OA
ATOM      3  O   UNL     1      -1.130   9.727  18.752  0.00  0.00    +0.000 OA
ENDROOT
BRANCH   1   7
ATOM      4  N   UNL     1      -1.505  12.532  21.335  0.00  0.00    +0.000 N 
ATOM      5  C   UNL     1      -1.853  12.290  19.929  0.00  0.00    +0.000 C 
ATOM      6  C   UNL     1      -0.608  12.476  19.051  0.00  0.00    +0.000 C 
ATOM      7  N   UNL     1       0.510  11.573  19.497  0.00  0.00    +0.000 NA
ATOM      8  C   UNL     1       0.859  11.926  20.928  0.00  0.00    +0.000 C 
ATOM      9  C   UNL     1      -0.353  11.791  21.880  0.00  0.00    +0.000 C 
BRANCH   4  13
ATOM     10  C   UNL     1      -3.810  15.058  23.760  0.00  0.00    +0.000 A 
ATOM     11  C   UNL     1      -3.439  15.454  22.481  0.00  0.00    +0.000 A 
ATOM     12  C   UNL     1      -2.761  14.570  21.647  0.00  0.00    +0.000 A 
ATOM     13  C   UNL     1      -2.370  13.296  22.084  0.00  0.00    +0.000 A 
ATOM     14  C   UNL     1      -2.779  12.899  23.359  0.00  0.00    +0.000 A 
ATOM     15  C   UNL     1      -3.480  13.776  24.199  0.00  0.00    +0.000 A 
BRANCH  10  17
ATOM     16  C   UNL     1      -4.104  17.353  24.211  0.00  0.00    +0.000 C 
ATOM     17  O   UNL     1      -4.465  16.008  24.491  0.00  0.00    +0.000 OA
ENDBRANCH  10  17
ENDBRANCH   4  13
ENDBRANCH   1   7
BRANCH   1  18
ATOM     18  C   UNL     1       1.280   9.623  17.749  0.00  0.00    +0.000 C 
BRANCH  18  19
ATOM     19  C   UNL     1       2.509   8.840  18.163  0.00  0.00    +0.000 C 
BRANCH  19  20
ATOM     20  N   UNL     1       2.203   7.478  18.565  0.00  0.00    +0.000 N 
ATOM     21  C   UNL     1       3.009   6.421  18.200  0.00  0.00    +0.000 C 
ATOM     22  O   UNL     1       3.984   6.576  17.465  0.00  0.00    +0.000 OA
ATOM     23  H   UNL     1       1.378   7.320  19.126  0.00  0.00    +0.000 HD
BRANCH  21  24
ATOM     24  C   UNL     1       2.616   5.055  18.778  0.00  0.00    +0.000 C 
ATOM     25  C   UNL     1       1.744   4.247  17.789  0.00  0.00    +0.000 C 
ATOM     26  C   UNL     1       1.363   2.882  18.398  0.00  0.00    +0.000 C 
ATOM     27  C   UNL     1       2.642   2.086  18.700  0.00  0.00    +0.000 C 
ATOM     28  C   UNL     1       3.529   2.867  19.682  0.00  0.00    +0.000 C 
ATOM     29  C   UNL     1       2.753   3.099  20.989  0.00  0.00    +0.000 C 
ATOM     30  C   UNL     1       1.460   3.882  20.706  0.00  0.00    +0.000 C 
ATOM     31  C   UNL     1       0.589   3.102  19.709  0.00  0.00    +0.000 C 
ATOM     32  C   UNL     1       1.826   5.244  20.096  0.00  0.00    +0.000 C 
ATOM     33  C   UNL     1       3.895   4.227  19.068  0.00  0.00    +0.000 C 
ENDBRANCH  21  24
ENDBRANCH  19  20
ENDBRANCH  18  19
ENDBRANCH   1  18
TORSDOF 7
ENDMDL
MODEL 7
REMARK VINA RESULT:      -7.5      1.013      1.866
REMARK  Name = 
REMARK  8 active torsions:
REMARK  status: ('A' for Active; 'I' for Inactive)
REMARK    1  A    between atoms: C_1  and  O_2
REMARK    2  A    between atoms: O_2  and  C_3
REMARK    3  A    between atoms: C_6  and  N_7
REMARK    4  A    between atoms: N_10  and  S_11
REMARK    5  A    between atoms: S_11  and  C_14
REMARK    6  A    between atoms: C_14  and  C_15
REMARK    7  A    between atoms: C_15  and  N_16
REMARK    8  A    between atoms: C_17  and  C_19
REMARK                            x       y       z     vdW  Elec       q    Type
REMARK                         _______ _______ _______ _____ _____    ______ ____
ROOT
ATOM      1  S   UNL     1       0.135  10.157  18.853  0.00  0.00    +0.000 S 
ATOM      2  O   UNL     1      -0.327   9.556  20.098  0.00  0.00    +0.000 OA
ATOM      3  O   UNL     1      -0.450   9.750  17.608  0.00  0.00    +0.000 OA
ENDROOT
BRANCH   1   7
ATOM      4  N   UNL     1      -2.094  12.463  20.922  0.00  0.00    +0.000 N 
ATOM      5  C   UNL     1      -2.438  12.007  19.569  0.00  0.00    +0.000 C 
ATOM      6  C   UNL     1      -1.323  12.405  18.592  0.00  0.00    +0.000 C 
ATOM      7  N   UNL     1       0.006  11.852  19.031  0.00  0.00    +0.000 NA
ATOM      8  C   UNL     1       0.323  12.419  20.400  0.00  0.00    +0.000 C 
ATOM      9  C   UNL     1      -0.769  12.085  21.443  0.00  0.00    +0.000 C 
BRANCH   4  13
ATOM     10  C   UNL     1      -4.826  14.535  23.336  0.00  0.00    +0.000 A 
ATOM     11  C   UNL     1      -4.506  15.006  22.068  0.00  0.00    +0.000 A 
ATOM     12  C   UNL     1      -3.677  14.260  21.236  0.00  0.00    +0.000 A 
ATOM     13  C   UNL     1      -3.086  13.061  21.664  0.00  0.00    +0.000 A 
ATOM     14  C   UNL     1      -3.445  12.583  22.926  0.00  0.00    +0.000 A 
ATOM     15  C   UNL     1      -4.295  13.318  23.764  0.00  0.00    +0.000 A 
BRANCH  10  17
ATOM     16  C   UNL     1      -6.207  16.445  23.357  0.00  0.00    +0.000 C 
ATOM     17  O   UNL     1      -5.642  15.350  24.066  0.00  0.00    +0.000 OA
ENDBRANCH  10  17
ENDBRANCH   4  13
ENDBRANCH   1   7
BRANCH   1  18
ATOM     18  C   UNL     1       1.896   9.904  18.748  0.00  0.00    +0.000 C 
BRANCH  18  19
ATOM     19  C   UNL     1       2.214   8.849  17.709  0.00  0.00    +0.000 C 
BRANCH  19  20
ATOM     20  N   UNL     1       1.992   7.496  18.190  0.00  0.00    +0.000 N 
ATOM     21  C   UNL     1       2.957   6.520  18.064  0.00  0.00    +0.000 C 
ATOM     22  O   UNL     1       4.019   6.733  17.481  0.00  0.00    +0.000 OA
ATOM     23  H   UNL     1       1.106   7.285  18.627  0.00  0.00    +0.000 HD
BRANCH  21  24
ATOM     24  C   UNL     1       2.620   5.167  18.706  0.00  0.00    +0.000 C 
ATOM     25  C   UNL     1       3.888   4.308  18.923  0.00  0.00    +0.000 C 
ATOM     26  C   UNL     1       3.518   2.955  19.566  0.00  0.00    +0.000 C 
ATOM     27  C   UNL     1       2.847   3.205  20.925  0.00  0.00    +0.000 C 
ATOM     28  C   UNL     1       1.582   4.059  20.739  0.00  0.00    +0.000 C 
ATOM     29  C   UNL     1       0.602   3.316  19.817  0.00  0.00    +0.000 C 
ATOM     30  C   UNL     1       1.261   3.041  18.454  0.00  0.00    +0.000 C 
ATOM     31  C   UNL     1       2.534   2.204  18.653  0.00  0.00    +0.000 C 
ATOM     32  C   UNL     1       1.637   4.382  17.804  0.00  0.00    +0.000 C 
ATOM     33  C   UNL     1       1.963   5.399  20.092  0.00  0.00    +0.000 C 
ENDBRANCH  21  24
ENDBRANCH  19  20
ENDBRANCH  18  19
ENDBRANCH   1  18
TORSDOF 7
ENDMDL
MODEL 8
REMARK VINA RESULT:      -7.5      0.636      1.036
REMARK  Name = 
REMARK  8 active torsions:
REMARK  status: ('A' for Active; 'I' for Inactive)
REMARK    1  A    between atoms: C_1  and  O_2
REMARK    2  A    between atoms: O_2  and  C_3
REMARK    3  A    between atoms: C_6  and  N_7
REMARK    4  A    between atoms: N_10  and  S_11
REMARK    5  A    between atoms: S_11  and  C_14
REMARK    6  A    between atoms: C_14  and  C_15
REMARK    7  A    between atoms: C_15  and  N_16
REMARK    8  A    between atoms: C_17  and  C_19
REMARK                            x       y       z     vdW  Elec       q    Type
REMARK                         _______ _______ _______ _____ _____    ______ ____
ROOT
ATOM      1  S   UNL     1       0.642   9.937  19.078  0.00  0.00    +0.000 S 
ATOM      2  O   UNL     1       0.426   9.141  20.279  0.00  0.00    +0.000 OA
ATOM      3  O   UNL     1      -0.185   9.723  17.926  0.00  0.00    +0.000 OA
ENDROOT
BRANCH   1   7
ATOM      4  N   UNL     1      -1.966  12.129  20.799  0.00  0.00    +0.000 N 
ATOM      5  C   UNL     1      -1.891  11.953  19.343  0.00  0.00    +0.000 C 
ATOM      6  C   UNL     1      -0.499  12.364  18.845  0.00  0.00    +0.000 C 
ATOM      7  N   UNL     1       0.580  11.581  19.543  0.00  0.00    +0.000 NA
ATOM      8  C   UNL     1       0.483  11.866  21.027  0.00  0.00    +0.000 C 
ATOM      9  C   UNL     1      -0.904  11.503  21.607  0.00  0.00    +0.000 C 
BRANCH   4  13
ATOM     10  C   UNL     1      -5.301  14.264  22.178  0.00  0.00    +0.000 A 
ATOM     11  C   UNL     1      -5.324  13.644  20.935  0.00  0.00    +0.000 A 
ATOM     12  C   UNL     1      -4.253  12.855  20.528  0.00  0.00    +0.000 A 
ATOM     13  C   UNL     1      -3.099  12.716  21.314  0.00  0.00    +0.000 A 
ATOM     14  C   UNL     1      -3.103  13.316  22.575  0.00  0.00    +0.000 A 
ATOM     15  C   UNL     1      -4.187  14.097  23.001  0.00  0.00    +0.000 A 
BRANCH  10  17
ATOM     16  C   UNL     1      -6.576  15.341  23.842  0.00  0.00    +0.000 C 
ATOM     17  O   UNL     1      -6.402  15.017  22.469  0.00  0.00    +0.000 OA
ENDBRANCH  10  17
ENDBRANCH   4  13
ENDBRANCH   1   7
BRANCH   1  18
ATOM     18  C   UNL     1       2.343   9.730  18.586  0.00  0.00    +0.000 C 
BRANCH  18  19
ATOM     19  C   UNL     1       2.457   8.646  17.535  0.00  0.00    +0.000 C 
BRANCH  19  20
ATOM     20  N   UNL     1       2.142   7.324  18.049  0.00  0.00    +0.000 N 
ATOM     21  C   UNL     1       3.113   6.356  18.190  0.00  0.00    +0.000 C 
ATOM     22  O   UNL     1       4.273   6.547  17.827  0.00  0.00    +0.000 OA
ATOM     23  H   UNL     1       1.184   7.128  18.305  0.00  0.00    +0.000 HD
BRANCH  21  24
ATOM     24  C   UNL     1       2.652   5.043  18.836  0.00  0.00    +0.000 C 
ATOM     25  C   UNL     1       1.744   4.228  17.886  0.00  0.00    +0.000 C 
ATOM     26  C   UNL     1       1.295   2.916  18.563  0.00  0.00    +0.000 C 
ATOM     27  C   UNL     1       2.533   2.075  18.911  0.00  0.00    +0.000 C 
ATOM     28  C   UNL     1       3.455   2.862  19.856  0.00  0.00    +0.000 C 
ATOM     29  C   UNL     1       2.689   3.199  21.145  0.00  0.00    +0.000 C 
ATOM     30  C   UNL     1       1.436   4.028  20.817  0.00  0.00    +0.000 C 
ATOM     31  C   UNL     1       0.530   3.241  19.857  0.00  0.00    +0.000 C 
ATOM     32  C   UNL     1       1.869   5.337  20.139  0.00  0.00    +0.000 C 
ATOM     33  C   UNL     1       3.888   4.168  19.174  0.00  0.00    +0.000 C 
ENDBRANCH  21  24
ENDBRANCH  19  20
ENDBRANCH  18  19
ENDBRANCH   1  18
TORSDOF 7
ENDMDL
MODEL 9
REMARK VINA RESULT:      -7.5      0.909      1.626
REMARK  Name = 
REMARK  8 active torsions:
REMARK  status: ('A' for Active; 'I' for Inactive)
REMARK    1  A    between atoms: C_1  and  O_2
REMARK    2  A    between atoms: O_2  and  C_3
REMARK    3  A    between atoms: C_6  and  N_7
REMARK    4  A    between atoms: N_10  and  S_11
REMARK    5  A    between atoms: S_11  and  C_14
REMARK    6  A    between atoms: C_14  and  C_15
REMARK    7  A    between atoms: C_15  and  N_16
REMARK    8  A    between atoms: C_17  and  C_19
REMARK                            x       y       z     vdW  Elec       q    Type
REMARK                         _______ _______ _______ _____ _____    ______ ____
ROOT
ATOM      1  S   UNL     1       0.514   9.863  19.888  0.00  0.00    +0.000 S 
ATOM      2  O   UNL     1       1.605   9.377  20.723  0.00  0.00    +0.000 OA
ATOM      3  O   UNL     1      -0.803   9.318  20.053  0.00  0.00    +0.000 OA
ENDROOT
BRANCH   1   7
ATOM      4  N   UNL     1      -2.179  12.373  20.893  0.00  0.00    +0.000 N 
ATOM      5  C   UNL     1      -1.949  11.946  19.507  0.00  0.00    +0.000 C 
ATOM      6  C   UNL     1      -0.494  12.236  19.114  0.00  0.00    +0.000 C 
ATOM      7  N   UNL     1       0.467  11.563  20.056  0.00  0.00    +0.000 NA
ATOM      8  C   UNL     1       0.216  12.103  21.449  0.00  0.00    +0.000 C 
ATOM      9  C   UNL     1      -1.242  11.875  21.915  0.00  0.00    +0.000 C 
BRANCH   4  13
ATOM     10  C   UNL     1      -5.805  14.176  21.982  0.00  0.00    +0.000 A 
ATOM     11  C   UNL     1      -4.652  14.408  22.721  0.00  0.00    +0.000 A 
ATOM     12  C   UNL     1      -3.433  13.887  22.295  0.00  0.00    +0.000 A 
ATOM     13  C   UNL     1      -3.338  13.064  21.163  0.00  0.00    +0.000 A 
ATOM     14  C   UNL     1      -4.499  12.869  20.411  0.00  0.00    +0.000 A 
ATOM     15  C   UNL     1      -5.727  13.406  20.822  0.00  0.00    +0.000 A 
BRANCH  10  17
ATOM     16  C   UNL     1      -6.777  15.450  23.711  0.00  0.00    +0.000 C 
ATOM     17  O   UNL     1      -6.942  14.730  22.496  0.00  0.00    +0.000 OA
ENDBRANCH  10  17
ENDBRANCH   4  13
ENDBRANCH   1   7
BRANCH   1  18
ATOM     18  C   UNL     1       0.994   9.648  18.185  0.00  0.00    +0.000 C 
BRANCH  18  19
ATOM     19  C   UNL     1       2.245   8.798  18.095  0.00  0.00    +0.000 C 
BRANCH  19  20
ATOM     20  N   UNL     1       2.020   7.417  18.486  0.00  0.00    +0.000 N 
ATOM     21  C   UNL     1       3.001   6.459  18.343  0.00  0.00    +0.000 C 
ATOM     22  O   UNL     1       4.084   6.717  17.819  0.00  0.00    +0.000 OA
ATOM     23  H   UNL     1       1.119   7.171  18.872  0.00  0.00    +0.000 HD
BRANCH  21  24
ATOM     24  C   UNL     1       2.655   5.068  18.889  0.00  0.00    +0.000 C 
ATOM     25  C   UNL     1       3.926   4.226  19.153  0.00  0.00    +0.000 C 
ATOM     26  C   UNL     1       3.547   2.833  19.697  0.00  0.00    +0.000 C 
ATOM     27  C   UNL     1       2.775   2.997  21.016  0.00  0.00    +0.000 C 
ATOM     28  C   UNL     1       1.506   3.831  20.784  0.00  0.00    +0.000 C 
ATOM     29  C   UNL     1       0.612   3.116  19.758  0.00  0.00    +0.000 C 
ATOM     30  C   UNL     1       1.371   2.928  18.433  0.00  0.00    +0.000 C 
ATOM     31  C   UNL     1       2.648   2.110  18.679  0.00  0.00    +0.000 C 
ATOM     32  C   UNL     1       1.758   4.309  17.881  0.00  0.00    +0.000 C 
ATOM     33  C   UNL     1       1.896   5.212  20.235  0.00  0.00    +0.000 C 
ENDBRANCH  21  24
ENDBRANCH  19  20
ENDBRANCH  18  19
ENDBRANCH   1  18
TORSDOF 7
ENDMDL
