MODEL 1
REMARK VINA RESULT:      -8.0      0.000      0.000
REMARK  Name = 
REMARK  8 active torsions:
REMARK  status: ('A' for Active; 'I' for Inactive)
REMARK    1  A    between atoms: C_1  and  C_2
REMARK    2  A    between atoms: C_2  and  C_3
REMARK    3  A    between atoms: C_3  and  C_4
REMARK    4  A    between atoms: C_4  and  N_5
REMARK    5  A    between atoms: C_6  and  O_8
REMARK    6  A    between atoms: O_8  and  C_9
REMARK    7  A    between atoms: C_18  and  C_19
REMARK    8  A    between atoms: C_20  and  O_21
REMARK                            x       y       z     vdW  Elec       q    Type
REMARK                         _______ _______ _______ _____ _____    ______ ____
ROOT
ATOM      1  C   UNL     1       4.778   5.641  18.535  0.00  0.00    +0.000 A 
ATOM      2  C   UNL     1       5.403   4.409  18.737  0.00  0.00    +0.000 A 
ATOM      3  C   UNL     1       4.718   3.384  19.347  0.00  0.00    +0.000 A 
ATOM      4  C   UNL     1       3.390   3.545  19.731  0.00  0.00    +0.000 A 
ATOM      5  C   UNL     1       2.786   2.503  20.453  0.00  0.00    +0.000 A 
ATOM      6  C   UNL     1       1.490   2.619  20.943  0.00  0.00    +0.000 A 
ATOM      7  C   UNL     1       0.743   3.724  20.596  0.00  0.00    +0.000 A 
ATOM      8  C   UNL     1       1.300   4.693  19.752  0.00  0.00    +0.000 A 
ATOM      9  C   UNL     1       2.686   4.743  19.429  0.00  0.00    +0.000 A 
ATOM     10  C   UNL     1       3.410   5.885  18.880  0.00  0.00    +0.000 A 
ENDROOT
BRANCH  10  11
ATOM     11  C   UNL     1       2.775   7.271  18.710  0.00  0.00    +0.000 A 
ATOM     12  C   UNL     1       2.909   7.993  17.493  0.00  0.00    +0.000 A 
ATOM     13  C   UNL     1       2.330   9.240  17.285  0.00  0.00    +0.000 A 
ATOM     14  C   UNL     1       1.482   9.779  18.234  0.00  0.00    +0.000 A 
ATOM     15  C   UNL     1       1.239   9.104  19.430  0.00  0.00    +0.000 A 
ATOM     16  C   UNL     1       0.258   9.626  20.298  0.00  0.00    +0.000 A 
ATOM     17  C   UNL     1      -0.108   8.959  21.461  0.00  0.00    +0.000 A 
ATOM     18  C   UNL     1       0.613   7.848  21.843  0.00  0.00    +0.000 A 
ATOM     19  C   UNL     1       1.694   7.424  21.057  0.00  0.00    +0.000 A 
ATOM     20  C   UNL     1       1.942   7.908  19.739  0.00  0.00    +0.000 A 
BRANCH  12  21
ATOM     21  O   UNL     1       3.560   7.559  16.367  0.00  0.00    +0.000 OA
ATOM     22  H   UNL     1       3.362   8.144  15.620  0.00  0.00    +0.000 HD
ENDBRANCH  12  21
ENDBRANCH  10  11
BRANCH   1  23
ATOM     23  O   UNL     1       5.643   6.681  18.116  0.00  0.00    +0.000 OA
BRANCH  23  25
ATOM     24  N   UNL     1       5.976   5.888  16.050  0.00  0.00    +0.000 N 
ATOM     25  C   UNL     1       6.607   6.360  17.152  0.00  0.00    +0.000 C 
ATOM     26  O   UNL     1       7.827   6.513  17.295  0.00  0.00    +0.000 OA
ATOM     27  H   UNL     1       4.971   5.889  16.101  0.00  0.00    +0.000 HD
BRANCH  24  28
ATOM     28  C   UNL     1       6.647   5.264  14.922  0.00  0.00    +0.000 C 
BRANCH  28  29
ATOM     29  C   UNL     1       5.819   4.116  14.355  0.00  0.00    +0.000 C 
BRANCH  29  31
ATOM     30  C   UNL     1       5.101   3.353  12.050  0.00  0.00    +0.000 C 
ATOM     31  C   UNL     1       6.274   3.709  12.949  0.00  0.00    +0.000 C 
ENDBRANCH  29  31
ENDBRANCH  28  29
ENDBRANCH  24  28
ENDBRANCH  23  25
ENDBRANCH   1  23
TORSDOF 7
ENDMDL
MODEL 2
REMARK VINA RESULT:      -7.8      1.196      1.354
REMARK  Name = 
REMARK  8 active torsions:
REMARK  status: ('A' for Active; 'I' for Inactive)
REMARK    1  A    between atoms: C_1  and  C_2
REMARK    2  A    between atoms: C_2  and  C_3
REMARK    3  A    between atoms: C_3  and  C_4
REMARK    4  A    between atoms: C_4  and  N_5
REMARK    5  A    between atoms: C_6  and  O_8
REMARK    6  A    between atoms: O_8  and  C_9
REMARK    7  A    between atoms: C_18  and  C_19
REMARK    8  A    between atoms: C_20  and  O_21
REMARK                            x       y       z     vdW  Elec       q    Type
REMARK                         _______ _______ _______ _____ _____    ______ ____
ROOT
ATOM      1  C   UNL     1       4.858   4.724  19.326  0.00  0.00    +0.000 A 
ATOM      2  C   UNL     1       5.216   3.410  19.633  0.00  0.00    +0.000 A 
ATOM      3  C   UNL     1       4.262   2.420  19.629  0.00  0.00    +0.000 A 
ATOM      4  C   UNL     1       2.944   2.704  19.283  0.00  0.00    +0.000 A 
ATOM      5  C   UNL     1       1.996   1.676  19.413  0.00  0.00    +0.000 A 
ATOM      6  C   UNL     1       0.646   1.901  19.165  0.00  0.00    +0.000 A 
ATOM      7  C   UNL     1       0.257   3.121  18.654  0.00  0.00    +0.000 A 
ATOM      8  C   UNL     1       1.227   4.095  18.386  0.00  0.00    +0.000 A 
ATOM      9  C   UNL     1       2.571   4.006  18.847  0.00  0.00    +0.000 A 
ATOM     10  C   UNL     1       3.532   5.099  18.939  0.00  0.00    +0.000 A 
ENDROOT
BRANCH  10  11
ATOM     11  C   UNL     1       3.156   6.564  18.678  0.00  0.00    +0.000 A 
ATOM     12  C   UNL     1       3.577   7.227  17.493  0.00  0.00    +0.000 A 
ATOM     13  C   UNL     1       3.239   8.544  17.204  0.00  0.00    +0.000 A 
ATOM     14  C   UNL     1       2.361   9.232  18.020  0.00  0.00    +0.000 A 
ATOM     15  C   UNL     1       1.845   8.632  19.168  0.00  0.00    +0.000 A 
ATOM     16  C   UNL     1       0.845   9.321  19.884  0.00  0.00    +0.000 A 
ATOM     17  C   UNL     1       0.214   8.748  20.982  0.00  0.00    +0.000 A 
ATOM     18  C   UNL     1       0.688   7.546  21.464  0.00  0.00    +0.000 A 
ATOM     19  C   UNL     1       1.789   6.939  20.844  0.00  0.00    +0.000 A 
ATOM     20  C   UNL     1       2.297   7.347  19.575  0.00  0.00    +0.000 A 
BRANCH  12  21
ATOM     21  O   UNL     1       4.304   6.670  16.474  0.00  0.00    +0.000 OA
ATOM     22  H   UNL     1       4.779   5.886  16.792  0.00  0.00    +0.000 HD
ENDBRANCH  12  21
ENDBRANCH  10  11
BRANCH   1  23
ATOM     23  O   UNL     1       5.865   5.687  19.587  0.00  0.00    +0.000 OA
BRANCH  23  25
ATOM     24  N   UNL     1       6.635   5.011  17.598  0.00  0.00    +0.000 N 
ATOM     25  C   UNL     1       6.946   5.737  18.698  0.00  0.00    +0.000 C 
ATOM     26  O   UNL     1       7.994   6.364  18.896  0.00  0.00    +0.000 OA
ATOM     27  H   UNL     1       5.709   4.618  17.594  0.00  0.00    +0.000 HD
BRANCH  24  28
ATOM     28  C   UNL     1       7.578   4.661  16.549  0.00  0.00    +0.000 C 
BRANCH  28  29
ATOM     29  C   UNL     1       7.011   4.979  15.170  0.00  0.00    +0.000 C 
BRANCH  29  31
ATOM     30  C   UNL     1       6.092   3.714  13.179  0.00  0.00    +0.000 C 
ATOM     31  C   UNL     1       6.026   3.909  14.684  0.00  0.00    +0.000 C 
ENDBRANCH  29  31
ENDBRANCH  28  29
ENDBRANCH  24  28
ENDBRANCH  23  25
ENDBRANCH   1  23
TORSDOF 7
ENDMDL
MODEL 3
REMARK VINA RESULT:      -7.5      1.095      4.649
REMARK  Name = 
REMARK  8 active torsions:
REMARK  status: ('A' for Active; 'I' for Inactive)
REMARK    1  A    between atoms: C_1  and  C_2
REMARK    2  A    between atoms: C_2  and  C_3
REMARK    3  A    between atoms: C_3  and  C_4
REMARK    4  A    between atoms: C_4  and  N_5
REMARK    5  A    between atoms: C_6  and  O_8
REMARK    6  A    between atoms: O_8  and  C_9
REMARK    7  A    between atoms: C_18  and  C_19
REMARK    8  A    between atoms: C_20  and  O_21
REMARK                            x       y       z     vdW  Elec       q    Type
REMARK                         _______ _______ _______ _____ _____    ______ ____
ROOT
ATOM      1  C   UNL     1       3.353   7.384  17.456  0.00  0.00    +0.000 A 
ATOM      2  C   UNL     1       2.923   8.685  17.186  0.00  0.00    +0.000 A 
ATOM      3  C   UNL     1       2.102   9.336  18.075  0.00  0.00    +0.000 A 
ATOM      4  C   UNL     1       1.721   8.727  19.268  0.00  0.00    +0.000 A 
ATOM      5  C   UNL     1       0.788   9.396  20.076  0.00  0.00    +0.000 A 
ATOM      6  C   UNL     1       0.296   8.820  21.242  0.00  0.00    +0.000 A 
ATOM      7  C   UNL     1       0.838   7.629  21.677  0.00  0.00    +0.000 A 
ATOM      8  C   UNL     1       1.874   7.038  20.944  0.00  0.00    +0.000 A 
ATOM      9  C   UNL     1       2.238   7.453  19.632  0.00  0.00    +0.000 A 
ATOM     10  C   UNL     1       3.026   6.693  18.667  0.00  0.00    +0.000 A 
ENDROOT
BRANCH  10  11
ATOM     11  C   UNL     1       3.454   5.238  18.902  0.00  0.00    +0.000 A 
ATOM     12  C   UNL     1       4.767   4.925  19.348  0.00  0.00    +0.000 A 
ATOM     13  C   UNL     1       5.190   3.625  19.598  0.00  0.00    +0.000 A 
ATOM     14  C   UNL     1       4.291   2.577  19.535  0.00  0.00    +0.000 A 
ATOM     15  C   UNL     1       2.964   2.805  19.172  0.00  0.00    +0.000 A 
ATOM     16  C   UNL     1       2.058   1.729  19.264  0.00  0.00    +0.000 A 
ATOM     17  C   UNL     1       0.702   1.900  19.011  0.00  0.00    +0.000 A 
ATOM     18  C   UNL     1       0.268   3.112  18.516  0.00  0.00    +0.000 A 
ATOM     19  C   UNL     1       1.200   4.131  18.274  0.00  0.00    +0.000 A 
ATOM     20  C   UNL     1       2.542   4.097  18.755  0.00  0.00    +0.000 A 
BRANCH  12  21
ATOM     21  O   UNL     1       5.755   5.829  19.640  0.00  0.00    +0.000 OA
ATOM     22  H   UNL     1       5.947   6.377  18.863  0.00  0.00    +0.000 HD
ENDBRANCH  12  21
ENDBRANCH  10  11
BRANCH   1  23
ATOM     23  O   UNL     1       3.996   6.736  16.373  0.00  0.00    +0.000 OA
BRANCH  23  25
ATOM     24  N   UNL     1       5.811   5.820  15.439  0.00  0.00    +0.000 N 
ATOM     25  C   UNL     1       5.394   6.666  16.410  0.00  0.00    +0.000 C 
ATOM     26  O   UNL     1       6.112   7.300  17.194  0.00  0.00    +0.000 OA
ATOM     27  H   UNL     1       5.079   5.440  14.861  0.00  0.00    +0.000 HD
BRANCH  24  28
ATOM     28  C   UNL     1       7.173   5.335  15.298  0.00  0.00    +0.000 C 
BRANCH  28  29
ATOM     29  C   UNL     1       7.305   4.400  14.101  0.00  0.00    +0.000 C 
BRANCH  29  31
ATOM     30  C   UNL     1       6.049   3.262  12.219  0.00  0.00    +0.000 C 
ATOM     31  C   UNL     1       5.942   3.921  13.584  0.00  0.00    +0.000 C 
ENDBRANCH  29  31
ENDBRANCH  28  29
ENDBRANCH  24  28
ENDBRANCH  23  25
ENDBRANCH   1  23
TORSDOF 7
ENDMDL
MODEL 4
REMARK VINA RESULT:      -7.5      1.901      5.493
REMARK  Name = 
REMARK  8 active torsions:
REMARK  status: ('A' for Active; 'I' for Inactive)
REMARK    1  A    between atoms: C_1  and  C_2
REMARK    2  A    between atoms: C_2  and  C_3
REMARK    3  A    between atoms: C_3  and  C_4
REMARK    4  A    between atoms: C_4  and  N_5
REMARK    5  A    between atoms: C_6  and  O_8
REMARK    6  A    between atoms: O_8  and  C_9
REMARK    7  A    between atoms: C_18  and  C_19
REMARK    8  A    between atoms: C_20  and  O_21
REMARK                            x       y       z     vdW  Elec       q    Type
REMARK                         _______ _______ _______ _____ _____    ______ ____
ROOT
ATOM      1  C   UNL     1       3.823   6.998  17.342  0.00  0.00    +0.000 A 
ATOM      2  C   UNL     1       3.511   8.305  16.964  0.00  0.00    +0.000 A 
ATOM      3  C   UNL     1       2.654   9.055  17.734  0.00  0.00    +0.000 A 
ATOM      4  C   UNL     1       2.121   8.541  18.913  0.00  0.00    +0.000 A 
ATOM      5  C   UNL     1       1.162   9.311  19.590  0.00  0.00    +0.000 A 
ATOM      6  C   UNL     1       0.523   8.834  20.729  0.00  0.00    +0.000 A 
ATOM      7  C   UNL     1       0.940   7.639  21.275  0.00  0.00    +0.000 A 
ATOM      8  C   UNL     1       2.000   6.944  20.680  0.00  0.00    +0.000 A 
ATOM      9  C   UNL     1       2.514   7.260  19.390  0.00  0.00    +0.000 A 
ATOM     10  C   UNL     1       3.338   6.399  18.548  0.00  0.00    +0.000 A 
ENDROOT
BRANCH  10  11
ATOM     11  C   UNL     1       3.643   4.936  18.897  0.00  0.00    +0.000 A 
ATOM     12  C   UNL     1       4.903   4.560  19.435  0.00  0.00    +0.000 A 
ATOM     13  C   UNL     1       5.214   3.252  19.788  0.00  0.00    +0.000 A 
ATOM     14  C   UNL     1       4.243   2.269  19.742  0.00  0.00    +0.000 A 
ATOM     15  C   UNL     1       2.958   2.567  19.292  0.00  0.00    +0.000 A 
ATOM     16  C   UNL     1       1.969   1.568  19.401  0.00  0.00    +0.000 A 
ATOM     17  C   UNL     1       0.644   1.819  19.064  0.00  0.00    +0.000 A 
ATOM     18  C   UNL     1       0.329   3.023  18.469  0.00  0.00    +0.000 A 
ATOM     19  C   UNL     1       1.346   3.954  18.216  0.00  0.00    +0.000 A 
ATOM     20  C   UNL     1       2.656   3.856  18.772  0.00  0.00    +0.000 A 
BRANCH  12  21
ATOM     21  O   UNL     1       5.941   5.408  19.723  0.00  0.00    +0.000 OA
ATOM     22  H   UNL     1       6.588   5.401  19.002  0.00  0.00    +0.000 HD
ENDBRANCH  12  21
ENDBRANCH  10  11
BRANCH   1  23
ATOM     23  O   UNL     1       4.522   6.251  16.361  0.00  0.00    +0.000 OA
BRANCH  23  25
ATOM     24  N   UNL     1       6.300   7.103  17.420  0.00  0.00    +0.000 N 
ATOM     25  C   UNL     1       5.920   6.332  16.373  0.00  0.00    +0.000 C 
ATOM     26  O   UNL     1       6.667   5.767  15.564  0.00  0.00    +0.000 OA
ATOM     27  H   UNL     1       5.548   7.432  18.002  0.00  0.00    +0.000 HD
BRANCH  24  28
ATOM     28  C   UNL     1       7.653   7.584  17.640  0.00  0.00    +0.000 C 
BRANCH  28  29
ATOM     29  C   UNL     1       7.695   9.107  17.695  0.00  0.00    +0.000 C 
BRANCH  29  31
ATOM     30  C   UNL     1       9.187  11.069  18.275  0.00  0.00    +0.000 C 
ATOM     31  C   UNL     1       8.826   9.627  18.590  0.00  0.00    +0.000 C 
ENDBRANCH  29  31
ENDBRANCH  28  29
ENDBRANCH  24  28
ENDBRANCH  23  25
ENDBRANCH   1  23
TORSDOF 7
ENDMDL
MODEL 5
REMARK VINA RESULT:      -7.5      2.396      3.204
REMARK  Name = 
REMARK  8 active torsions:
REMARK  status: ('A' for Active; 'I' for Inactive)
REMARK    1  A    between atoms: C_1  and  C_2
REMARK    2  A    between atoms: C_2  and  C_3
REMARK    3  A    between atoms: C_3  and  C_4
REMARK    4  A    between atoms: C_4  and  N_5
REMARK    5  A    between atoms: C_6  and  O_8
REMARK    6  A    between atoms: O_8  and  C_9
REMARK    7  A    between atoms: C_18  and  C_19
REMARK    8  A    between atoms: C_20  and  O_21
REMARK                            x       y       z     vdW  Elec       q    Type
REMARK                         _______ _______ _______ _____ _____    ______ ____
ROOT
ATOM      1  C   UNL     1       4.876   4.515  19.424  0.00  0.00    +0.000 A 
ATOM      2  C   UNL     1       5.173   3.190  19.751  0.00  0.00    +0.000 A 
ATOM      3  C   UNL     1       4.188   2.232  19.695  0.00  0.00    +0.000 A 
ATOM      4  C   UNL     1       2.901   2.558  19.276  0.00  0.00    +0.000 A 
ATOM      5  C   UNL     1       1.915   1.562  19.354  0.00  0.00    +0.000 A 
ATOM      6  C   UNL     1       0.589   1.830  19.032  0.00  0.00    +0.000 A 
ATOM      7  C   UNL     1       0.268   3.060  18.499  0.00  0.00    +0.000 A 
ATOM      8  C   UNL     1       1.283   4.001  18.285  0.00  0.00    +0.000 A 
ATOM      9  C   UNL     1       2.596   3.870  18.820  0.00  0.00    +0.000 A 
ATOM     10  C   UNL     1       3.586   4.932  18.964  0.00  0.00    +0.000 A 
ENDROOT
BRANCH  10  11
ATOM     11  C   UNL     1       3.273   6.408  18.682  0.00  0.00    +0.000 A 
ATOM     12  C   UNL     1       3.761   7.047  17.511  0.00  0.00    +0.000 A 
ATOM     13  C   UNL     1       3.482   8.374  17.202  0.00  0.00    +0.000 A 
ATOM     14  C   UNL     1       2.599   9.098  17.981  0.00  0.00    +0.000 A 
ATOM     15  C   UNL     1       2.019   8.524  19.111  0.00  0.00    +0.000 A 
ATOM     16  C   UNL     1       1.019   9.253  19.786  0.00  0.00    +0.000 A 
ATOM     17  C   UNL     1       0.327   8.710  20.862  0.00  0.00    +0.000 A 
ATOM     18  C   UNL     1       0.738   7.494  21.368  0.00  0.00    +0.000 A 
ATOM     19  C   UNL     1       1.839   6.845  20.793  0.00  0.00    +0.000 A 
ATOM     20  C   UNL     1       2.409   7.226  19.542  0.00  0.00    +0.000 A 
BRANCH  12  21
ATOM     21  O   UNL     1       4.507   6.458  16.523  0.00  0.00    +0.000 OA
ATOM     22  H   UNL     1       5.294   6.992  16.335  0.00  0.00    +0.000 HD
ENDBRANCH  12  21
ENDBRANCH  10  11
BRANCH   1  23
ATOM     23  O   UNL     1       5.897   5.445  19.740  0.00  0.00    +0.000 OA
BRANCH  23  25
ATOM     24  N   UNL     1       7.069   6.932  18.548  0.00  0.00    +0.000 N 
ATOM     25  C   UNL     1       6.923   5.610  18.800  0.00  0.00    +0.000 C 
ATOM     26  O   UNL     1       7.587   4.687  18.311  0.00  0.00    +0.000 OA
ATOM     27  H   UNL     1       6.472   7.538  19.086  0.00  0.00    +0.000 HD
BRANCH  24  28
ATOM     28  C   UNL     1       7.890   7.481  17.482  0.00  0.00    +0.000 C 
BRANCH  28  29
ATOM     29  C   UNL     1       7.911   9.005  17.532  0.00  0.00    +0.000 C 
BRANCH  29  31
ATOM     30  C   UNL     1       9.449  10.862  18.305  0.00  0.00    +0.000 C 
ATOM     31  C   UNL     1       8.795   9.539  18.666  0.00  0.00    +0.000 C 
ENDBRANCH  29  31
ENDBRANCH  28  29
ENDBRANCH  24  28
ENDBRANCH  23  25
ENDBRANCH   1  23
TORSDOF 7
ENDMDL
MODEL 6
REMARK VINA RESULT:      -7.5      7.343     10.763
REMARK  Name = 
REMARK  8 active torsions:
REMARK  status: ('A' for Active; 'I' for Inactive)
REMARK    1  A    between atoms: C_1  and  C_2
REMARK    2  A    between atoms: C_2  and  C_3
REMARK    3  A    between atoms: C_3  and  C_4
REMARK    4  A    between atoms: C_4  and  N_5
REMARK    5  A    between atoms: C_6  and  O_8
REMARK    6  A    between atoms: O_8  and  C_9
REMARK    7  A    between atoms: C_18  and  C_19
REMARK    8  A    between atoms: C_20  and  O_21
REMARK                            x       y       z     vdW  Elec       q    Type
REMARK                         _______ _______ _______ _____ _____    ______ ____
ROOT
ATOM      1  C   UNL     1      -4.180  13.072  22.113  0.00  0.00    +0.000 A 
ATOM      2  C   UNL     1      -5.145  13.604  22.970  0.00  0.00    +0.000 A 
ATOM      3  C   UNL     1      -4.762  14.385  24.035  0.00  0.00    +0.000 A 
ATOM      4  C   UNL     1      -3.421  14.686  24.250  0.00  0.00    +0.000 A 
ATOM      5  C   UNL     1      -3.086  15.387  25.419  0.00  0.00    +0.000 A 
ATOM      6  C   UNL     1      -1.762  15.656  25.747  0.00  0.00    +0.000 A 
ATOM      7  C   UNL     1      -0.773  15.345  24.838  0.00  0.00    +0.000 A 
ATOM      8  C   UNL     1      -1.126  14.779  23.607  0.00  0.00    +0.000 A 
ATOM      9  C   UNL     1      -2.424  14.263  23.328  0.00  0.00    +0.000 A 
ATOM     10  C   UNL     1      -2.782  13.349  22.248  0.00  0.00    +0.000 A 
ENDROOT
BRANCH  10  11
ATOM     11  C   UNL     1      -1.741  12.691  21.333  0.00  0.00    +0.000 A 
ATOM     12  C   UNL     1      -1.365  13.292  20.102  0.00  0.00    +0.000 A 
ATOM     13  C   UNL     1      -0.409  12.745  19.254  0.00  0.00    +0.000 A 
ATOM     14  C   UNL     1       0.314  11.634  19.646  0.00  0.00    +0.000 A 
ATOM     15  C   UNL     1       0.058  11.022  20.872  0.00  0.00    +0.000 A 
ATOM     16  C   UNL     1       0.919   9.985  21.287  0.00  0.00    +0.000 A 
ATOM     17  C   UNL     1       0.787   9.390  22.537  0.00  0.00    +0.000 A 
ATOM     18  C   UNL     1      -0.301   9.722  23.316  0.00  0.00    +0.000 A 
ATOM     19  C   UNL     1      -1.244  10.638  22.830  0.00  0.00    +0.000 A 
ATOM     20  C   UNL     1      -1.021  11.460  21.686  0.00  0.00    +0.000 A 
BRANCH  12  21
ATOM     21  O   UNL     1      -1.834  14.483  19.612  0.00  0.00    +0.000 OA
ATOM     22  H   UNL     1      -2.440  14.326  18.872  0.00  0.00    +0.000 HD
ENDBRANCH  12  21
ENDBRANCH  10  11
BRANCH   1  23
ATOM     23  O   UNL     1      -4.668  12.104  21.200  0.00  0.00    +0.000 OA
BRANCH  23  25
ATOM     24  N   UNL     1      -5.115  11.504  19.092  0.00  0.00    +0.000 N 
ATOM     25  C   UNL     1      -5.063  12.561  19.936  0.00  0.00    +0.000 C 
ATOM     26  O   UNL     1      -5.337  13.737  19.665  0.00  0.00    +0.000 OA
ATOM     27  H   UNL     1      -4.911  10.612  19.511  0.00  0.00    +0.000 HD
BRANCH  24  28
ATOM     28  C   UNL     1      -5.287  11.608  17.653  0.00  0.00    +0.000 C 
BRANCH  28  29
ATOM     29  C   UNL     1      -3.998  11.259  16.917  0.00  0.00    +0.000 C 
BRANCH  29  31
ATOM     30  C   UNL     1      -1.843   9.960  17.201  0.00  0.00    +0.000 C 
ATOM     31  C   UNL     1      -3.338   9.989  17.469  0.00  0.00    +0.000 C 
ENDBRANCH  29  31
ENDBRANCH  28  29
ENDBRANCH  24  28
ENDBRANCH  23  25
ENDBRANCH   1  23
TORSDOF 7
ENDMDL
MODEL 7
REMARK VINA RESULT:      -7.3      6.810     10.549
REMARK  Name = 
REMARK  8 active torsions:
REMARK  status: ('A' for Active; 'I' for Inactive)
REMARK    1  A    between atoms: C_1  and  C_2
REMARK    2  A    between atoms: C_2  and  C_3
REMARK    3  A    between atoms: C_3  and  C_4
REMARK    4  A    between atoms: C_4  and  N_5
REMARK    5  A    between atoms: C_6  and  O_8
REMARK    6  A    between atoms: O_8  and  C_9
REMARK    7  A    between atoms: C_18  and  C_19
REMARK    8  A    between atoms: C_20  and  O_21
REMARK                            x       y       z     vdW  Elec       q    Type
REMARK                         _______ _______ _______ _____ _____    ______ ____
ROOT
ATOM      1  C   UNL     1      -3.318  13.726  20.744  0.00  0.00    +0.000 A 
ATOM      2  C   UNL     1      -3.889  14.927  21.170  0.00  0.00    +0.000 A 
ATOM      3  C   UNL     1      -3.104  16.046  21.319  0.00  0.00    +0.000 A 
ATOM      4  C   UNL     1      -1.747  16.008  21.011  0.00  0.00    +0.000 A 
ATOM      5  C   UNL     1      -0.979  17.149  21.296  0.00  0.00    +0.000 A 
ATOM      6  C   UNL     1       0.397  17.163  21.094  0.00  0.00    +0.000 A 
ATOM      7  C   UNL     1       0.991  16.084  20.476  0.00  0.00    +0.000 A 
ATOM      8  C   UNL     1       0.197  15.009  20.058  0.00  0.00    +0.000 A 
ATOM      9  C   UNL     1      -1.159  14.837  20.458  0.00  0.00    +0.000 A 
ATOM     10  C   UNL     1      -1.937  13.606  20.386  0.00  0.00    +0.000 A 
ENDROOT
BRANCH  10  11
ATOM     11  C   UNL     1      -1.326  12.255  19.990  0.00  0.00    +0.000 A 
ATOM     12  C   UNL     1      -0.987  11.973  18.639  0.00  0.00    +0.000 A 
ATOM     13  C   UNL     1      -0.409  10.774  18.239  0.00  0.00    +0.000 A 
ATOM     14  C   UNL     1      -0.022   9.840  19.181  0.00  0.00    +0.000 A 
ATOM     15  C   UNL     1      -0.254  10.067  20.537  0.00  0.00    +0.000 A 
ATOM     16  C   UNL     1       0.288   9.153  21.464  0.00  0.00    +0.000 A 
ATOM     17  C   UNL     1       0.181   9.362  22.834  0.00  0.00    +0.000 A 
ATOM     18  C   UNL     1      -0.600  10.404  23.287  0.00  0.00    +0.000 A 
ATOM     19  C   UNL     1      -1.269  11.217  22.361  0.00  0.00    +0.000 A 
ATOM     20  C   UNL     1      -0.988  11.208  20.963  0.00  0.00    +0.000 A 
BRANCH  12  21
ATOM     21  O   UNL     1      -1.126  12.831  17.579  0.00  0.00    +0.000 OA
ATOM     22  H   UNL     1      -1.346  12.336  16.775  0.00  0.00    +0.000 HD
ENDBRANCH  12  21
ENDBRANCH  10  11
BRANCH   1  23
ATOM     23  O   UNL     1      -4.168  12.597  20.850  0.00  0.00    +0.000 OA
BRANCH  23  25
ATOM     24  N   UNL     1      -4.607  12.170  18.699  0.00  0.00    +0.000 N 
ATOM     25  C   UNL     1      -5.179  12.466  19.890  0.00  0.00    +0.000 C 
ATOM     26  O   UNL     1      -6.389  12.582  20.120  0.00  0.00    +0.000 OA
ATOM     27  H   UNL     1      -3.607  12.060  18.720  0.00  0.00    +0.000 HD
BRANCH  24  28
ATOM     28  C   UNL     1      -5.312  12.160  17.428  0.00  0.00    +0.000 C 
BRANCH  28  29
ATOM     29  C   UNL     1      -4.447  11.564  16.323  0.00  0.00    +0.000 C 
BRANCH  29  31
ATOM     30  C   UNL     1      -2.788   9.755  15.702  0.00  0.00    +0.000 C 
ATOM     31  C   UNL     1      -3.716  10.294  16.776  0.00  0.00    +0.000 C 
ENDBRANCH  29  31
ENDBRANCH  28  29
ENDBRANCH  24  28
ENDBRANCH  23  25
ENDBRANCH   1  23
TORSDOF 7
ENDMDL
MODEL 8
REMARK VINA RESULT:      -7.2      7.138     11.378
REMARK  Name = 
REMARK  8 active torsions:
REMARK  status: ('A' for Active; 'I' for Inactive)
REMARK    1  A    between atoms: C_1  and  C_2
REMARK    2  A    between atoms: C_2  and  C_3
REMARK    3  A    between atoms: C_3  and  C_4
REMARK    4  A    between atoms: C_4  and  N_5
REMARK    5  A    between atoms: C_6  and  O_8
REMARK    6  A    between atoms: O_8  and  C_9
REMARK    7  A    between atoms: C_18  and  C_19
REMARK    8  A    between atoms: C_20  and  O_21
REMARK                            x       y       z     vdW  Elec       q    Type
REMARK                         _______ _______ _______ _____ _____    ______ ____
ROOT
ATOM      1  C   UNL     1      -2.041  13.197  22.564  0.00  0.00    +0.000 A 
ATOM      2  C   UNL     1      -1.606  14.028  23.598  0.00  0.00    +0.000 A 
ATOM      3  C   UNL     1      -0.675  15.008  23.345  0.00  0.00    +0.000 A 
ATOM      4  C   UNL     1      -0.187  15.211  22.057  0.00  0.00    +0.000 A 
ATOM      5  C   UNL     1       0.846  16.146  21.887  0.00  0.00    +0.000 A 
ATOM      6  C   UNL     1       1.442  16.348  20.648  0.00  0.00    +0.000 A 
ATOM      7  C   UNL     1       0.915  15.714  19.543  0.00  0.00    +0.000 A 
ATOM      8  C   UNL     1      -0.211  14.895  19.694  0.00  0.00    +0.000 A 
ATOM      9  C   UNL     1      -0.700  14.465  20.960  0.00  0.00    +0.000 A 
ATOM     10  C   UNL     1      -1.608  13.351  21.208  0.00  0.00    +0.000 A 
ENDROOT
BRANCH  10  11
ATOM     11  C   UNL     1      -2.051  12.375  20.109  0.00  0.00    +0.000 A 
ATOM     12  C   UNL     1      -3.331  12.491  19.502  0.00  0.00    +0.000 A 
ATOM     13  C   UNL     1      -3.764  11.646  18.486  0.00  0.00    +0.000 A 
ATOM     14  C   UNL     1      -2.899  10.720  17.935  0.00  0.00    +0.000 A 
ATOM     15  C   UNL     1      -1.600  10.588  18.425  0.00  0.00    +0.000 A 
ATOM     16  C   UNL     1      -0.715   9.734  17.735  0.00  0.00    +0.000 A 
ATOM     17  C   UNL     1       0.620   9.622  18.105  0.00  0.00    +0.000 A 
ATOM     18  C   UNL     1       1.041  10.246  19.260  0.00  0.00    +0.000 A 
ATOM     19  C   UNL     1       0.119  10.965  20.032  0.00  0.00    +0.000 A 
ATOM     20  C   UNL     1      -1.182  11.323  19.567  0.00  0.00    +0.000 A 
BRANCH  12  21
ATOM     21  O   UNL     1      -4.271  13.449  19.780  0.00  0.00    +0.000 OA
ATOM     22  H   UNL     1      -5.162  13.078  19.692  0.00  0.00    +0.000 HD
ENDBRANCH  12  21
ENDBRANCH  10  11
BRANCH   1  23
ATOM     23  O   UNL     1      -2.815  12.087  22.984  0.00  0.00    +0.000 OA
BRANCH  23  25
ATOM     24  N   UNL     1      -4.955  12.585  22.560  0.00  0.00    +0.000 N 
ATOM     25  C   UNL     1      -4.064  12.360  23.555  0.00  0.00    +0.000 C 
ATOM     26  O   UNL     1      -4.299  12.365  24.771  0.00  0.00    +0.000 OA
ATOM     27  H   UNL     1      -4.589  12.480  21.629  0.00  0.00    +0.000 HD
BRANCH  24  28
ATOM     28  C   UNL     1      -6.300  13.097  22.760  0.00  0.00    +0.000 C 
BRANCH  28  29
ATOM     29  C   UNL     1      -7.342  12.151  22.174  0.00  0.00    +0.000 C 
BRANCH  29  31
ATOM     30  C   UNL     1      -7.484  12.234  19.647  0.00  0.00    +0.000 C 
ATOM     31  C   UNL     1      -6.883  11.526  20.851  0.00  0.00    +0.000 C 
ENDBRANCH  29  31
ENDBRANCH  28  29
ENDBRANCH  24  28
ENDBRANCH  23  25
ENDBRANCH   1  23
TORSDOF 7
ENDMDL
MODEL 9
REMARK VINA RESULT:      -7.2      4.229      7.954
REMARK  Name = 
REMARK  8 active torsions:
REMARK  status: ('A' for Active; 'I' for Inactive)
REMARK    1  A    between atoms: C_1  and  C_2
REMARK    2  A    between atoms: C_2  and  C_3
REMARK    3  A    between atoms: C_3  and  C_4
REMARK    4  A    between atoms: C_4  and  N_5
REMARK    5  A    between atoms: C_6  and  O_8
REMARK    6  A    between atoms: O_8  and  C_9
REMARK    7  A    between atoms: C_18  and  C_19
REMARK    8  A    between atoms: C_20  and  O_21
REMARK                            x       y       z     vdW  Elec       q    Type
REMARK                         _______ _______ _______ _____ _____    ______ ____
ROOT
ATOM      1  C   UNL     1       0.311   8.606  21.105  0.00  0.00    +0.000 A 
ATOM      2  C   UNL     1       0.800   7.383  21.571  0.00  0.00    +0.000 A 
ATOM      3  C   UNL     1       1.722   6.685  20.828  0.00  0.00    +0.000 A 
ATOM      4  C   UNL     1       2.208   7.201  19.630  0.00  0.00    +0.000 A 
ATOM      5  C   UNL     1       3.057   6.388  18.863  0.00  0.00    +0.000 A 
ATOM      6  C   UNL     1       3.520   6.797  17.617  0.00  0.00    +0.000 A 
ATOM      7  C   UNL     1       3.247   8.080  17.193  0.00  0.00    +0.000 A 
ATOM      8  C   UNL     1       2.523   8.940  18.029  0.00  0.00    +0.000 A 
ATOM      9  C   UNL     1       1.825   8.497  19.188  0.00  0.00    +0.000 A 
ATOM     10  C   UNL     1       0.772   9.218  19.896  0.00  0.00    +0.000 A 
ENDROOT
BRANCH  10  11
ATOM     11  C   UNL     1       0.162  10.527  19.376  0.00  0.00    +0.000 A 
ATOM     12  C   UNL     1       0.708  11.786  19.747  0.00  0.00    +0.000 A 
ATOM     13  C   UNL     1       0.204  12.995  19.281  0.00  0.00    +0.000 A 
ATOM     14  C   UNL     1      -0.792  13.009  18.322  0.00  0.00    +0.000 A 
ATOM     15  C   UNL     1      -1.336  11.816  17.850  0.00  0.00    +0.000 A 
ATOM     16  C   UNL     1      -2.242  11.881  16.772  0.00  0.00    +0.000 A 
ATOM     17  C   UNL     1      -2.754  10.730  16.184  0.00  0.00    +0.000 A 
ATOM     18  C   UNL     1      -2.483   9.511  16.770  0.00  0.00    +0.000 A 
ATOM     19  C   UNL     1      -1.710   9.464  17.938  0.00  0.00    +0.000 A 
ATOM     20  C   UNL     1      -0.956  10.572  18.425  0.00  0.00    +0.000 A 
BRANCH  12  21
ATOM     21  O   UNL     1       1.803  11.984  20.547  0.00  0.00    +0.000 OA
ATOM     22  H   UNL     1       2.592  12.132  20.003  0.00  0.00    +0.000 HD
ENDBRANCH  12  21
ENDBRANCH  10  11
BRANCH   1  23
ATOM     23  O   UNL     1      -0.795   9.115  21.831  0.00  0.00    +0.000 OA
BRANCH  23  25
ATOM     24  N   UNL     1      -1.305  11.192  22.489  0.00  0.00    +0.000 N 
ATOM     25  C   UNL     1      -0.533  10.116  22.774  0.00  0.00    +0.000 C 
ATOM     26  O   UNL     1       0.260  10.006  23.718  0.00  0.00    +0.000 OA
ATOM     27  H   UNL     1      -1.932  11.073  21.711  0.00  0.00    +0.000 HD
BRANCH  24  28
ATOM     28  C   UNL     1      -1.166  12.494  23.119  0.00  0.00    +0.000 C 
BRANCH  28  29
ATOM     29  C   UNL     1      -2.423  13.335  22.926  0.00  0.00    +0.000 C 
BRANCH  29  31
ATOM     30  C   UNL     1      -3.536  13.193  20.656  0.00  0.00    +0.000 C 
ATOM     31  C   UNL     1      -3.473  12.624  22.063  0.00  0.00    +0.000 C 
ENDBRANCH  29  31
ENDBRANCH  28  29
ENDBRANCH  24  28
ENDBRANCH  23  25
ENDBRANCH   1  23
TORSDOF 7
ENDMDL
