MODEL 1
REMARK VINA RESULT:      -8.3      0.000      0.000
REMARK  Name = 
REMARK  3 active torsions:
REMARK  status: ('A' for Active; 'I' for Inactive)
REMARK    1  A    between atoms: C_1  and  C_2
REMARK    2  A    between atoms: C_8  and  C_9
REMARK    3  A    between atoms: C_14  and  C_15
REMARK                            x       y       z     vdW  Elec       q    Type
REMARK                         _______ _______ _______ _____ _____    ______ ____
ROOT
ATOM      1  C   UNL     1       1.109   9.754  18.736  0.00  0.00    +0.000 C 
ATOM      2  O   UNL     1       1.601  10.048  17.642  0.00  0.00    +0.000 OA
ATOM      3  N   UNL     1       0.151  10.575  19.333  0.00  0.00    +0.000 N 
ATOM      4  C   UNL     1      -0.459  11.609  18.500  0.00  0.00    +0.000 C 
ATOM      5  C   UNL     1      -0.631  12.923  19.242  0.00  0.00    +0.000 C 
ATOM      6  C   UNL     1      -1.259  12.778  20.637  0.00  0.00    +0.000 C 
ATOM      7  C   UNL     1      -0.545  11.680  21.435  0.00  0.00    +0.000 C 
ATOM      8  C   UNL     1      -0.384  10.368  20.680  0.00  0.00    +0.000 C 
ENDROOT
BRANCH   1  16
ATOM      9  C   UNL     1       5.895   4.226  17.088  0.00  0.00    +0.000 C 
ATOM     10  C   UNL     1       5.109   4.318  18.375  0.00  0.00    +0.000 C 
ATOM     11  O   UNL     1       5.174   3.419  19.214  0.00  0.00    +0.000 OA
ATOM     12  N   UNL     1       4.309   5.449  18.547  0.00  0.00    +0.000 N 
ATOM     13  C   UNL     1       4.109   6.401  17.431  0.00  0.00    +0.000 C 
ATOM     14  C   UNL     1       3.235   7.645  17.627  0.00  0.00    +0.000 C 
ATOM     15  C   UNL     1       2.513   7.633  18.904  0.00  0.00    +0.000 A 
ATOM     16  C   UNL     1       1.594   8.559  19.447  0.00  0.00    +0.000 A 
ATOM     17  N   UNL     1       1.178   8.150  20.664  0.00  0.00    +0.000 NA
ATOM     18  N   UNL     1       1.832   6.988  20.870  0.00  0.00    +0.000 N 
ATOM     19  C   UNL     1       2.626   6.631  19.824  0.00  0.00    +0.000 A 
ATOM     20  C   UNL     1       3.398   5.388  19.701  0.00  0.00    +0.000 C 
ATOM     21  H   UNL     1       1.668   6.492  21.740  0.00  0.00    +0.000 HD
ENDBRANCH   1  16
BRANCH   6  22
ATOM     22  C   UNL     1      -2.782  12.643  20.642  0.00  0.00    +0.000 A 
ATOM     23  C   UNL     1      -3.489  12.292  19.471  0.00  0.00    +0.000 A 
ATOM     24  C   UNL     1      -4.874  12.169  19.447  0.00  0.00    +0.000 A 
ATOM     25  C   UNL     1      -5.610  12.386  20.605  0.00  0.00    +0.000 A 
ATOM     26  C   UNL     1      -4.943  12.716  21.775  0.00  0.00    +0.000 A 
ATOM     27  F   UNL     1      -5.672  12.914  22.884  0.00  0.00    +0.000 F 
ATOM     28  C   UNL     1      -3.546  12.845  21.811  0.00  0.00    +0.000 A 
ATOM     29 CL   UNL     1      -2.830  13.255  23.334  0.00  0.00    +0.000 Cl
ENDBRANCH   6  22
TORSDOF 2
ENDMDL
MODEL 2
REMARK VINA RESULT:      -8.2      1.530      1.735
REMARK  Name = 
REMARK  3 active torsions:
REMARK  status: ('A' for Active; 'I' for Inactive)
REMARK    1  A    between atoms: C_1  and  C_2
REMARK    2  A    between atoms: C_8  and  C_9
REMARK    3  A    between atoms: C_14  and  C_15
REMARK                            x       y       z     vdW  Elec       q    Type
REMARK                         _______ _______ _______ _____ _____    ______ ____
ROOT
ATOM      1  C   UNL     1       1.298   9.603  18.788  0.00  0.00    +0.000 C 
ATOM      2  O   UNL     1       2.124   9.932  17.931  0.00  0.00    +0.000 OA
ATOM      3  N   UNL     1       0.116  10.326  18.956  0.00  0.00    +0.000 N 
ATOM      4  C   UNL     1      -0.243  11.276  17.906  0.00  0.00    +0.000 C 
ATOM      5  C   UNL     1      -0.796  12.576  18.467  0.00  0.00    +0.000 C 
ATOM      6  C   UNL     1      -1.872  12.385  19.548  0.00  0.00    +0.000 C 
ATOM      7  C   UNL     1      -1.397  11.382  20.606  0.00  0.00    +0.000 C 
ATOM      8  C   UNL     1      -0.850  10.083  20.029  0.00  0.00    +0.000 C 
ENDROOT
BRANCH   1  16
ATOM      9  C   UNL     1       3.762   2.592  17.808  0.00  0.00    +0.000 C 
ATOM     10  C   UNL     1       3.397   3.188  19.147  0.00  0.00    +0.000 C 
ATOM     11  O   UNL     1       3.427   2.500  20.168  0.00  0.00    +0.000 OA
ATOM     12  N   UNL     1       3.015   4.531  19.159  0.00  0.00    +0.000 N 
ATOM     13  C   UNL     1       2.802   5.259  17.886  0.00  0.00    +0.000 C 
ATOM     14  C   UNL     1       2.390   6.735  17.904  0.00  0.00    +0.000 C 
ATOM     15  C   UNL     1       2.053   7.212  19.250  0.00  0.00    +0.000 A 
ATOM     16  C   UNL     1       1.601   8.478  19.688  0.00  0.00    +0.000 A 
ATOM     17  N   UNL     1       1.422   8.474  21.026  0.00  0.00    +0.000 NA
ATOM     18  N   UNL     1       1.758   7.225  21.408  0.00  0.00    +0.000 N 
ATOM     19  C   UNL     1       2.120   6.429  20.366  0.00  0.00    +0.000 A 
ATOM     20  C   UNL     1       2.457   5.001  20.436  0.00  0.00    +0.000 C 
ATOM     21  H   UNL     1       1.696   6.991  22.394  0.00  0.00    +0.000 HD
ENDBRANCH   1  16
BRANCH   6  22
ATOM     22  C   UNL     1      -3.273  12.089  19.011  0.00  0.00    +0.000 A 
ATOM     23  C   UNL     1      -3.459  11.475  17.753  0.00  0.00    +0.000 A 
ATOM     24  C   UNL     1      -4.721  11.201  17.239  0.00  0.00    +0.000 A 
ATOM     25  C   UNL     1      -5.855  11.524  17.974  0.00  0.00    +0.000 A 
ATOM     26  C   UNL     1      -5.705  12.113  19.221  0.00  0.00    +0.000 A 
ATOM     27  F   UNL     1      -6.812  12.410  19.917  0.00  0.00    +0.000 F 
ATOM     28  C   UNL     1      -4.436  12.396  19.748  0.00  0.00    +0.000 A 
ATOM     29 CL   UNL     1      -4.379  13.125  21.318  0.00  0.00    +0.000 Cl
ENDBRANCH   6  22
TORSDOF 2
ENDMDL
MODEL 3
REMARK VINA RESULT:      -8.2      7.831      8.923
REMARK  Name = 
REMARK  3 active torsions:
REMARK  status: ('A' for Active; 'I' for Inactive)
REMARK    1  A    between atoms: C_1  and  C_2
REMARK    2  A    between atoms: C_8  and  C_9
REMARK    3  A    between atoms: C_14  and  C_15
REMARK                            x       y       z     vdW  Elec       q    Type
REMARK                         _______ _______ _______ _____ _____    ______ ____
ROOT
ATOM      1  C   UNL     1       6.026  16.633  20.230  0.00  0.00    +0.000 C 
ATOM      2  O   UNL     1       6.182  16.596  21.455  0.00  0.00    +0.000 OA
ATOM      3  N   UNL     1       4.756  16.501  19.668  0.00  0.00    +0.000 N 
ATOM      4  C   UNL     1       3.610  16.622  20.565  0.00  0.00    +0.000 C 
ATOM      5  C   UNL     1       2.524  15.604  20.257  0.00  0.00    +0.000 C 
ATOM      6  C   UNL     1       2.159  15.509  18.767  0.00  0.00    +0.000 C 
ATOM      7  C   UNL     1       3.424  15.374  17.912  0.00  0.00    +0.000 C 
ATOM      8  C   UNL     1       4.501  16.403  18.230  0.00  0.00    +0.000 C 
ENDROOT
BRANCH   1  16
ATOM      9  C   UNL     1      11.206  11.827  17.730  0.00  0.00    +0.000 C 
ATOM     10  C   UNL     1      11.194  13.305  17.420  0.00  0.00    +0.000 C 
ATOM     11  O   UNL     1      12.109  13.816  16.771  0.00  0.00    +0.000 OA
ATOM     12  N   UNL     1      10.120  14.046  17.914  0.00  0.00    +0.000 N 
ATOM     13  C   UNL     1       9.154  13.429  18.853  0.00  0.00    +0.000 C 
ATOM     14  C   UNL     1       7.972  14.244  19.388  0.00  0.00    +0.000 C 
ATOM     15  C   UNL     1       8.060  15.666  19.035  0.00  0.00    +0.000 A 
ATOM     16  C   UNL     1       7.206  16.745  19.357  0.00  0.00    +0.000 A 
ATOM     17  N   UNL     1       7.670  17.890  18.811  0.00  0.00    +0.000 NA
ATOM     18  N   UNL     1       8.794  17.522  18.163  0.00  0.00    +0.000 N 
ATOM     19  C   UNL     1       9.075  16.197  18.294  0.00  0.00    +0.000 A 
ATOM     20  C   UNL     1      10.266  15.504  17.783  0.00  0.00    +0.000 C 
ATOM     21  H   UNL     1       9.321  18.237  17.671  0.00  0.00    +0.000 HD
ENDBRANCH   1  16
BRANCH   6  22
ATOM     22  C   UNL     1       1.201  16.594  18.272  0.00  0.00    +0.000 A 
ATOM     23  C   UNL     1       1.645  17.629  17.419  0.00  0.00    +0.000 A 
ATOM     24  C   UNL     1       0.797  18.630  16.960  0.00  0.00    +0.000 A 
ATOM     25  C   UNL     1      -0.541  18.631  17.332  0.00  0.00    +0.000 A 
ATOM     26  C   UNL     1      -1.012  17.618  18.157  0.00  0.00    +0.000 A 
ATOM     27  F   UNL     1      -2.309  17.634  18.498  0.00  0.00    +0.000 F 
ATOM     28  C   UNL     1      -0.164  16.604  18.627  0.00  0.00    +0.000 A 
ATOM     29 CL   UNL     1      -0.872  15.393  19.643  0.00  0.00    +0.000 Cl
ENDBRANCH   6  22
TORSDOF 2
ENDMDL
MODEL 4
REMARK VINA RESULT:      -8.1      4.120      6.538
REMARK  Name = 
REMARK  3 active torsions:
REMARK  status: ('A' for Active; 'I' for Inactive)
REMARK    1  A    between atoms: C_1  and  C_2
REMARK    2  A    between atoms: C_8  and  C_9
REMARK    3  A    between atoms: C_14  and  C_15
REMARK                            x       y       z     vdW  Elec       q    Type
REMARK                         _______ _______ _______ _____ _____    ______ ____
ROOT
ATOM      1  C   UNL     1       5.165   4.810  19.013  0.00  0.00    +0.000 C 
ATOM      2  O   UNL     1       5.364   3.811  19.712  0.00  0.00    +0.000 OA
ATOM      3  N   UNL     1       4.045   5.616  19.222  0.00  0.00    +0.000 N 
ATOM      4  C   UNL     1       3.298   5.418  20.461  0.00  0.00    +0.000 C 
ATOM      5  C   UNL     1       1.795   5.478  20.247  0.00  0.00    +0.000 C 
ATOM      6  C   UNL     1       1.329   6.678  19.408  0.00  0.00    +0.000 C 
ATOM      7  C   UNL     1       2.164   6.794  18.128  0.00  0.00    +0.000 C 
ATOM      8  C   UNL     1       3.668   6.737  18.359  0.00  0.00    +0.000 C 
ENDROOT
BRANCH   1  16
ATOM      9  C   UNL     1       5.358   3.071  11.725  0.00  0.00    +0.000 C 
ATOM     10  C   UNL     1       6.421   3.873  12.439  0.00  0.00    +0.000 C 
ATOM     11  O   UNL     1       7.438   4.234  11.844  0.00  0.00    +0.000 OA
ATOM     12  N   UNL     1       6.197   4.161  13.786  0.00  0.00    +0.000 N 
ATOM     13  C   UNL     1       5.062   3.539  14.505  0.00  0.00    +0.000 C 
ATOM     14  C   UNL     1       4.816   3.864  15.983  0.00  0.00    +0.000 C 
ATOM     15  C   UNL     1       5.908   4.641  16.580  0.00  0.00    +0.000 A 
ATOM     16  C   UNL     1       6.084   5.108  17.903  0.00  0.00    +0.000 A 
ATOM     17  N   UNL     1       7.243   5.794  18.008  0.00  0.00    +0.000 NA
ATOM     18  N   UNL     1       7.773   5.750  16.768  0.00  0.00    +0.000 N 
ATOM     19  C   UNL     1       7.012   5.046  15.887  0.00  0.00    +0.000 A 
ATOM     20  C   UNL     1       7.351   4.742  14.491  0.00  0.00    +0.000 C 
ATOM     21  H   UNL     1       8.665   6.210  16.610  0.00  0.00    +0.000 HD
ENDBRANCH   1  16
BRANCH   6  22
ATOM     22  C   UNL     1       1.212   7.992  20.182  0.00  0.00    +0.000 A 
ATOM     23  C   UNL     1       1.276   8.019  21.593  0.00  0.00    +0.000 A 
ATOM     24  C   UNL     1       1.167   9.198  22.321  0.00  0.00    +0.000 A 
ATOM     25  C   UNL     1       0.997  10.408  21.660  0.00  0.00    +0.000 A 
ATOM     26  C   UNL     1       0.947  10.417  20.273  0.00  0.00    +0.000 A 
ATOM     27  F   UNL     1       0.789  11.598  19.654  0.00  0.00    +0.000 F 
ATOM     28  C   UNL     1       1.054   9.233  19.529  0.00  0.00    +0.000 A 
ATOM     29 CL   UNL     1       0.984   9.376  17.804  0.00  0.00    +0.000 Cl
ENDBRANCH   6  22
TORSDOF 2
ENDMDL
MODEL 5
REMARK VINA RESULT:      -8.1      5.559     10.577
REMARK  Name = 
REMARK  3 active torsions:
REMARK  status: ('A' for Active; 'I' for Inactive)
REMARK    1  A    between atoms: C_1  and  C_2
REMARK    2  A    between atoms: C_8  and  C_9
REMARK    3  A    between atoms: C_14  and  C_15
REMARK                            x       y       z     vdW  Elec       q    Type
REMARK                         _______ _______ _______ _____ _____    ______ ____
ROOT
ATOM      1  C   UNL     1       3.204   6.358  18.431  0.00  0.00    +0.000 C 
ATOM      2  O   UNL     1       2.952   5.614  19.384  0.00  0.00    +0.000 OA
ATOM      3  N   UNL     1       4.124   5.977  17.452  0.00  0.00    +0.000 N 
ATOM      4  C   UNL     1       4.538   4.576  17.431  0.00  0.00    +0.000 C 
ATOM      5  C   UNL     1       6.026   4.417  17.167  0.00  0.00    +0.000 C 
ATOM      6  C   UNL     1       6.546   5.253  15.986  0.00  0.00    +0.000 C 
ATOM      7  C   UNL     1       6.068   6.705  16.105  0.00  0.00    +0.000 C 
ATOM      8  C   UNL     1       4.575   6.848  16.366  0.00  0.00    +0.000 C 
ENDROOT
BRANCH   1  16
ATOM      9  C   UNL     1      -0.932  10.459  23.148  0.00  0.00    +0.000 C 
ATOM     10  C   UNL     1      -0.563  10.885  21.746  0.00  0.00    +0.000 C 
ATOM     11  O   UNL     1      -0.997  11.937  21.277  0.00  0.00    +0.000 OA
ATOM     12  N   UNL     1       0.269  10.028  21.024  0.00  0.00    +0.000 N 
ATOM     13  C   UNL     1       0.602   8.686  21.554  0.00  0.00    +0.000 C 
ATOM     14  C   UNL     1       1.521   7.751  20.760  0.00  0.00    +0.000 C 
ATOM     15  C   UNL     1       1.813   8.255  19.413  0.00  0.00    +0.000 A 
ATOM     16  C   UNL     1       2.579   7.689  18.369  0.00  0.00    +0.000 A 
ATOM     17  N   UNL     1       2.587   8.508  17.296  0.00  0.00    +0.000 NA
ATOM     18  N   UNL     1       1.837   9.564  17.673  0.00  0.00    +0.000 N 
ATOM     19  C   UNL     1       1.334   9.438  18.931  0.00  0.00    +0.000 A 
ATOM     20  C   UNL     1       0.416  10.369  19.600  0.00  0.00    +0.000 C 
ATOM     21  H   UNL     1       1.702  10.320  17.008  0.00  0.00    +0.000 HD
ENDBRANCH   1  16
BRANCH   6  22
ATOM     22  C   UNL     1       6.295   4.639  14.608  0.00  0.00    +0.000 A 
ATOM     23  C   UNL     1       5.145   3.858  14.353  0.00  0.00    +0.000 A 
ATOM     24  C   UNL     1       4.896   3.284  13.112  0.00  0.00    +0.000 A 
ATOM     25  C   UNL     1       5.791   3.476  12.067  0.00  0.00    +0.000 A 
ATOM     26  C   UNL     1       6.921   4.252  12.281  0.00  0.00    +0.000 A 
ATOM     27  F   UNL     1       7.768   4.431  11.255  0.00  0.00    +0.000 F 
ATOM     28  C   UNL     1       7.184   4.834  13.530  0.00  0.00    +0.000 A 
ATOM     29 CL   UNL     1       8.624   5.786  13.670  0.00  0.00    +0.000 Cl
ENDBRANCH   6  22
TORSDOF 2
ENDMDL
MODEL 6
REMARK VINA RESULT:      -8.1      6.340      7.777
REMARK  Name = 
REMARK  3 active torsions:
REMARK  status: ('A' for Active; 'I' for Inactive)
REMARK    1  A    between atoms: C_1  and  C_2
REMARK    2  A    between atoms: C_8  and  C_9
REMARK    3  A    between atoms: C_14  and  C_15
REMARK                            x       y       z     vdW  Elec       q    Type
REMARK                         _______ _______ _______ _____ _____    ______ ____
ROOT
ATOM      1  C   UNL     1       3.545  16.525  18.462  0.00  0.00    +0.000 C 
ATOM      2  O   UNL     1       3.031  17.286  17.635  0.00  0.00    +0.000 OA
ATOM      3  N   UNL     1       2.801  15.498  19.045  0.00  0.00    +0.000 N 
ATOM      4  C   UNL     1       1.516  15.170  18.434  0.00  0.00    +0.000 C 
ATOM      5  C   UNL     1       0.437  14.896  19.469  0.00  0.00    +0.000 C 
ATOM      6  C   UNL     1       0.872  13.937  20.589  0.00  0.00    +0.000 C 
ATOM      7  C   UNL     1       2.222  14.371  21.171  0.00  0.00    +0.000 C 
ATOM      8  C   UNL     1       3.294  14.639  20.123  0.00  0.00    +0.000 C 
ENDROOT
BRANCH   1  16
ATOM      9  C   UNL     1      10.014  12.866  17.490  0.00  0.00    +0.000 C 
ATOM     10  C   UNL     1       9.863  14.132  18.300  0.00  0.00    +0.000 C 
ATOM     11  O   UNL     1      10.823  14.600  18.914  0.00  0.00    +0.000 OA
ATOM     12  N   UNL     1       8.598  14.720  18.325  0.00  0.00    +0.000 N 
ATOM     13  C   UNL     1       7.434  14.016  17.738  0.00  0.00    +0.000 C 
ATOM     14  C   UNL     1       6.047  14.669  17.763  0.00  0.00    +0.000 C 
ATOM     15  C   UNL     1       6.010  15.887  18.580  0.00  0.00    +0.000 A 
ATOM     16  C   UNL     1       4.936  16.754  18.885  0.00  0.00    +0.000 A 
ATOM     17  N   UNL     1       5.358  17.765  19.673  0.00  0.00    +0.000 NA
ATOM     18  N   UNL     1       6.674  17.526  19.851  0.00  0.00    +0.000 N 
ATOM     19  C   UNL     1       7.099  16.393  19.229  0.00  0.00    +0.000 A 
ATOM     20  C   UNL     1       8.446  15.812  19.300  0.00  0.00    +0.000 C 
ATOM     21  H   UNL     1       7.207  18.172  20.425  0.00  0.00    +0.000 HD
ENDBRANCH   1  16
BRANCH   6  22
ATOM     22  C   UNL     1       0.814  12.454  20.221  0.00  0.00    +0.000 A 
ATOM     23  C   UNL     1       1.444  11.965  19.055  0.00  0.00    +0.000 A 
ATOM     24  C   UNL     1       1.402  10.623  18.694  0.00  0.00    +0.000 A 
ATOM     25  C   UNL     1       0.730   9.710  19.496  0.00  0.00    +0.000 A 
ATOM     26  C   UNL     1       0.115  10.157  20.657  0.00  0.00    +0.000 A 
ATOM     27  F   UNL     1      -0.523   9.257  21.421  0.00  0.00    +0.000 F 
ATOM     28  C   UNL     1       0.149  11.509  21.029  0.00  0.00    +0.000 A 
ATOM     29 CL   UNL     1      -0.650  11.941  22.504  0.00  0.00    +0.000 Cl
ENDBRANCH   6  22
TORSDOF 2
ENDMDL
MODEL 7
REMARK VINA RESULT:      -8.0      8.406     11.378
REMARK  Name = 
REMARK  3 active torsions:
REMARK  status: ('A' for Active; 'I' for Inactive)
REMARK    1  A    between atoms: C_1  and  C_2
REMARK    2  A    between atoms: C_8  and  C_9
REMARK    3  A    between atoms: C_14  and  C_15
REMARK                            x       y       z     vdW  Elec       q    Type
REMARK                         _______ _______ _______ _____ _____    ______ ____
ROOT
ATOM      1  C   UNL     1       5.498  16.952  19.890  0.00  0.00    +0.000 C 
ATOM      2  O   UNL     1       5.503  17.929  20.647  0.00  0.00    +0.000 OA
ATOM      3  N   UNL     1       6.678  16.264  19.604  0.00  0.00    +0.000 N 
ATOM      4  C   UNL     1       7.838  16.543  20.448  0.00  0.00    +0.000 C 
ATOM      5  C   UNL     1       9.127  16.634  19.648  0.00  0.00    +0.000 C 
ATOM      6  C   UNL     1       9.327  15.482  18.650  0.00  0.00    +0.000 C 
ATOM      7  C   UNL     1       8.064  15.277  17.807  0.00  0.00    +0.000 C 
ATOM      8  C   UNL     1       6.781  15.183  18.623  0.00  0.00    +0.000 C 
ENDROOT
BRANCH   1  16
ATOM      9  C   UNL     1       0.367  11.621  21.088  0.00  0.00    +0.000 C 
ATOM     10  C   UNL     1       0.322  12.606  19.944  0.00  0.00    +0.000 C 
ATOM     11  O   UNL     1      -0.560  12.531  19.088  0.00  0.00    +0.000 OA
ATOM     12  N   UNL     1       1.325  13.576  19.905  0.00  0.00    +0.000 N 
ATOM     13  C   UNL     1       2.472  13.504  20.839  0.00  0.00    +0.000 C 
ATOM     14  C   UNL     1       3.567  14.575  20.798  0.00  0.00    +0.000 C 
ATOM     15  C   UNL     1       3.434  15.476  19.647  0.00  0.00    +0.000 A 
ATOM     16  C   UNL     1       4.243  16.558  19.230  0.00  0.00    +0.000 A 
ATOM     17  N   UNL     1       3.738  17.117  18.110  0.00  0.00    +0.000 NA
ATOM     18  N   UNL     1       2.633  16.391  17.840  0.00  0.00    +0.000 N 
ATOM     19  C   UNL     1       2.430  15.380  18.727  0.00  0.00    +0.000 A 
ATOM     20  C   UNL     1       1.372  14.364  18.663  0.00  0.00    +0.000 C 
ATOM     21  H   UNL     1       2.084  16.638  17.022  0.00  0.00    +0.000 HD
ENDBRANCH   1  16
BRANCH   6  22
ATOM     22  C   UNL     1       9.869  14.191  19.264  0.00  0.00    +0.000 A 
ATOM     23  C   UNL     1       9.577  13.838  20.601  0.00  0.00    +0.000 A 
ATOM     24  C   UNL     1      10.061  12.673  21.186  0.00  0.00    +0.000 A 
ATOM     25  C   UNL     1      10.854  11.804  20.447  0.00  0.00    +0.000 A 
ATOM     26  C   UNL     1      11.144  12.114  19.126  0.00  0.00    +0.000 A 
ATOM     27  F   UNL     1      11.906  11.257  18.429  0.00  0.00    +0.000 F 
ATOM     28  C   UNL     1      10.663  13.288  18.527  0.00  0.00    +0.000 A 
ATOM     29 CL   UNL     1      11.088  13.559  16.870  0.00  0.00    +0.000 Cl
ENDBRANCH   6  22
TORSDOF 2
ENDMDL
MODEL 8
REMARK VINA RESULT:      -7.9      7.870     11.020
REMARK  Name = 
REMARK  3 active torsions:
REMARK  status: ('A' for Active; 'I' for Inactive)
REMARK    1  A    between atoms: C_1  and  C_2
REMARK    2  A    between atoms: C_8  and  C_9
REMARK    3  A    between atoms: C_14  and  C_15
REMARK                            x       y       z     vdW  Elec       q    Type
REMARK                         _______ _______ _______ _____ _____    ______ ____
ROOT
ATOM      1  C   UNL     1       5.135  16.237  20.303  0.00  0.00    +0.000 C 
ATOM      2  O   UNL     1       5.193  16.918  21.332  0.00  0.00    +0.000 OA
ATOM      3  N   UNL     1       6.283  15.650  19.769  0.00  0.00    +0.000 N 
ATOM      4  C   UNL     1       7.473  15.614  20.616  0.00  0.00    +0.000 C 
ATOM      5  C   UNL     1       8.743  15.927  19.842  0.00  0.00    +0.000 C 
ATOM      6  C   UNL     1       8.878  15.153  18.521  0.00  0.00    +0.000 C 
ATOM      7  C   UNL     1       7.587  15.260  17.702  0.00  0.00    +0.000 C 
ATOM      8  C   UNL     1       6.323  14.940  18.489  0.00  0.00    +0.000 C 
ENDROOT
BRANCH   1  16
ATOM      9  C   UNL     1      -0.480  11.274  20.457  0.00  0.00    +0.000 C 
ATOM     10  C   UNL     1      -0.428  12.475  19.543  0.00  0.00    +0.000 C 
ATOM     11  O   UNL     1      -1.310  12.661  18.704  0.00  0.00    +0.000 OA
ATOM     12  N   UNL     1       0.662  13.334  19.688  0.00  0.00    +0.000 N 
ATOM     13  C   UNL     1       1.794  12.964  20.569  0.00  0.00    +0.000 C 
ATOM     14  C   UNL     1       2.986  13.914  20.731  0.00  0.00    +0.000 C 
ATOM     15  C   UNL     1       2.941  15.042  19.793  0.00  0.00    +0.000 A 
ATOM     16  C   UNL     1       3.850  16.107  19.596  0.00  0.00    +0.000 A 
ATOM     17  N   UNL     1       3.403  16.931  18.624  0.00  0.00    +0.000 NA
ATOM     18  N   UNL     1       2.237  16.382  18.228  0.00  0.00    +0.000 N 
ATOM     19  C   UNL     1       1.936  15.233  18.891  0.00  0.00    +0.000 A 
ATOM     20  C   UNL     1       0.787  14.354  18.635  0.00  0.00    +0.000 C 
ATOM     21  H   UNL     1       1.715  16.843  17.489  0.00  0.00    +0.000 HD
ENDBRANCH   1  16
BRANCH   6  22
ATOM     22  C   UNL     1       9.391  13.720  18.668  0.00  0.00    +0.000 A 
ATOM     23  C   UNL     1       8.706  12.634  18.079  0.00  0.00    +0.000 A 
ATOM     24  C   UNL     1       9.146  11.321  18.202  0.00  0.00    +0.000 A 
ATOM     25  C   UNL     1      10.304  11.043  18.919  0.00  0.00    +0.000 A 
ATOM     26  C   UNL     1      11.008  12.090  19.495  0.00  0.00    +0.000 A 
ATOM     27  F   UNL     1      12.127  11.799  20.177  0.00  0.00    +0.000 F 
ATOM     28  C   UNL     1      10.571  13.418  19.379  0.00  0.00    +0.000 A 
ATOM     29 CL   UNL     1      11.540  14.636  20.137  0.00  0.00    +0.000 Cl
ENDBRANCH   6  22
TORSDOF 2
ENDMDL
MODEL 9
REMARK VINA RESULT:      -7.9      3.120      4.109
REMARK  Name = 
REMARK  3 active torsions:
REMARK  status: ('A' for Active; 'I' for Inactive)
REMARK    1  A    between atoms: C_1  and  C_2
REMARK    2  A    between atoms: C_8  and  C_9
REMARK    3  A    between atoms: C_14  and  C_15
REMARK                            x       y       z     vdW  Elec       q    Type
REMARK                         _______ _______ _______ _____ _____    ______ ____
ROOT
ATOM      1  C   UNL     1      -0.264  10.312  19.516  0.00  0.00    +0.000 C 
ATOM      2  O   UNL     1      -1.369  10.034  19.040  0.00  0.00    +0.000 OA
ATOM      3  N   UNL     1       0.189  11.632  19.545  0.00  0.00    +0.000 N 
ATOM      4  C   UNL     1      -0.789  12.683  19.278  0.00  0.00    +0.000 C 
ATOM      5  C   UNL     1      -0.227  13.787  18.398  0.00  0.00    +0.000 C 
ATOM      6  C   UNL     1       1.153  14.300  18.841  0.00  0.00    +0.000 C 
ATOM      7  C   UNL     1       2.108  13.126  19.085  0.00  0.00    +0.000 C 
ATOM      8  C   UNL     1       1.532  12.030  19.971  0.00  0.00    +0.000 C 
ENDROOT
BRANCH   1  16
ATOM      9  C   UNL     1       5.006   6.019  16.358  0.00  0.00    +0.000 C 
ATOM     10  C   UNL     1       4.550   5.893  17.793  0.00  0.00    +0.000 C 
ATOM     11  O   UNL     1       4.996   5.000  18.515  0.00  0.00    +0.000 OA
ATOM     12  N   UNL     1       3.603   6.816  18.239  0.00  0.00    +0.000 N 
ATOM     13  C   UNL     1       2.951   7.741  17.282  0.00  0.00    +0.000 C 
ATOM     14  C   UNL     1       1.916   8.757  17.777  0.00  0.00    +0.000 C 
ATOM     15  C   UNL     1       1.540   8.543  19.179  0.00  0.00    +0.000 A 
ATOM     16  C   UNL     1       0.609   9.228  19.994  0.00  0.00    +0.000 A 
ATOM     17  N   UNL     1       0.590   8.695  21.234  0.00  0.00    +0.000 NA
ATOM     18  N   UNL     1       1.495   7.696  21.186  0.00  0.00    +0.000 N 
ATOM     19  C   UNL     1       2.071   7.558  19.961  0.00  0.00    +0.000 A 
ATOM     20  C   UNL     1       3.026   6.517  19.559  0.00  0.00    +0.000 C 
ATOM     21  H   UNL     1       1.649   7.146  22.025  0.00  0.00    +0.000 HD
ENDBRANCH   1  16
BRANCH   6  22
ATOM     22  C   UNL     1       1.122  15.310  19.988  0.00  0.00    +0.000 A 
ATOM     23  C   UNL     1       1.772  15.045  21.214  0.00  0.00    +0.000 A 
ATOM     24  C   UNL     1       1.754  15.943  22.275  0.00  0.00    +0.000 A 
ATOM     25  C   UNL     1       1.087  17.155  22.147  0.00  0.00    +0.000 A 
ATOM     26  C   UNL     1       0.452  17.452  20.950  0.00  0.00    +0.000 A 
ATOM     27  F   UNL     1      -0.180  18.631  20.845  0.00  0.00    +0.000 F 
ATOM     28  C   UNL     1       0.462  16.552  19.873  0.00  0.00    +0.000 A 
ATOM     29 CL   UNL     1      -0.360  17.040  18.429  0.00  0.00    +0.000 Cl
ENDBRANCH   6  22
TORSDOF 2
ENDMDL
