MODEL 1
REMARK VINA RESULT:      -8.1      0.000      0.000
REMARK  Name = 
REMARK  4 active torsions:
REMARK  status: ('A' for Active; 'I' for Inactive)
REMARK    1  A    between atoms: C_1  and  N_2
REMARK    2  A    between atoms: C_6  and  C_8
REMARK    3  A    between atoms: C_19  and  O_20
REMARK    4  A    between atoms: O_20  and  C_21
REMARK                            x       y       z     vdW  Elec       q    Type
REMARK                         _______ _______ _______ _____ _____    ______ ____
ROOT
ATOM      1  C   UNL     1      -1.052  11.764  22.584  0.00  0.00    +0.000 A 
ATOM      2  C   UNL     1      -0.894  10.650  23.394  0.00  0.00    +0.000 A 
ATOM      3  C   UNL     1      -0.220   9.530  22.898  0.00  0.00    +0.000 A 
ATOM      4  C   UNL     1       0.290   9.481  21.608  0.00  0.00    +0.000 A 
ATOM      5  N   UNL     1       0.979   8.386  21.270  0.00  0.00    +0.000 NA
ATOM      6  C   UNL     1       1.522   8.292  20.050  0.00  0.00    +0.000 A 
ATOM      7  C   UNL     1       2.224   7.135  19.742  0.00  0.00    +0.000 A 
ATOM      8  C   UNL     1       2.842   6.956  18.504  0.00  0.00    +0.000 A 
ATOM      9  C   UNL     1       2.761   7.960  17.549  0.00  0.00    +0.000 A 
ATOM     10  C   UNL     1       2.051   9.127  17.835  0.00  0.00    +0.000 A 
ATOM     11  C   UNL     1       1.415   9.312  19.089  0.00  0.00    +0.000 A 
ATOM     12  C   UNL     1       0.671  10.463  19.454  0.00  0.00    +0.000 A 
ATOM     13  C   UNL     1       0.066  10.565  20.737  0.00  0.00    +0.000 A 
ATOM     14  C   UNL     1      -0.693  11.660  21.233  0.00  0.00    +0.000 A 
ENDROOT
BRANCH   1  20
ATOM     15  C   UNL     1      -5.893  15.582  20.805  0.00  0.00    +0.000 C 
ATOM     16  N   UNL     1      -5.228  14.784  21.833  0.00  0.00    +0.000 NA
ATOM     17  C   UNL     1      -4.126  15.552  22.460  0.00  0.00    +0.000 C 
ATOM     18  C   UNL     1      -3.334  14.727  23.497  0.00  0.00    +0.000 C 
ATOM     19  N   UNL     1      -2.892  13.446  22.931  0.00  0.00    +0.000 N 
ATOM     20  C   UNL     1      -1.552  13.081  23.067  0.00  0.00    +0.000 C 
ATOM     21  O   UNL     1      -0.737  13.802  23.644  0.00  0.00    +0.000 OA
ATOM     22  C   UNL     1      -4.013  12.682  22.368  0.00  0.00    +0.000 C 
ATOM     23  C   UNL     1      -4.708  13.519  21.272  0.00  0.00    +0.000 C 
ENDBRANCH   1  20
BRANCH  12  24
ATOM     24  O   UNL     1       0.540  11.420  18.456  0.00  0.00    +0.000 OA
BRANCH  24  25
ATOM     25  C   UNL     1       1.223  12.615  18.497  0.00  0.00    +0.000 A 
ATOM     26  C   UNL     1       2.608  12.765  18.395  0.00  0.00    +0.000 A 
ATOM     27  C   UNL     1       3.194  14.012  18.622  0.00  0.00    +0.000 A 
ATOM     28  C   UNL     1       2.395  15.130  18.854  0.00  0.00    +0.000 A 
ATOM     29  C   UNL     1       1.007  15.004  18.861  0.00  0.00    +0.000 A 
ATOM     30  C   UNL     1       0.423  13.748  18.691  0.00  0.00    +0.000 A 
ENDBRANCH  24  25
ENDBRANCH  12  24
TORSDOF 3
ENDMDL
MODEL 2
REMARK VINA RESULT:      -8.0      2.875      7.999
REMARK  Name = 
REMARK  4 active torsions:
REMARK  status: ('A' for Active; 'I' for Inactive)
REMARK    1  A    between atoms: C_1  and  N_2
REMARK    2  A    between atoms: C_6  and  C_8
REMARK    3  A    between atoms: C_19  and  O_20
REMARK    4  A    between atoms: O_20  and  C_21
REMARK                            x       y       z     vdW  Elec       q    Type
REMARK                         _______ _______ _______ _____ _____    ______ ____
ROOT
ATOM      1  C   UNL     1       1.585   8.474  20.069  0.00  0.00    +0.000 A 
ATOM      2  C   UNL     1       1.659   8.213  21.429  0.00  0.00    +0.000 A 
ATOM      3  C   UNL     1       0.864   8.948  22.313  0.00  0.00    +0.000 A 
ATOM      4  C   UNL     1       0.004   9.949  21.884  0.00  0.00    +0.000 A 
ATOM      5  N   UNL     1      -0.759  10.532  22.813  0.00  0.00    +0.000 NA
ATOM      6  C   UNL     1      -1.631  11.484  22.458  0.00  0.00    +0.000 A 
ATOM      7  C   UNL     1      -2.399  12.065  23.458  0.00  0.00    +0.000 A 
ATOM      8  C   UNL     1      -3.348  13.048  23.179  0.00  0.00    +0.000 A 
ATOM      9  C   UNL     1      -3.539  13.461  21.868  0.00  0.00    +0.000 A 
ATOM     10  C   UNL     1      -2.769  12.897  20.850  0.00  0.00    +0.000 A 
ATOM     11  C   UNL     1      -1.799  11.902  21.126  0.00  0.00    +0.000 A 
ATOM     12  C   UNL     1      -0.974  11.286  20.151  0.00  0.00    +0.000 A 
ATOM     13  C   UNL     1      -0.026  10.292  20.519  0.00  0.00    +0.000 A 
ATOM     14  C   UNL     1       0.851   9.592  19.646  0.00  0.00    +0.000 A 
ENDROOT
BRANCH   1  20
ATOM     15  C   UNL     1       4.163   2.598  20.103  0.00  0.00    +0.000 C 
ATOM     16  N   UNL     1       3.165   3.534  19.592  0.00  0.00    +0.000 NA
ATOM     17  C   UNL     1       3.741   4.380  18.519  0.00  0.00    +0.000 C 
ATOM     18  C   UNL     1       2.753   5.446  17.999  0.00  0.00    +0.000 C 
ATOM     19  N   UNL     1       2.185   6.229  19.104  0.00  0.00    +0.000 N 
ATOM     20  C   UNL     1       2.210   7.621  19.021  0.00  0.00    +0.000 C 
ATOM     21  O   UNL     1       2.694   8.206  18.050  0.00  0.00    +0.000 OA
ATOM     22  C   UNL     1       1.572   5.368  20.124  0.00  0.00    +0.000 C 
ATOM     23  C   UNL     1       2.629   4.387  20.675  0.00  0.00    +0.000 C 
ENDBRANCH   1  20
BRANCH  12  24
ATOM     24  O   UNL     1      -1.130  11.769  18.858  0.00  0.00    +0.000 OA
BRANCH  24  25
ATOM     25  C   UNL     1      -1.969  11.165  17.949  0.00  0.00    +0.000 A 
ATOM     26  C   UNL     1      -1.654  10.055  17.162  0.00  0.00    +0.000 A 
ATOM     27  C   UNL     1      -2.529   9.642  16.156  0.00  0.00    +0.000 A 
ATOM     28  C   UNL     1      -3.762  10.272  15.996  0.00  0.00    +0.000 A 
ATOM     29  C   UNL     1      -4.123  11.319  16.842  0.00  0.00    +0.000 A 
ATOM     30  C   UNL     1      -3.225  11.769  17.811  0.00  0.00    +0.000 A 
ENDBRANCH  24  25
ENDBRANCH  12  24
TORSDOF 3
ENDMDL
MODEL 3
REMARK VINA RESULT:      -8.0      2.068      2.816
REMARK  Name = 
REMARK  4 active torsions:
REMARK  status: ('A' for Active; 'I' for Inactive)
REMARK    1  A    between atoms: C_1  and  N_2
REMARK    2  A    between atoms: C_6  and  C_8
REMARK    3  A    between atoms: C_19  and  O_20
REMARK    4  A    between atoms: O_20  and  C_21
REMARK                            x       y       z     vdW  Elec       q    Type
REMARK                         _______ _______ _______ _____ _____    ______ ____
ROOT
ATOM      1  C   UNL     1      -1.622  11.920  22.492  0.00  0.00    +0.000 A 
ATOM      2  C   UNL     1      -1.191  11.006  23.442  0.00  0.00    +0.000 A 
ATOM      3  C   UNL     1      -0.379   9.939  23.050  0.00  0.00    +0.000 A 
ATOM      4  C   UNL     1       0.005   9.743  21.730  0.00  0.00    +0.000 A 
ATOM      5  N   UNL     1       0.842   8.730  21.487  0.00  0.00    +0.000 NA
ATOM      6  C   UNL     1       1.275   8.508  20.239  0.00  0.00    +0.000 A 
ATOM      7  C   UNL     1       2.138   7.441  20.033  0.00  0.00    +0.000 A 
ATOM      8  C   UNL     1       2.657   7.146  18.772  0.00  0.00    +0.000 A 
ATOM      9  C   UNL     1       2.307   7.939  17.688  0.00  0.00    +0.000 A 
ATOM     10  C   UNL     1       1.431   9.009  17.872  0.00  0.00    +0.000 A 
ATOM     11  C   UNL     1       0.896   9.311  19.150  0.00  0.00    +0.000 A 
ATOM     12  C   UNL     1      -0.003  10.375  19.417  0.00  0.00    +0.000 A 
ATOM     13  C   UNL     1      -0.490  10.605  20.733  0.00  0.00    +0.000 A 
ATOM     14  C   UNL     1      -1.382  11.635  21.140  0.00  0.00    +0.000 A 
ENDROOT
BRANCH   1  20
ATOM     15  C   UNL     1      -6.272  15.314  19.657  0.00  0.00    +0.000 C 
ATOM     16  N   UNL     1      -5.770  14.592  20.824  0.00  0.00    +0.000 NA
ATOM     17  C   UNL     1      -4.871  15.456  21.626  0.00  0.00    +0.000 C 
ATOM     18  C   UNL     1      -4.244  14.718  22.828  0.00  0.00    +0.000 C 
ATOM     19  N   UNL     1      -3.608  13.463  22.408  0.00  0.00    +0.000 N 
ATOM     20  C   UNL     1      -2.300  13.205  22.818  0.00  0.00    +0.000 C 
ATOM     21  O   UNL     1      -1.669  13.999  23.517  0.00  0.00    +0.000 OA
ATOM     22  C   UNL     1      -4.538  12.602  21.664  0.00  0.00    +0.000 C 
ATOM     23  C   UNL     1      -5.060  13.358  20.423  0.00  0.00    +0.000 C 
ENDBRANCH   1  20
BRANCH  12  24
ATOM     24  O   UNL     1      -0.398  11.106  18.305  0.00  0.00    +0.000 OA
BRANCH  24  25
ATOM     25  C   UNL     1      -1.583  10.857  17.650  0.00  0.00    +0.000 A 
ATOM     26  C   UNL     1      -1.787   9.867  16.685  0.00  0.00    +0.000 A 
ATOM     27  C   UNL     1      -2.986   9.825  15.971  0.00  0.00    +0.000 A 
ATOM     28  C   UNL     1      -4.019  10.707  16.282  0.00  0.00    +0.000 A 
ATOM     29  C   UNL     1      -3.855  11.635  17.310  0.00  0.00    +0.000 A 
ATOM     30  C   UNL     1      -2.638  11.714  17.986  0.00  0.00    +0.000 A 
ENDBRANCH  24  25
ENDBRANCH  12  24
TORSDOF 3
ENDMDL
MODEL 4
REMARK VINA RESULT:      -7.9      1.886      2.693
REMARK  Name = 
REMARK  4 active torsions:
REMARK  status: ('A' for Active; 'I' for Inactive)
REMARK    1  A    between atoms: C_1  and  N_2
REMARK    2  A    between atoms: C_6  and  C_8
REMARK    3  A    between atoms: C_19  and  O_20
REMARK    4  A    between atoms: O_20  and  C_21
REMARK                            x       y       z     vdW  Elec       q    Type
REMARK                         _______ _______ _______ _____ _____    ______ ____
ROOT
ATOM      1  C   UNL     1      -1.045  11.653  22.655  0.00  0.00    +0.000 A 
ATOM      2  C   UNL     1      -0.679  10.660  23.551  0.00  0.00    +0.000 A 
ATOM      3  C   UNL     1       0.037   9.551  23.091  0.00  0.00    +0.000 A 
ATOM      4  C   UNL     1       0.388   9.394  21.757  0.00  0.00    +0.000 A 
ATOM      5  N   UNL     1       1.135   8.329  21.449  0.00  0.00    +0.000 NA
ATOM      6  C   UNL     1       1.532   8.137  20.185  0.00  0.00    +0.000 A 
ATOM      7  C   UNL     1       2.302   7.016  19.911  0.00  0.00    +0.000 A 
ATOM      8  C   UNL     1       2.779   6.745  18.628  0.00  0.00    +0.000 A 
ATOM      9  C   UNL     1       2.482   7.619  17.591  0.00  0.00    +0.000 A 
ATOM     10  C   UNL     1       1.699   8.746  17.844  0.00  0.00    +0.000 A 
ATOM     11  C   UNL     1       1.207   9.024  19.144  0.00  0.00    +0.000 A 
ATOM     12  C   UNL     1       0.402  10.142  19.480  0.00  0.00    +0.000 A 
ATOM     13  C   UNL     1      -0.047  10.344  20.814  0.00  0.00    +0.000 A 
ATOM     14  C   UNL     1      -0.846  11.421  21.287  0.00  0.00    +0.000 A 
ENDROOT
BRANCH   1  20
ATOM     15  C   UNL     1      -5.694  15.384  20.279  0.00  0.00    +0.000 C 
ATOM     16  N   UNL     1      -5.141  14.610  21.388  0.00  0.00    +0.000 NA
ATOM     17  C   UNL     1      -4.125  15.401  22.124  0.00  0.00    +0.000 C 
ATOM     18  C   UNL     1      -3.447  14.601  23.256  0.00  0.00    +0.000 C 
ATOM     19  N   UNL     1      -2.930  13.317  22.765  0.00  0.00    +0.000 N 
ATOM     20  C   UNL     1      -1.611  12.971  23.057  0.00  0.00    +0.000 C 
ATOM     21  O   UNL     1      -0.874  13.710  23.712  0.00  0.00    +0.000 OA
ATOM     22  C   UNL     1      -3.972  12.531  22.090  0.00  0.00    +0.000 C 
ATOM     23  C   UNL     1      -4.547  13.343  20.910  0.00  0.00    +0.000 C 
ENDBRANCH   1  20
BRANCH  12  24
ATOM     24  O   UNL     1       0.055  10.960  18.413  0.00  0.00    +0.000 OA
BRANCH  24  25
ATOM     25  C   UNL     1      -1.220  10.982  17.894  0.00  0.00    +0.000 A 
ATOM     26  C   UNL     1      -2.185  11.961  18.146  0.00  0.00    +0.000 A 
ATOM     27  C   UNL     1      -3.495  11.781  17.698  0.00  0.00    +0.000 A 
ATOM     28  C   UNL     1      -3.823  10.674  16.916  0.00  0.00    +0.000 A 
ATOM     29  C   UNL     1      -2.841   9.744  16.581  0.00  0.00    +0.000 A 
ATOM     30  C   UNL     1      -1.545   9.894  17.075  0.00  0.00    +0.000 A 
ENDBRANCH  24  25
ENDBRANCH  12  24
TORSDOF 3
ENDMDL
MODEL 5
REMARK VINA RESULT:      -7.6      3.261      6.327
REMARK  Name = 
REMARK  4 active torsions:
REMARK  status: ('A' for Active; 'I' for Inactive)
REMARK    1  A    between atoms: C_1  and  N_2
REMARK    2  A    between atoms: C_6  and  C_8
REMARK    3  A    between atoms: C_19  and  O_20
REMARK    4  A    between atoms: O_20  and  C_21
REMARK                            x       y       z     vdW  Elec       q    Type
REMARK                         _______ _______ _______ _____ _____    ______ ____
ROOT
ATOM      1  C   UNL     1       1.662   9.194  19.083  0.00  0.00    +0.000 A 
ATOM      2  C   UNL     1       0.795   9.005  20.149  0.00  0.00    +0.000 A 
ATOM      3  C   UNL     1       0.766   7.769  20.799  0.00  0.00    +0.000 A 
ATOM      4  C   UNL     1       1.568   6.705  20.409  0.00  0.00    +0.000 A 
ATOM      5  N   UNL     1       1.506   5.595  21.153  0.00  0.00    +0.000 NA
ATOM      6  C   UNL     1       2.278   4.545  20.847  0.00  0.00    +0.000 A 
ATOM      7  C   UNL     1       2.177   3.413  21.643  0.00  0.00    +0.000 A 
ATOM      8  C   UNL     1       2.956   2.279  21.414  0.00  0.00    +0.000 A 
ATOM      9  C   UNL     1       3.863   2.275  20.363  0.00  0.00    +0.000 A 
ATOM     10  C   UNL     1       3.972   3.399  19.543  0.00  0.00    +0.000 A 
ATOM     11  C   UNL     1       3.179   4.553  19.768  0.00  0.00    +0.000 A 
ATOM     12  C   UNL     1       3.226   5.730  18.978  0.00  0.00    +0.000 A 
ATOM     13  C   UNL     1       2.393   6.843  19.277  0.00  0.00    +0.000 A 
ATOM     14  C   UNL     1       2.346   8.080  18.577  0.00  0.00    +0.000 A 
ENDROOT
BRANCH   1  20
ATOM     15  C   UNL     1      -0.779  15.072  19.900  0.00  0.00    +0.000 C 
ATOM     16  N   UNL     1       0.370  14.170  19.919  0.00  0.00    +0.000 NA
ATOM     17  C   UNL     1       0.914  13.987  18.552  0.00  0.00    +0.000 C 
ATOM     18  C   UNL     1       2.080  12.976  18.500  0.00  0.00    +0.000 C 
ATOM     19  N   UNL     1       1.714  11.709  19.146  0.00  0.00    +0.000 N 
ATOM     20  C   UNL     1       1.939  10.517  18.458  0.00  0.00    +0.000 C 
ATOM     21  O   UNL     1       2.432  10.501  17.329  0.00  0.00    +0.000 OA
ATOM     22  C   UNL     1       1.232  11.916  20.518  0.00  0.00    +0.000 C 
ATOM     23  C   UNL     1       0.009  12.859  20.500  0.00  0.00    +0.000 C 
ENDBRANCH   1  20
BRANCH  12  24
ATOM     24  O   UNL     1       4.085   5.674  17.888  0.00  0.00    +0.000 OA
BRANCH  24  25
ATOM     25  C   UNL     1       5.411   6.032  17.985  0.00  0.00    +0.000 A 
ATOM     26  C   UNL     1       6.351   5.449  18.838  0.00  0.00    +0.000 A 
ATOM     27  C   UNL     1       7.621   6.015  18.966  0.00  0.00    +0.000 A 
ATOM     28  C   UNL     1       7.989   7.101  18.174  0.00  0.00    +0.000 A 
ATOM     29  C   UNL     1       7.086   7.626  17.251  0.00  0.00    +0.000 A 
ATOM     30  C   UNL     1       5.798   7.098  17.163  0.00  0.00    +0.000 A 
ENDBRANCH  24  25
ENDBRANCH  12  24
TORSDOF 3
ENDMDL
MODEL 6
REMARK VINA RESULT:      -7.6      2.357      3.542
REMARK  Name = 
REMARK  4 active torsions:
REMARK  status: ('A' for Active; 'I' for Inactive)
REMARK    1  A    between atoms: C_1  and  N_2
REMARK    2  A    between atoms: C_6  and  C_8
REMARK    3  A    between atoms: C_19  and  O_20
REMARK    4  A    between atoms: O_20  and  C_21
REMARK                            x       y       z     vdW  Elec       q    Type
REMARK                         _______ _______ _______ _____ _____    ______ ____
ROOT
ATOM      1  C   UNL     1      -1.221  11.282  22.582  0.00  0.00    +0.000 A 
ATOM      2  C   UNL     1      -0.789  10.284  23.443  0.00  0.00    +0.000 A 
ATOM      3  C   UNL     1       0.025   9.259  22.953  0.00  0.00    +0.000 A 
ATOM      4  C   UNL     1       0.412   9.189  21.622  0.00  0.00    +0.000 A 
ATOM      5  N   UNL     1       1.252   8.205  21.286  0.00  0.00    +0.000 NA
ATOM      6  C   UNL     1       1.686   8.101  20.024  0.00  0.00    +0.000 A 
ATOM      7  C   UNL     1       2.552   7.060  19.720  0.00  0.00    +0.000 A 
ATOM      8  C   UNL     1       3.074   6.887  18.438  0.00  0.00    +0.000 A 
ATOM      9  C   UNL     1       2.724   7.777  17.432  0.00  0.00    +0.000 A 
ATOM     10  C   UNL     1       1.845   8.824  17.714  0.00  0.00    +0.000 A 
ATOM     11  C   UNL     1       1.307   9.003  19.014  0.00  0.00    +0.000 A 
ATOM     12  C   UNL     1       0.406  10.035  19.379  0.00  0.00    +0.000 A 
ATOM     13  C   UNL     1      -0.083  10.140  20.710  0.00  0.00    +0.000 A 
ATOM     14  C   UNL     1      -0.978  11.126  21.210  0.00  0.00    +0.000 A 
ENDROOT
BRANCH   1  20
ATOM     15  C   UNL     1       0.761  17.312  23.516  0.00  0.00    +0.000 C 
ATOM     16  N   UNL     1      -0.117  16.365  22.833  0.00  0.00    +0.000 NA
ATOM     17  C   UNL     1      -1.289  16.036  23.679  0.00  0.00    +0.000 C 
ATOM     18  C   UNL     1      -2.210  14.973  23.041  0.00  0.00    +0.000 C 
ATOM     19  N   UNL     1      -1.447  13.787  22.630  0.00  0.00    +0.000 N 
ATOM     20  C   UNL     1      -1.902  12.530  23.026  0.00  0.00    +0.000 C 
ATOM     21  O   UNL     1      -2.919  12.390  23.707  0.00  0.00    +0.000 OA
ATOM     22  C   UNL     1      -0.326  14.138  21.748  0.00  0.00    +0.000 C 
ATOM     23  C   UNL     1       0.610  15.129  22.473  0.00  0.00    +0.000 C 
ENDBRANCH   1  20
BRANCH  12  24
ATOM     24  O   UNL     1       0.012  10.867  18.339  0.00  0.00    +0.000 OA
BRANCH  24  25
ATOM     25  C   UNL     1      -1.289  10.906  17.888  0.00  0.00    +0.000 A 
ATOM     26  C   UNL     1      -2.230  11.890  18.203  0.00  0.00    +0.000 A 
ATOM     27  C   UNL     1      -3.563  11.727  17.822  0.00  0.00    +0.000 A 
ATOM     28  C   UNL     1      -3.942  10.633  17.045  0.00  0.00    +0.000 A 
ATOM     29  C   UNL     1      -2.988   9.699  16.647  0.00  0.00    +0.000 A 
ATOM     30  C   UNL     1      -1.667   9.831  17.075  0.00  0.00    +0.000 A 
ENDBRANCH  24  25
ENDBRANCH  12  24
TORSDOF 3
ENDMDL
MODEL 7
REMARK VINA RESULT:      -7.5      3.701      7.519
REMARK  Name = 
REMARK  4 active torsions:
REMARK  status: ('A' for Active; 'I' for Inactive)
REMARK    1  A    between atoms: C_1  and  N_2
REMARK    2  A    between atoms: C_6  and  C_8
REMARK    3  A    between atoms: C_19  and  O_20
REMARK    4  A    between atoms: O_20  and  C_21
REMARK                            x       y       z     vdW  Elec       q    Type
REMARK                         _______ _______ _______ _____ _____    ______ ____
ROOT
ATOM      1  C   UNL     1       2.131   7.778  19.622  0.00  0.00    +0.000 A 
ATOM      2  C   UNL     1       2.300   8.761  18.659  0.00  0.00    +0.000 A 
ATOM      3  C   UNL     1       3.083   8.492  17.534  0.00  0.00    +0.000 A 
ATOM      4  C   UNL     1       3.718   7.272  17.344  0.00  0.00    +0.000 A 
ATOM      5  N   UNL     1       4.380   7.105  16.195  0.00  0.00    +0.000 NA
ATOM      6  C   UNL     1       4.987   5.940  15.939  0.00  0.00    +0.000 A 
ATOM      7  C   UNL     1       5.667   5.815  14.735  0.00  0.00    +0.000 A 
ATOM      8  C   UNL     1       6.311   4.632  14.373  0.00  0.00    +0.000 A 
ATOM      9  C   UNL     1       6.274   3.543  15.234  0.00  0.00    +0.000 A 
ATOM     10  C   UNL     1       5.606   3.653  16.454  0.00  0.00    +0.000 A 
ATOM     11  C   UNL     1       4.954   4.854  16.830  0.00  0.00    +0.000 A 
ATOM     12  C   UNL     1       4.261   5.047  18.053  0.00  0.00    +0.000 A 
ATOM     13  C   UNL     1       3.633   6.288  18.348  0.00  0.00    +0.000 A 
ATOM     14  C   UNL     1       2.902   6.611  19.524  0.00  0.00    +0.000 A 
ENDROOT
BRANCH   1  20
ATOM     15  C   UNL     1      -0.710  12.680  22.635  0.00  0.00    +0.000 C 
ATOM     16  N   UNL     1      -0.813  11.451  21.852  0.00  0.00    +0.000 NA
ATOM     17  C   UNL     1      -0.698  10.260  22.728  0.00  0.00    +0.000 C 
ATOM     18  C   UNL     1      -0.716   8.932  21.942  0.00  0.00    +0.000 C 
ATOM     19  N   UNL     1       0.273   8.943  20.857  0.00  0.00    +0.000 N 
ATOM     20  C   UNL     1       1.154   7.868  20.743  0.00  0.00    +0.000 C 
ATOM     21  O   UNL     1       1.123   6.916  21.525  0.00  0.00    +0.000 OA
ATOM     22  C   UNL     1       0.099  10.103  19.972  0.00  0.00    +0.000 C 
ATOM     23  C   UNL     1       0.221  11.403  20.796  0.00  0.00    +0.000 C 
ENDBRANCH   1  20
BRANCH  12  24
ATOM     24  O   UNL     1       4.303   3.971  18.929  0.00  0.00    +0.000 OA
BRANCH  24  25
ATOM     25  C   UNL     1       3.167   3.471  19.527  0.00  0.00    +0.000 A 
ATOM     26  C   UNL     1       1.971   3.164  18.873  0.00  0.00    +0.000 A 
ATOM     27  C   UNL     1       0.838   2.827  19.615  0.00  0.00    +0.000 A 
ATOM     28  C   UNL     1       0.918   2.700  21.001  0.00  0.00    +0.000 A 
ATOM     29  C   UNL     1       2.133   2.912  21.649  0.00  0.00    +0.000 A 
ATOM     30  C   UNL     1       3.253   3.304  20.914  0.00  0.00    +0.000 A 
ENDBRANCH  24  25
ENDBRANCH  12  24
TORSDOF 3
ENDMDL
MODEL 8
REMARK VINA RESULT:      -7.5      3.063      6.547
REMARK  Name = 
REMARK  4 active torsions:
REMARK  status: ('A' for Active; 'I' for Inactive)
REMARK    1  A    between atoms: C_1  and  N_2
REMARK    2  A    between atoms: C_6  and  C_8
REMARK    3  A    between atoms: C_19  and  O_20
REMARK    4  A    between atoms: O_20  and  C_21
REMARK                            x       y       z     vdW  Elec       q    Type
REMARK                         _______ _______ _______ _____ _____    ______ ____
ROOT
ATOM      1  C   UNL     1       1.068   9.190  19.877  0.00  0.00    +0.000 A 
ATOM      2  C   UNL     1       1.247   9.942  18.725  0.00  0.00    +0.000 A 
ATOM      3  C   UNL     1       2.109   9.476  17.728  0.00  0.00    +0.000 A 
ATOM      4  C   UNL     1       2.813   8.287  17.851  0.00  0.00    +0.000 A 
ATOM      5  N   UNL     1       3.551   7.908  16.802  0.00  0.00    +0.000 NA
ATOM      6  C   UNL     1       4.229   6.755  16.845  0.00  0.00    +0.000 A 
ATOM      7  C   UNL     1       4.985   6.406  15.735  0.00  0.00    +0.000 A 
ATOM      8  C   UNL     1       5.707   5.213  15.682  0.00  0.00    +0.000 A 
ATOM      9  C   UNL     1       5.672   4.345  16.764  0.00  0.00    +0.000 A 
ATOM     10  C   UNL     1       4.928   4.683  17.895  0.00  0.00    +0.000 A 
ATOM     11  C   UNL     1       4.196   5.896  17.958  0.00  0.00    +0.000 A 
ATOM     12  C   UNL     1       3.422   6.314  19.070  0.00  0.00    +0.000 A 
ATOM     13  C   UNL     1       2.717   7.549  19.046  0.00  0.00    +0.000 A 
ATOM     14  C   UNL     1       1.901   8.081  20.082  0.00  0.00    +0.000 A 
ENDROOT
BRANCH   1  20
ATOM     15  C   UNL     1      -0.621  14.434  23.167  0.00  0.00    +0.000 C 
ATOM     16  N   UNL     1      -0.969  13.363  22.235  0.00  0.00    +0.000 NA
ATOM     17  C   UNL     1      -1.310  12.121  22.970  0.00  0.00    +0.000 C 
ATOM     18  C   UNL     1      -1.605  10.931  22.032  0.00  0.00    +0.000 C 
ATOM     19  N   UNL     1      -0.523  10.742  21.057  0.00  0.00    +0.000 N 
ATOM     20  C   UNL     1       0.023   9.468  20.900  0.00  0.00    +0.000 C 
ATOM     21  O   UNL     1      -0.377   8.504  21.555  0.00  0.00    +0.000 OA
ATOM     22  C   UNL     1      -0.245  11.973  20.305  0.00  0.00    +0.000 C 
ATOM     23  C   UNL     1       0.135  13.103  21.286  0.00  0.00    +0.000 C 
ENDBRANCH   1  20
BRANCH  12  24
ATOM     24  O   UNL     1       3.463   5.466  20.168  0.00  0.00    +0.000 OA
BRANCH  24  25
ATOM     25  C   UNL     1       2.526   4.476  20.363  0.00  0.00    +0.000 A 
ATOM     26  C   UNL     1       2.324   3.767  21.550  0.00  0.00    +0.000 A 
ATOM     27  C   UNL     1       1.459   2.672  21.570  0.00  0.00    +0.000 A 
ATOM     28  C   UNL     1       0.721   2.339  20.435  0.00  0.00    +0.000 A 
ATOM     29  C   UNL     1       0.847   3.103  19.276  0.00  0.00    +0.000 A 
ATOM     30  C   UNL     1       1.753   4.163  19.238  0.00  0.00    +0.000 A 
ENDBRANCH  24  25
ENDBRANCH  12  24
TORSDOF 3
ENDMDL
MODEL 9
REMARK VINA RESULT:      -7.5      2.639      3.619
REMARK  Name = 
REMARK  4 active torsions:
REMARK  status: ('A' for Active; 'I' for Inactive)
REMARK    1  A    between atoms: C_1  and  N_2
REMARK    2  A    between atoms: C_6  and  C_8
REMARK    3  A    between atoms: C_19  and  O_20
REMARK    4  A    between atoms: O_20  and  C_21
REMARK                            x       y       z     vdW  Elec       q    Type
REMARK                         _______ _______ _______ _____ _____    ______ ____
ROOT
ATOM      1  C   UNL     1      -1.984  12.110  22.412  0.00  0.00    +0.000 A 
ATOM      2  C   UNL     1      -1.538  11.234  23.391  0.00  0.00    +0.000 A 
ATOM      3  C   UNL     1      -0.676  10.192  23.039  0.00  0.00    +0.000 A 
ATOM      4  C   UNL     1      -0.254   9.985  21.732  0.00  0.00    +0.000 A 
ATOM      5  N   UNL     1       0.628   9.001  21.529  0.00  0.00    +0.000 NA
ATOM      6  C   UNL     1       1.096   8.772  20.296  0.00  0.00    +0.000 A 
ATOM      7  C   UNL     1       2.006   7.736  20.132  0.00  0.00    +0.000 A 
ATOM      8  C   UNL     1       2.564   7.437  18.889  0.00  0.00    +0.000 A 
ATOM      9  C   UNL     1       2.208   8.193  17.781  0.00  0.00    +0.000 A 
ATOM     10  C   UNL     1       1.286   9.231  17.923  0.00  0.00    +0.000 A 
ATOM     11  C   UNL     1       0.711   9.537  19.182  0.00  0.00    +0.000 A 
ATOM     12  C   UNL     1      -0.235  10.569  19.407  0.00  0.00    +0.000 A 
ATOM     13  C   UNL     1      -0.761  10.807  20.707  0.00  0.00    +0.000 A 
ATOM     14  C   UNL     1      -1.701  11.808  21.072  0.00  0.00    +0.000 A 
ENDROOT
BRANCH   1  20
ATOM     15  C   UNL     1      -0.155  17.972  24.274  0.00  0.00    +0.000 C 
ATOM     16  N   UNL     1      -0.812  17.107  23.297  0.00  0.00    +0.000 NA
ATOM     17  C   UNL     1      -2.203  16.807  23.715  0.00  0.00    +0.000 C 
ATOM     18  C   UNL     1      -2.918  15.828  22.760  0.00  0.00    +0.000 C 
ATOM     19  N   UNL     1      -2.113  14.620  22.537  0.00  0.00    +0.000 N 
ATOM     20  C   UNL     1      -2.719  13.373  22.696  0.00  0.00    +0.000 C 
ATOM     21  O   UNL     1      -3.903  13.261  23.017  0.00  0.00    +0.000 OA
ATOM     22  C   UNL     1      -0.759  14.945  22.070  0.00  0.00    +0.000 C 
ATOM     23  C   UNL     1      -0.059  15.848  23.108  0.00  0.00    +0.000 C 
ENDBRANCH   1  20
BRANCH  12  24
ATOM     24  O   UNL     1      -0.633  11.261  18.271  0.00  0.00    +0.000 OA
BRANCH  24  25
ATOM     25  C   UNL     1      -1.787  10.945  17.590  0.00  0.00    +0.000 A 
ATOM     26  C   UNL     1      -1.917   9.937  16.632  0.00  0.00    +0.000 A 
ATOM     27  C   UNL     1      -3.094   9.827  15.889  0.00  0.00    +0.000 A 
ATOM     28  C   UNL     1      -4.178  10.658  16.166  0.00  0.00    +0.000 A 
ATOM     29  C   UNL     1      -4.087  11.602  17.186  0.00  0.00    +0.000 A 
ATOM     30  C   UNL     1      -2.892  11.751  17.891  0.00  0.00    +0.000 A 
ENDBRANCH  24  25
ENDBRANCH  12  24
TORSDOF 3
ENDMDL
