MODEL 1
REMARK VINA RESULT:      -7.6      0.000      0.000
REMARK  Name = 
REMARK  5 active torsions:
REMARK  status: ('A' for Active; 'I' for Inactive)
REMARK    1  A    between atoms: C_1  and  C_2
REMARK    2  A    between atoms: C_2  and  N_3
REMARK    3  A    between atoms: C_2  and  C_17
REMARK    4  A    between atoms: N_3  and  C_4
REMARK    5  A    between atoms: C_7  and  C_8
REMARK                            x       y       z     vdW  Elec       q    Type
REMARK                         _______ _______ _______ _____ _____    ______ ____
ROOT
ATOM      1  C   UNL     1       2.783   5.665  19.468  0.00  0.00    +0.000 A 
ATOM      2  C   UNL     1       2.800   6.909  18.822  0.00  0.00    +0.000 A 
ATOM      3  C   UNL     1       2.101   8.006  19.336  0.00  0.00    +0.000 A 
ATOM      4  C   UNL     1       1.351   7.863  20.504  0.00  0.00    +0.000 A 
ATOM      5  C   UNL     1       1.260   6.608  21.110  0.00  0.00    +0.000 A 
ATOM      6  C   UNL     1       1.964   5.519  20.589  0.00  0.00    +0.000 A 
ENDROOT
BRANCH   4   7
ATOM      7  C   UNL     1       0.656   9.046  21.088  0.00  0.00    +0.000 C 
ATOM      8  N   UNL     1       0.908  10.232  20.622  0.00  0.00    +0.000 NA
ATOM      9  N   UNL     1       0.239  11.288  21.158  0.00  0.00    +0.000 N 
ATOM     10  C   UNL     1      -0.502  11.280  22.311  0.00  0.00    +0.000 C 
ATOM     11  O   UNL     1      -1.081  12.285  22.716  0.00  0.00    +0.000 OA
ATOM     12  C   UNL     1      -0.480   9.999  23.092  0.00  0.00    +0.000 C 
ATOM     13  C   UNL     1      -0.366   8.802  22.178  0.00  0.00    +0.000 C 
ATOM     14  H   UNL     1       0.325  12.173  20.671  0.00  0.00    +0.000 HD
ENDBRANCH   4   7
BRANCH   1  15
ATOM     15  N   UNL     1       3.547   4.639  18.918  0.00  0.00    +0.000 N 
ATOM     16  H   UNL     1       4.491   4.666  19.304  0.00  0.00    +0.000 HD
BRANCH  15  18
ATOM     17  C   UNL     1       2.981   2.978  17.164  0.00  0.00    +0.000 C 
ATOM     18  C   UNL     1       3.564   4.362  17.478  0.00  0.00    +0.000 C 
BRANCH  18  19
ATOM     19  C   UNL     1       5.011   4.434  17.020  0.00  0.00    +0.000 A 
ATOM     20  C   UNL     1       5.333   4.414  15.659  0.00  0.00    +0.000 A 
ATOM     21  C   UNL     1       6.667   4.499  15.289  0.00  0.00    +0.000 A 
ATOM     22  N   UNL     1       7.688   4.599  16.167  0.00  0.00    +0.000 NA
ATOM     23  C   UNL     1       7.359   4.616  17.477  0.00  0.00    +0.000 A 
ATOM     24  C   UNL     1       6.059   4.537  17.944  0.00  0.00    +0.000 A 
ENDBRANCH  18  19
ENDBRANCH  15  18
ENDBRANCH   1  15
TORSDOF 4
ENDMDL
MODEL 2
REMARK VINA RESULT:      -7.6      0.086      1.003
REMARK  Name = 
REMARK  5 active torsions:
REMARK  status: ('A' for Active; 'I' for Inactive)
REMARK    1  A    between atoms: C_1  and  C_2
REMARK    2  A    between atoms: C_2  and  N_3
REMARK    3  A    between atoms: C_2  and  C_17
REMARK    4  A    between atoms: N_3  and  C_4
REMARK    5  A    between atoms: C_7  and  C_8
REMARK                            x       y       z     vdW  Elec       q    Type
REMARK                         _______ _______ _______ _____ _____    ______ ____
ROOT
ATOM      1  C   UNL     1       2.834   5.655  19.477  0.00  0.00    +0.000 A 
ATOM      2  C   UNL     1       2.849   6.909  18.850  0.00  0.00    +0.000 A 
ATOM      3  C   UNL     1       2.137   7.993  19.374  0.00  0.00    +0.000 A 
ATOM      4  C   UNL     1       1.375   7.827  20.531  0.00  0.00    +0.000 A 
ATOM      5  C   UNL     1       1.287   6.562  21.117  0.00  0.00    +0.000 A 
ATOM      6  C   UNL     1       2.004   5.486  20.587  0.00  0.00    +0.000 A 
ENDROOT
BRANCH   4   7
ATOM      7  C   UNL     1       0.666   8.996  21.125  0.00  0.00    +0.000 C 
ATOM      8  N   UNL     1       0.914  10.191  20.678  0.00  0.00    +0.000 NA
ATOM      9  N   UNL     1       0.232  11.234  21.223  0.00  0.00    +0.000 N 
ATOM     10  C   UNL     1      -0.520  11.204  22.368  0.00  0.00    +0.000 C 
ATOM     11  O   UNL     1      -1.110  12.198  22.782  0.00  0.00    +0.000 OA
ATOM     12  C   UNL     1      -0.496   9.912  23.132  0.00  0.00    +0.000 C 
ATOM     13  C   UNL     1      -0.364   8.729  22.201  0.00  0.00    +0.000 C 
ATOM     14  H   UNL     1       0.315  12.126  20.749  0.00  0.00    +0.000 HD
ENDBRANCH   4   7
BRANCH   1  15
ATOM     15  N   UNL     1       3.611   4.642  18.920  0.00  0.00    +0.000 N 
ATOM     16  H   UNL     1       4.559   4.688  19.294  0.00  0.00    +0.000 HD
BRANCH  15  18
ATOM     17  C   UNL     1       3.038   2.974  17.175  0.00  0.00    +0.000 C 
ATOM     18  C   UNL     1       3.616   4.363  17.480  0.00  0.00    +0.000 C 
BRANCH  18  19
ATOM     19  C   UNL     1       5.058   4.441  17.008  0.00  0.00    +0.000 A 
ATOM     20  C   UNL     1       6.098   4.658  17.918  0.00  0.00    +0.000 A 
ATOM     21  C   UNL     1       7.400   4.705  17.442  0.00  0.00    +0.000 A 
ATOM     22  N   UNL     1       7.733   4.554  16.142  0.00  0.00    +0.000 NA
ATOM     23  C   UNL     1       6.716   4.345  15.278  0.00  0.00    +0.000 A 
ATOM     24  C   UNL     1       5.387   4.283  15.656  0.00  0.00    +0.000 A 
ENDBRANCH  18  19
ENDBRANCH  15  18
ENDBRANCH   1  15
TORSDOF 4
ENDMDL
MODEL 3
REMARK VINA RESULT:      -7.6      2.022      2.260
REMARK  Name = 
REMARK  5 active torsions:
REMARK  status: ('A' for Active; 'I' for Inactive)
REMARK    1  A    between atoms: C_1  and  C_2
REMARK    2  A    between atoms: C_2  and  N_3
REMARK    3  A    between atoms: C_2  and  C_17
REMARK    4  A    between atoms: N_3  and  C_4
REMARK    5  A    between atoms: C_7  and  C_8
REMARK                            x       y       z     vdW  Elec       q    Type
REMARK                         _______ _______ _______ _____ _____    ______ ____
ROOT
ATOM      1  C   UNL     1       2.993   6.442  19.016  0.00  0.00    +0.000 A 
ATOM      2  C   UNL     1       3.070   7.180  17.827  0.00  0.00    +0.000 A 
ATOM      3  C   UNL     1       2.447   8.426  17.703  0.00  0.00    +0.000 A 
ATOM      4  C   UNL     1       1.714   8.943  18.772  0.00  0.00    +0.000 A 
ATOM      5  C   UNL     1       1.562   8.179  19.931  0.00  0.00    +0.000 A 
ATOM      6  C   UNL     1       2.191   6.937  20.046  0.00  0.00    +0.000 A 
ENDROOT
BRANCH   4   7
ATOM      7  C   UNL     1       1.101  10.299  18.663  0.00  0.00    +0.000 C 
ATOM      8  N   UNL     1       1.847  11.316  18.351  0.00  0.00    +0.000 NA
ATOM      9  N   UNL     1       1.254  12.534  18.235  0.00  0.00    +0.000 N 
ATOM     10  C   UNL     1      -0.010  12.866  18.648  0.00  0.00    +0.000 C 
ATOM     11  O   UNL     1      -0.467  13.995  18.493  0.00  0.00    +0.000 OA
ATOM     12  C   UNL     1      -0.759  11.794  19.384  0.00  0.00    +0.000 C 
ATOM     13  C   UNL     1      -0.392  10.420  18.872  0.00  0.00    +0.000 C 
ATOM     14  H   UNL     1       1.816  13.275  17.831  0.00  0.00    +0.000 HD
ENDBRANCH   4   7
BRANCH   1  15
ATOM     15  N   UNL     1       3.685   5.235  19.075  0.00  0.00    +0.000 N 
ATOM     16  H   UNL     1       4.606   5.383  19.488  0.00  0.00    +0.000 HD
BRANCH  15  18
ATOM     17  C   UNL     1       3.421   2.876  18.353  0.00  0.00    +0.000 C 
ATOM     18  C   UNL     1       3.751   4.315  17.934  0.00  0.00    +0.000 C 
BRANCH  18  19
ATOM     19  C   UNL     1       5.163   4.384  17.377  0.00  0.00    +0.000 A 
ATOM     20  C   UNL     1       5.400   4.223  16.008  0.00  0.00    +0.000 A 
ATOM     21  C   UNL     1       6.705   4.311  15.545  0.00  0.00    +0.000 A 
ATOM     22  N   UNL     1       7.772   4.544  16.338  0.00  0.00    +0.000 NA
ATOM     23  C   UNL     1       7.524   4.698  17.657  0.00  0.00    +0.000 A 
ATOM     24  C   UNL     1       6.260   4.627  18.213  0.00  0.00    +0.000 A 
ENDBRANCH  18  19
ENDBRANCH  15  18
ENDBRANCH   1  15
TORSDOF 4
ENDMDL
MODEL 4
REMARK VINA RESULT:      -7.5      1.471      2.197
REMARK  Name = 
REMARK  5 active torsions:
REMARK  status: ('A' for Active; 'I' for Inactive)
REMARK    1  A    between atoms: C_1  and  C_2
REMARK    2  A    between atoms: C_2  and  N_3
REMARK    3  A    between atoms: C_2  and  C_17
REMARK    4  A    between atoms: N_3  and  C_4
REMARK    5  A    between atoms: C_7  and  C_8
REMARK                            x       y       z     vdW  Elec       q    Type
REMARK                         _______ _______ _______ _____ _____    ______ ____
ROOT
ATOM      1  C   UNL     1       3.059   6.278  18.311  0.00  0.00    +0.000 A 
ATOM      2  C   UNL     1       2.729   6.004  19.646  0.00  0.00    +0.000 A 
ATOM      3  C   UNL     1       2.022   6.925  20.425  0.00  0.00    +0.000 A 
ATOM      4  C   UNL     1       1.651   8.154  19.878  0.00  0.00    +0.000 A 
ATOM      5  C   UNL     1       2.046   8.471  18.576  0.00  0.00    +0.000 A 
ATOM      6  C   UNL     1       2.751   7.542  17.806  0.00  0.00    +0.000 A 
ENDROOT
BRANCH   4   7
ATOM      7  C   UNL     1       0.843   9.111  20.686  0.00  0.00    +0.000 C 
ATOM      8  N   UNL     1       0.920  10.384  20.438  0.00  0.00    +0.000 NA
ATOM      9  N   UNL     1       0.151  11.229  21.176  0.00  0.00    +0.000 N 
ATOM     10  C   UNL     1      -0.526  10.919  22.327  0.00  0.00    +0.000 C 
ATOM     11  O   UNL     1      -1.205  11.748  22.923  0.00  0.00    +0.000 OA
ATOM     12  C   UNL     1      -0.303   9.533  22.860  0.00  0.00    +0.000 C 
ATOM     13  C   UNL     1      -0.084   8.544  21.739  0.00  0.00    +0.000 C 
ATOM     14  H   UNL     1       0.100  12.190  20.857  0.00  0.00    +0.000 HD
ENDBRANCH   4   7
BRANCH   1  15
ATOM     15  N   UNL     1       3.720   5.287  17.590  0.00  0.00    +0.000 N 
ATOM     16  H   UNL     1       4.006   4.535  18.217  0.00  0.00    +0.000 HD
BRANCH  15  18
ATOM     17  C   UNL     1       5.127   4.374  15.762  0.00  0.00    +0.000 C 
ATOM     18  C   UNL     1       4.770   5.599  16.614  0.00  0.00    +0.000 C 
BRANCH  18  19
ATOM     19  C   UNL     1       5.989   6.065  17.392  0.00  0.00    +0.000 A 
ATOM     20  C   UNL     1       6.530   5.277  18.413  0.00  0.00    +0.000 A 
ATOM     21  C   UNL     1       7.654   5.737  19.084  0.00  0.00    +0.000 A 
ATOM     22  N   UNL     1       8.266   6.909  18.812  0.00  0.00    +0.000 NA
ATOM     23  C   UNL     1       7.730   7.657  17.823  0.00  0.00    +0.000 A 
ATOM     24  C   UNL     1       6.613   7.284  17.098  0.00  0.00    +0.000 A 
ENDBRANCH  18  19
ENDBRANCH  15  18
ENDBRANCH   1  15
TORSDOF 4
ENDMDL
MODEL 5
REMARK VINA RESULT:      -7.5      1.514      2.265
REMARK  Name = 
REMARK  5 active torsions:
REMARK  status: ('A' for Active; 'I' for Inactive)
REMARK    1  A    between atoms: C_1  and  C_2
REMARK    2  A    between atoms: C_2  and  N_3
REMARK    3  A    between atoms: C_2  and  C_17
REMARK    4  A    between atoms: N_3  and  C_4
REMARK    5  A    between atoms: C_7  and  C_8
REMARK                            x       y       z     vdW  Elec       q    Type
REMARK                         _______ _______ _______ _____ _____    ______ ____
ROOT
ATOM      1  C   UNL     1       2.815   6.556  18.867  0.00  0.00    +0.000 A 
ATOM      2  C   UNL     1       2.256   6.861  20.116  0.00  0.00    +0.000 A 
ATOM      3  C   UNL     1       1.552   8.052  20.326  0.00  0.00    +0.000 A 
ATOM      4  C   UNL     1       1.416   8.969  19.284  0.00  0.00    +0.000 A 
ATOM      5  C   UNL     1       2.039   8.713  18.060  0.00  0.00    +0.000 A 
ATOM      6  C   UNL     1       2.738   7.520  17.860  0.00  0.00    +0.000 A 
ENDROOT
BRANCH   4   7
ATOM      7  C   UNL     1       0.612  10.209  19.489  0.00  0.00    +0.000 C 
ATOM      8  N   UNL     1       0.886  10.992  20.488  0.00  0.00    +0.000 NA
ATOM      9  N   UNL     1       0.151  12.127  20.633  0.00  0.00    +0.000 N 
ATOM     10  C   UNL     1      -1.017  12.430  19.982  0.00  0.00    +0.000 C 
ATOM     11  O   UNL     1      -1.609  13.488  20.171  0.00  0.00    +0.000 OA
ATOM     12  C   UNL     1      -1.572  11.347  19.103  0.00  0.00    +0.000 C 
ATOM     13  C   UNL     1      -0.466  10.529  18.477  0.00  0.00    +0.000 C 
ATOM     14  H   UNL     1       0.487  12.801  21.312  0.00  0.00    +0.000 HD
ENDBRANCH   4   7
BRANCH   1  15
ATOM     15  N   UNL     1       3.457   5.329  18.726  0.00  0.00    +0.000 N 
ATOM     16  H   UNL     1       4.352   5.347  19.215  0.00  0.00    +0.000 HD
BRANCH  15  18
ATOM     17  C   UNL     1       3.032   3.213  17.501  0.00  0.00    +0.000 C 
ATOM     18  C   UNL     1       3.569   4.649  17.431  0.00  0.00    +0.000 C 
BRANCH  18  19
ATOM     19  C   UNL     1       5.040   4.635  17.052  0.00  0.00    +0.000 A 
ATOM     20  C   UNL     1       6.033   4.682  18.035  0.00  0.00    +0.000 A 
ATOM     21  C   UNL     1       7.363   4.650  17.641  0.00  0.00    +0.000 A 
ATOM     22  N   UNL     1       7.765   4.578  16.355  0.00  0.00    +0.000 NA
ATOM     23  C   UNL     1       6.793   4.533  15.418  0.00  0.00    +0.000 A 
ATOM     24  C   UNL     1       5.442   4.559  15.712  0.00  0.00    +0.000 A 
ENDBRANCH  18  19
ENDBRANCH  15  18
ENDBRANCH   1  15
TORSDOF 4
ENDMDL
MODEL 6
REMARK VINA RESULT:      -7.5      1.531      2.672
REMARK  Name = 
REMARK  5 active torsions:
REMARK  status: ('A' for Active; 'I' for Inactive)
REMARK    1  A    between atoms: C_1  and  C_2
REMARK    2  A    between atoms: C_2  and  N_3
REMARK    3  A    between atoms: C_2  and  C_17
REMARK    4  A    between atoms: N_3  and  C_4
REMARK    5  A    between atoms: C_7  and  C_8
REMARK                            x       y       z     vdW  Elec       q    Type
REMARK                         _______ _______ _______ _____ _____    ______ ____
ROOT
ATOM      1  C   UNL     1       2.876   7.128  18.266  0.00  0.00    +0.000 A 
ATOM      2  C   UNL     1       2.331   8.339  17.817  0.00  0.00    +0.000 A 
ATOM      3  C   UNL     1       1.564   9.149  18.662  0.00  0.00    +0.000 A 
ATOM      4  C   UNL     1       1.313   8.740  19.972  0.00  0.00    +0.000 A 
ATOM      5  C   UNL     1       1.781   7.498  20.404  0.00  0.00    +0.000 A 
ATOM      6  C   UNL     1       2.548   6.697  19.553  0.00  0.00    +0.000 A 
ENDROOT
BRANCH   4   7
ATOM      7  C   UNL     1       0.549   9.631  20.892  0.00  0.00    +0.000 C 
ATOM      8  N   UNL     1       0.623  10.920  20.745  0.00  0.00    +0.000 NA
ATOM      9  N   UNL     1      -0.105  11.705  21.583  0.00  0.00    +0.000 N 
ATOM     10  C   UNL     1      -0.731  11.303  22.735  0.00  0.00    +0.000 C 
ATOM     11  O   UNL     1      -1.377  12.084  23.428  0.00  0.00    +0.000 OA
ATOM     12  C   UNL     1      -0.495   9.878  23.143  0.00  0.00    +0.000 C 
ATOM     13  C   UNL     1      -0.334   8.983  21.936  0.00  0.00    +0.000 C 
ATOM     14  H   UNL     1      -0.164  12.689  21.346  0.00  0.00    +0.000 HD
ENDBRANCH   4   7
BRANCH   1  15
ATOM     15  N   UNL     1       3.669   6.406  17.379  0.00  0.00    +0.000 N 
ATOM     16  H   UNL     1       3.080   5.910  16.711  0.00  0.00    +0.000 HD
BRANCH  15  18
ATOM     17  C   UNL     1       5.880   5.465  16.760  0.00  0.00    +0.000 C 
ATOM     18  C   UNL     1       4.786   5.569  17.831  0.00  0.00    +0.000 C 
BRANCH  18  19
ATOM     19  C   UNL     1       4.225   4.191  18.138  0.00  0.00    +0.000 A 
ATOM     20  C   UNL     1       4.632   3.490  19.278  0.00  0.00    +0.000 A 
ATOM     21  C   UNL     1       4.078   2.242  19.524  0.00  0.00    +0.000 A 
ATOM     22  N   UNL     1       3.163   1.653  18.727  0.00  0.00    +0.000 NA
ATOM     23  C   UNL     1       2.781   2.344  17.630  0.00  0.00    +0.000 A 
ATOM     24  C   UNL     1       3.275   3.593  17.300  0.00  0.00    +0.000 A 
ENDBRANCH  18  19
ENDBRANCH  15  18
ENDBRANCH   1  15
TORSDOF 4
ENDMDL
MODEL 7
REMARK VINA RESULT:      -7.5      1.647      2.902
REMARK  Name = 
REMARK  5 active torsions:
REMARK  status: ('A' for Active; 'I' for Inactive)
REMARK    1  A    between atoms: C_1  and  C_2
REMARK    2  A    between atoms: C_2  and  N_3
REMARK    3  A    between atoms: C_2  and  C_17
REMARK    4  A    between atoms: N_3  and  C_4
REMARK    5  A    between atoms: C_7  and  C_8
REMARK                            x       y       z     vdW  Elec       q    Type
REMARK                         _______ _______ _______ _____ _____    ______ ____
ROOT
ATOM      1  C   UNL     1       2.693   7.293  18.282  0.00  0.00    +0.000 A 
ATOM      2  C   UNL     1       2.481   6.925  19.618  0.00  0.00    +0.000 A 
ATOM      3  C   UNL     1       1.703   7.710  20.476  0.00  0.00    +0.000 A 
ATOM      4  C   UNL     1       1.140   8.898  20.006  0.00  0.00    +0.000 A 
ATOM      5  C   UNL     1       1.413   9.316  18.702  0.00  0.00    +0.000 A 
ATOM      6  C   UNL     1       2.189   8.523  17.853  0.00  0.00    +0.000 A 
ENDROOT
BRANCH   4   7
ATOM      7  C   UNL     1       0.260   9.704  20.900  0.00  0.00    +0.000 C 
ATOM      8  N   UNL     1       0.009  10.944  20.604  0.00  0.00    +0.000 NA
ATOM      9  N   UNL     1      -0.818  11.645  21.425  0.00  0.00    +0.000 N 
ATOM     10  C   UNL     1      -1.234  11.268  22.675  0.00  0.00    +0.000 C 
ATOM     11  O   UNL     1      -1.992  11.965  23.344  0.00  0.00    +0.000 OA
ATOM     12  C   UNL     1      -0.629  10.002  23.210  0.00  0.00    +0.000 C 
ATOM     13  C   UNL     1      -0.354   9.015  22.099  0.00  0.00    +0.000 C 
ATOM     14  H   UNL     1      -1.131  12.549  21.088  0.00  0.00    +0.000 HD
ENDBRANCH   4   7
BRANCH   1  15
ATOM     15  N   UNL     1       3.436   6.430  17.482  0.00  0.00    +0.000 N 
ATOM     16  H   UNL     1       2.810   5.845  16.928  0.00  0.00    +0.000 HD
BRANCH  15  18
ATOM     17  C   UNL     1       5.749   5.654  17.028  0.00  0.00    +0.000 C 
ATOM     18  C   UNL     1       4.567   5.657  18.007  0.00  0.00    +0.000 C 
BRANCH  18  19
ATOM     19  C   UNL     1       4.078   4.236  18.235  0.00  0.00    +0.000 A 
ATOM     20  C   UNL     1       4.510   3.500  19.343  0.00  0.00    +0.000 A 
ATOM     21  C   UNL     1       4.022   2.213  19.518  0.00  0.00    +0.000 A 
ATOM     22  N   UNL     1       3.148   1.618  18.680  0.00  0.00    +0.000 NA
ATOM     23  C   UNL     1       2.741   2.344  17.615  0.00  0.00    +0.000 A 
ATOM     24  C   UNL     1       3.170   3.633  17.355  0.00  0.00    +0.000 A 
ENDBRANCH  18  19
ENDBRANCH  15  18
ENDBRANCH   1  15
TORSDOF 4
ENDMDL
MODEL 8
REMARK VINA RESULT:      -7.5      1.348      1.796
REMARK  Name = 
REMARK  5 active torsions:
REMARK  status: ('A' for Active; 'I' for Inactive)
REMARK    1  A    between atoms: C_1  and  C_2
REMARK    2  A    between atoms: C_2  and  N_3
REMARK    3  A    between atoms: C_2  and  C_17
REMARK    4  A    between atoms: N_3  and  C_4
REMARK    5  A    between atoms: C_7  and  C_8
REMARK                            x       y       z     vdW  Elec       q    Type
REMARK                         _______ _______ _______ _____ _____    ______ ____
ROOT
ATOM      1  C   UNL     1       2.897   5.931  18.946  0.00  0.00    +0.000 A 
ATOM      2  C   UNL     1       2.713   7.198  18.376  0.00  0.00    +0.000 A 
ATOM      3  C   UNL     1       1.999   8.200  19.043  0.00  0.00    +0.000 A 
ATOM      4  C   UNL     1       1.437   7.934  20.292  0.00  0.00    +0.000 A 
ATOM      5  C   UNL     1       1.543   6.651  20.832  0.00  0.00    +0.000 A 
ATOM      6  C   UNL     1       2.260   5.658  20.159  0.00  0.00    +0.000 A 
ENDROOT
BRANCH   4   7
ATOM      7  C   UNL     1       0.730   9.019  21.031  0.00  0.00    +0.000 C 
ATOM      8  N   UNL     1       0.964  10.260  20.726  0.00  0.00    +0.000 NA
ATOM      9  N   UNL     1       0.284  11.226  21.402  0.00  0.00    +0.000 N 
ATOM     10  C   UNL     1      -0.451  11.054  22.546  0.00  0.00    +0.000 C 
ATOM     11  O   UNL     1      -1.041  11.987  23.083  0.00  0.00    +0.000 OA
ATOM     12  C   UNL     1      -0.408   9.680  23.149  0.00  0.00    +0.000 C 
ATOM     13  C   UNL     1      -0.283   8.618  22.082  0.00  0.00    +0.000 C 
ATOM     14  H   UNL     1       0.355  12.169  21.037  0.00  0.00    +0.000 HD
ENDBRANCH   4   7
BRANCH   1  15
ATOM     15  N   UNL     1       3.663   5.007  18.241  0.00  0.00    +0.000 N 
ATOM     16  H   UNL     1       4.168   4.406  18.892  0.00  0.00    +0.000 HD
BRANCH  15  18
ATOM     17  C   UNL     1       4.791   4.205  16.182  0.00  0.00    +0.000 C 
ATOM     18  C   UNL     1       4.508   5.397  17.106  0.00  0.00    +0.000 C 
BRANCH  18  19
ATOM     19  C   UNL     1       5.810   5.935  17.675  0.00  0.00    +0.000 A 
ATOM     20  C   UNL     1       6.458   5.278  18.725  0.00  0.00    +0.000 A 
ATOM     21  C   UNL     1       7.654   5.798  19.199  0.00  0.00    +0.000 A 
ATOM     22  N   UNL     1       8.238   6.911  18.707  0.00  0.00    +0.000 NA
ATOM     23  C   UNL     1       7.599   7.533  17.693  0.00  0.00    +0.000 A 
ATOM     24  C   UNL     1       6.404   7.092  17.153  0.00  0.00    +0.000 A 
ENDBRANCH  18  19
ENDBRANCH  15  18
ENDBRANCH   1  15
TORSDOF 4
ENDMDL
MODEL 9
REMARK VINA RESULT:      -7.4      1.621      2.072
REMARK  Name = 
REMARK  5 active torsions:
REMARK  status: ('A' for Active; 'I' for Inactive)
REMARK    1  A    between atoms: C_1  and  C_2
REMARK    2  A    between atoms: C_2  and  N_3
REMARK    3  A    between atoms: C_2  and  C_17
REMARK    4  A    between atoms: N_3  and  C_4
REMARK    5  A    between atoms: C_7  and  C_8
REMARK                            x       y       z     vdW  Elec       q    Type
REMARK                         _______ _______ _______ _____ _____    ______ ____
ROOT
ATOM      1  C   UNL     1       2.865   6.534  18.747  0.00  0.00    +0.000 A 
ATOM      2  C   UNL     1       2.273   6.908  19.961  0.00  0.00    +0.000 A 
ATOM      3  C   UNL     1       1.616   8.135  20.103  0.00  0.00    +0.000 A 
ATOM      4  C   UNL     1       1.562   9.020  19.025  0.00  0.00    +0.000 A 
ATOM      5  C   UNL     1       2.219   8.693  17.837  0.00  0.00    +0.000 A 
ATOM      6  C   UNL     1       2.871   7.464  17.706  0.00  0.00    +0.000 A 
ENDROOT
BRANCH   4   7
ATOM      7  C   UNL     1       0.808  10.300  19.155  0.00  0.00    +0.000 C 
ATOM      8  N   UNL     1       1.399  11.423  18.875  0.00  0.00    +0.000 NA
ATOM      9  N   UNL     1       0.677  12.571  18.979  0.00  0.00    +0.000 N 
ATOM     10  C   UNL     1      -0.545  12.712  19.582  0.00  0.00    +0.000 C 
ATOM     11  O   UNL     1      -1.129  13.791  19.620  0.00  0.00    +0.000 OA
ATOM     12  C   UNL     1      -1.076  11.489  20.274  0.00  0.00    +0.000 C 
ATOM     13  C   UNL     1      -0.647  10.228  19.561  0.00  0.00    +0.000 C 
ATOM     14  H   UNL     1       1.102  13.409  18.598  0.00  0.00    +0.000 HD
ENDBRANCH   4   7
BRANCH   1  15
ATOM     15  N   UNL     1       3.455   5.275  18.674  0.00  0.00    +0.000 N 
ATOM     16  H   UNL     1       4.332   5.273  19.194  0.00  0.00    +0.000 HD
BRANCH  15  18
ATOM     17  C   UNL     1       3.067   3.102  17.541  0.00  0.00    +0.000 C 
ATOM     18  C   UNL     1       3.581   4.542  17.410  0.00  0.00    +0.000 C 
BRANCH  18  19
ATOM     19  C   UNL     1       5.053   4.537  17.033  0.00  0.00    +0.000 A 
ATOM     20  C   UNL     1       5.449   4.434  15.695  0.00  0.00    +0.000 A 
ATOM     21  C   UNL     1       6.804   4.451  15.399  0.00  0.00    +0.000 A 
ATOM     22  N   UNL     1       7.777   4.561  16.329  0.00  0.00    +0.000 NA
ATOM     23  C   UNL     1       7.376   4.659  17.615  0.00  0.00    +0.000 A 
ATOM     24  C   UNL     1       6.051   4.652  18.009  0.00  0.00    +0.000 A 
ENDBRANCH  18  19
ENDBRANCH  15  18
ENDBRANCH   1  15
TORSDOF 4
ENDMDL
