MODEL 1
REMARK VINA RESULT:      -8.5      0.000      0.000
REMARK  Name = 
REMARK  3 active torsions:
REMARK  status: ('A' for Active; 'I' for Inactive)
REMARK    1  A    between atoms: C_1  and  C_2
REMARK    2  A    between atoms: N_11  and  N_12
REMARK    3  A    between atoms: N_12  and  C_13
REMARK                            x       y       z     vdW  Elec       q    Type
REMARK                         _______ _______ _______ _____ _____    ______ ____
ROOT
ATOM      1  C   UNL     1       2.252   6.393  18.381  0.00  0.00    +0.000 C 
ATOM      2  C   UNL     1       2.052   4.999  18.993  0.00  0.00    +0.000 C 
ATOM      3  C   UNL     1       1.885   5.129  20.522  0.00  0.00    +0.000 C 
ATOM      4  C   UNL     1       1.690   3.781  21.209  0.00  0.00    +0.000 C 
ATOM      5  C   UNL     1       2.783   2.786  20.846  0.00  0.00    +0.000 C 
ATOM      6  C   UNL     1       2.913   2.628  19.333  0.00  0.00    +0.000 C 
ATOM      7  C   UNL     1       3.150   3.975  18.603  0.00  0.00    +0.000 C 
ATOM      8  C   UNL     1       3.246   3.708  17.079  0.00  0.00    +0.000 C 
ATOM      9  C   UNL     1       4.714   3.822  16.771  0.00  0.00    +0.000 C 
ATOM     10  O   UNL     1       5.193   3.900  15.647  0.00  0.00    +0.000 OA
ATOM     11  N   UNL     1       5.387   3.908  17.962  0.00  0.00    +0.000 N 
ATOM     12  C   UNL     1       4.562   4.452  18.921  0.00  0.00    +0.000 C 
ATOM     13  O   UNL     1       4.873   5.162  19.860  0.00  0.00    +0.000 OA
ENDROOT
BRANCH  11  14
ATOM     14  N   UNL     1       6.755   4.213  17.941  0.00  0.00    +0.000 N 
ATOM     15  H   UNL     1       7.285   3.644  18.606  0.00  0.00    +0.000 HD
BRANCH  14  16
ATOM     16  C   UNL     1       7.103   5.586  18.040  0.00  0.00    +0.000 A 
ATOM     17  C   UNL     1       6.754   6.563  17.094  0.00  0.00    +0.000 A 
ATOM     18  C   UNL     1       7.263   7.863  17.169  0.00  0.00    +0.000 A 
ATOM     19  C   UNL     1       8.130   8.204  18.199  0.00  0.00    +0.000 A 
ATOM     20 BR   UNL     1       8.870   9.941  18.263  0.00  0.00    +0.000 Br
ATOM     21  C   UNL     1       8.470   7.266  19.167  0.00  0.00    +0.000 A 
ATOM     22  C   UNL     1       7.961   5.965  19.085  0.00  0.00    +0.000 A 
ENDBRANCH  14  16
ENDBRANCH  11  14
TORSDOF 2
ENDMDL
MODEL 2
REMARK VINA RESULT:      -8.1      0.379      1.111
REMARK  Name = 
REMARK  3 active torsions:
REMARK  status: ('A' for Active; 'I' for Inactive)
REMARK    1  A    between atoms: C_1  and  C_2
REMARK    2  A    between atoms: N_11  and  N_12
REMARK    3  A    between atoms: N_12  and  C_13
REMARK                            x       y       z     vdW  Elec       q    Type
REMARK                         _______ _______ _______ _____ _____    ______ ____
ROOT
ATOM      1  C   UNL     1       2.664   6.814  18.171  0.00  0.00    +0.000 C 
ATOM      2  C   UNL     1       2.235   5.467  18.769  0.00  0.00    +0.000 C 
ATOM      3  C   UNL     1       2.019   5.626  20.289  0.00  0.00    +0.000 C 
ATOM      4  C   UNL     1       1.598   4.324  20.963  0.00  0.00    +0.000 C 
ATOM      5  C   UNL     1       2.551   3.179  20.648  0.00  0.00    +0.000 C 
ATOM      6  C   UNL     1       2.726   2.997  19.143  0.00  0.00    +0.000 C 
ATOM      7  C   UNL     1       3.190   4.292  18.428  0.00  0.00    +0.000 C 
ATOM      8  C   UNL     1       3.316   4.008  16.909  0.00  0.00    +0.000 C 
ATOM      9  C   UNL     1       4.798   3.907  16.669  0.00  0.00    +0.000 C 
ATOM     10  O   UNL     1       5.334   3.909  15.569  0.00  0.00    +0.000 OA
ATOM     11  N   UNL     1       5.420   3.899  17.891  0.00  0.00    +0.000 N 
ATOM     12  C   UNL     1       4.640   4.561  18.812  0.00  0.00    +0.000 C 
ATOM     13  O   UNL     1       5.007   5.221  19.766  0.00  0.00    +0.000 OA
ENDROOT
BRANCH  11  14
ATOM     14  N   UNL     1       6.817   4.002  17.934  0.00  0.00    +0.000 N 
ATOM     15  H   UNL     1       7.224   3.398  18.652  0.00  0.00    +0.000 HD
BRANCH  14  16
ATOM     16  C   UNL     1       7.359   5.314  17.992  0.00  0.00    +0.000 A 
ATOM     17  C   UNL     1       8.061   5.833  19.092  0.00  0.00    +0.000 A 
ATOM     18  C   UNL     1       8.428   7.180  19.150  0.00  0.00    +0.000 A 
ATOM     19  C   UNL     1       8.097   8.030  18.102  0.00  0.00    +0.000 A 
ATOM     20 BR   UNL     1       8.534   9.864  18.210  0.00  0.00    +0.000 Br
ATOM     21  C   UNL     1       7.428   7.537  16.987  0.00  0.00    +0.000 A 
ATOM     22  C   UNL     1       7.060   6.188  16.936  0.00  0.00    +0.000 A 
ENDBRANCH  14  16
ENDBRANCH  11  14
TORSDOF 2
ENDMDL
MODEL 3
REMARK VINA RESULT:      -8.1      2.923      3.729
REMARK  Name = 
REMARK  3 active torsions:
REMARK  status: ('A' for Active; 'I' for Inactive)
REMARK    1  A    between atoms: C_1  and  C_2
REMARK    2  A    between atoms: N_11  and  N_12
REMARK    3  A    between atoms: N_12  and  C_13
REMARK                            x       y       z     vdW  Elec       q    Type
REMARK                         _______ _______ _______ _____ _____    ______ ____
ROOT
ATOM      1  C   UNL     1       2.201   5.579  21.292  0.00  0.00    +0.000 C 
ATOM      2  C   UNL     1       1.495   4.743  20.216  0.00  0.00    +0.000 C 
ATOM      3  C   UNL     1       1.331   3.293  20.717  0.00  0.00    +0.000 C 
ATOM      4  C   UNL     1       0.644   2.391  19.696  0.00  0.00    +0.000 C 
ATOM      5  C   UNL     1       1.323   2.440  18.335  0.00  0.00    +0.000 C 
ATOM      6  C   UNL     1       1.443   3.874  17.823  0.00  0.00    +0.000 C 
ATOM      7  C   UNL     1       2.170   4.812  18.819  0.00  0.00    +0.000 C 
ATOM      8  C   UNL     1       2.219   6.240  18.217  0.00  0.00    +0.000 C 
ATOM      9  C   UNL     1       3.641   6.402  17.755  0.00  0.00    +0.000 C 
ATOM     10  O   UNL     1       4.157   7.462  17.423  0.00  0.00    +0.000 OA
ATOM     11  N   UNL     1       4.258   5.182  17.859  0.00  0.00    +0.000 N 
ATOM     12  C   UNL     1       3.647   4.437  18.843  0.00  0.00    +0.000 C 
ATOM     13  O   UNL     1       4.156   3.619  19.586  0.00  0.00    +0.000 OA
ENDROOT
BRANCH  11  14
ATOM     14  N   UNL     1       5.644   5.111  17.667  0.00  0.00    +0.000 N 
ATOM     15  H   UNL     1       6.123   5.945  18.017  0.00  0.00    +0.000 HD
BRANCH  14  16
ATOM     16  C   UNL     1       6.090   4.767  16.363  0.00  0.00    +0.000 A 
ATOM     17  C   UNL     1       7.196   5.350  15.725  0.00  0.00    +0.000 A 
ATOM     18  C   UNL     1       7.486   5.082  14.384  0.00  0.00    +0.000 A 
ATOM     19  C   UNL     1       6.670   4.220  13.662  0.00  0.00    +0.000 A 
ATOM     20 BR   UNL     1       7.024   3.910  11.833  0.00  0.00    +0.000 Br
ATOM     21  C   UNL     1       5.586   3.605  14.277  0.00  0.00    +0.000 A 
ATOM     22  C   UNL     1       5.298   3.880  15.618  0.00  0.00    +0.000 A 
ENDBRANCH  14  16
ENDBRANCH  11  14
TORSDOF 2
ENDMDL
MODEL 4
REMARK VINA RESULT:      -7.9      3.190      4.792
REMARK  Name = 
REMARK  3 active torsions:
REMARK  status: ('A' for Active; 'I' for Inactive)
REMARK    1  A    between atoms: C_1  and  C_2
REMARK    2  A    between atoms: N_11  and  N_12
REMARK    3  A    between atoms: N_12  and  C_13
REMARK                            x       y       z     vdW  Elec       q    Type
REMARK                         _______ _______ _______ _____ _____    ______ ____
ROOT
ATOM      1  C   UNL     1       3.389   2.324  17.273  0.00  0.00    +0.000 C 
ATOM      2  C   UNL     1       3.018   2.540  18.747  0.00  0.00    +0.000 C 
ATOM      3  C   UNL     1       1.548   2.126  18.973  0.00  0.00    +0.000 C 
ATOM      4  C   UNL     1       1.098   2.321  20.417  0.00  0.00    +0.000 C 
ATOM      5  C   UNL     1       1.366   3.733  20.919  0.00  0.00    +0.000 C 
ATOM      6  C   UNL     1       2.831   4.121  20.734  0.00  0.00    +0.000 C 
ATOM      7  C   UNL     1       3.315   3.972  19.269  0.00  0.00    +0.000 C 
ATOM      8  C   UNL     1       4.812   4.368  19.194  0.00  0.00    +0.000 C 
ATOM      9  C   UNL     1       4.807   5.730  18.557  0.00  0.00    +0.000 C 
ATOM     10  O   UNL     1       5.793   6.305  18.116  0.00  0.00    +0.000 OA
ATOM     11  N   UNL     1       3.505   6.156  18.488  0.00  0.00    +0.000 N 
ATOM     12  C   UNL     1       2.665   5.067  18.433  0.00  0.00    +0.000 C 
ATOM     13  O   UNL     1       1.597   4.975  17.855  0.00  0.00    +0.000 OA
ENDROOT
BRANCH  11  14
ATOM     14  N   UNL     1       3.216   7.319  17.762  0.00  0.00    +0.000 N 
ATOM     15  H   UNL     1       4.065   7.787  17.435  0.00  0.00    +0.000 HD
BRANCH  14  16
ATOM     16  C   UNL     1       2.315   8.238  18.362  0.00  0.00    +0.000 A 
ATOM     17  C   UNL     1       1.902   9.443  17.771  0.00  0.00    +0.000 A 
ATOM     18  C   UNL     1       1.141  10.377  18.479  0.00  0.00    +0.000 A 
ATOM     19  C   UNL     1       0.781  10.116  19.795  0.00  0.00    +0.000 A 
ATOM     20 BR   UNL     1      -0.190  11.406  20.774  0.00  0.00    +0.000 Br
ATOM     21  C   UNL     1       1.151   8.918  20.397  0.00  0.00    +0.000 A 
ATOM     22  C   UNL     1       1.915   7.988  19.683  0.00  0.00    +0.000 A 
ENDBRANCH  14  16
ENDBRANCH  11  14
TORSDOF 2
ENDMDL
MODEL 5
REMARK VINA RESULT:      -7.8      3.280      4.974
REMARK  Name = 
REMARK  3 active torsions:
REMARK  status: ('A' for Active; 'I' for Inactive)
REMARK    1  A    between atoms: C_1  and  C_2
REMARK    2  A    between atoms: N_11  and  N_12
REMARK    3  A    between atoms: N_12  and  C_13
REMARK                            x       y       z     vdW  Elec       q    Type
REMARK                         _______ _______ _______ _____ _____    ______ ____
ROOT
ATOM      1  C   UNL     1       3.235   2.385  17.165  0.00  0.00    +0.000 C 
ATOM      2  C   UNL     1       2.936   2.559  18.660  0.00  0.00    +0.000 C 
ATOM      3  C   UNL     1       1.476   2.146  18.943  0.00  0.00    +0.000 C 
ATOM      4  C   UNL     1       1.096   2.300  20.412  0.00  0.00    +0.000 C 
ATOM      5  C   UNL     1       1.398   3.694  20.943  0.00  0.00    +0.000 C 
ATOM      6  C   UNL     1       2.855   4.079  20.700  0.00  0.00    +0.000 C 
ATOM      7  C   UNL     1       3.269   3.972  19.210  0.00  0.00    +0.000 C 
ATOM      8  C   UNL     1       4.763   4.361  19.076  0.00  0.00    +0.000 C 
ATOM      9  C   UNL     1       4.738   5.742  18.481  0.00  0.00    +0.000 C 
ATOM     10  O   UNL     1       5.707   6.324  18.011  0.00  0.00    +0.000 OA
ATOM     11  N   UNL     1       3.437   6.178  18.487  0.00  0.00    +0.000 N 
ATOM     12  C   UNL     1       2.587   5.096  18.439  0.00  0.00    +0.000 C 
ATOM     13  O   UNL     1       1.493   5.027  17.910  0.00  0.00    +0.000 OA
ENDROOT
BRANCH  11  14
ATOM     14  N   UNL     1       3.123   7.364  17.810  0.00  0.00    +0.000 N 
ATOM     15  H   UNL     1       3.951   7.800  17.397  0.00  0.00    +0.000 HD
BRANCH  14  16
ATOM     16  C   UNL     1       2.336   8.311  18.517  0.00  0.00    +0.000 A 
ATOM     17  C   UNL     1       1.881   8.139  19.834  0.00  0.00    +0.000 A 
ATOM     18  C   UNL     1       0.979   9.035  20.415  0.00  0.00    +0.000 A 
ATOM     19  C   UNL     1       0.521  10.123  19.682  0.00  0.00    +0.000 A 
ATOM     20 BR   UNL     1      -0.748  11.296  20.443  0.00  0.00    +0.000 Br
ATOM     21  C   UNL     1       0.977  10.335  18.386  0.00  0.00    +0.000 A 
ATOM     22  C   UNL     1       1.877   9.432  17.808  0.00  0.00    +0.000 A 
ENDBRANCH  14  16
ENDBRANCH  11  14
TORSDOF 2
ENDMDL
MODEL 6
REMARK VINA RESULT:      -7.5      3.006      3.824
REMARK  Name = 
REMARK  3 active torsions:
REMARK  status: ('A' for Active; 'I' for Inactive)
REMARK    1  A    between atoms: C_1  and  C_2
REMARK    2  A    between atoms: N_11  and  N_12
REMARK    3  A    between atoms: N_12  and  C_13
REMARK                            x       y       z     vdW  Elec       q    Type
REMARK                         _______ _______ _______ _____ _____    ______ ____
ROOT
ATOM      1  C   UNL     1       2.399   5.208  21.422  0.00  0.00    +0.000 C 
ATOM      2  C   UNL     1       1.602   4.472  20.335  0.00  0.00    +0.000 C 
ATOM      3  C   UNL     1       1.535   2.969  20.678  0.00  0.00    +0.000 C 
ATOM      4  C   UNL     1       0.765   2.162  19.637  0.00  0.00    +0.000 C 
ATOM      5  C   UNL     1       1.287   2.394  18.226  0.00  0.00    +0.000 C 
ATOM      6  C   UNL     1       1.309   3.880  17.877  0.00  0.00    +0.000 C 
ATOM      7  C   UNL     1       2.116   4.728  18.893  0.00  0.00    +0.000 C 
ATOM      8  C   UNL     1       2.058   6.216  18.461  0.00  0.00    +0.000 C 
ATOM      9  C   UNL     1       3.415   6.487  17.873  0.00  0.00    +0.000 C 
ATOM     10  O   UNL     1       3.861   7.597  17.614  0.00  0.00    +0.000 OA
ATOM     11  N   UNL     1       4.073   5.289  17.766  0.00  0.00    +0.000 N 
ATOM     12  C   UNL     1       3.596   4.413  18.714  0.00  0.00    +0.000 C 
ATOM     13  O   UNL     1       4.207   3.537  19.298  0.00  0.00    +0.000 OA
ENDROOT
BRANCH  11  14
ATOM     14  N   UNL     1       5.431   5.297  17.420  0.00  0.00    +0.000 N 
ATOM     15  H   UNL     1       5.902   6.149  17.735  0.00  0.00    +0.000 HD
BRANCH  14  16
ATOM     16  C   UNL     1       5.746   5.001  16.067  0.00  0.00    +0.000 A 
ATOM     17  C   UNL     1       4.873   4.364  15.171  0.00  0.00    +0.000 A 
ATOM     18  C   UNL     1       5.300   3.960  13.903  0.00  0.00    +0.000 A 
ATOM     19  C   UNL     1       6.612   4.192  13.512  0.00  0.00    +0.000 A 
ATOM     20 BR   UNL     1       7.207   3.588  11.824  0.00  0.00    +0.000 Br
ATOM     21  C   UNL     1       7.491   4.848  14.367  0.00  0.00    +0.000 A 
ATOM     22  C   UNL     1       7.059   5.247  15.636  0.00  0.00    +0.000 A 
ENDBRANCH  14  16
ENDBRANCH  11  14
TORSDOF 2
ENDMDL
MODEL 7
REMARK VINA RESULT:      -7.4      2.763      3.906
REMARK  Name = 
REMARK  3 active torsions:
REMARK  status: ('A' for Active; 'I' for Inactive)
REMARK    1  A    between atoms: C_1  and  C_2
REMARK    2  A    between atoms: N_11  and  N_12
REMARK    3  A    between atoms: N_12  and  C_13
REMARK                            x       y       z     vdW  Elec       q    Type
REMARK                         _______ _______ _______ _____ _____    ______ ____
ROOT
ATOM      1  C   UNL     1       3.106   2.580  21.293  0.00  0.00    +0.000 C 
ATOM      2  C   UNL     1       2.222   3.346  20.299  0.00  0.00    +0.000 C 
ATOM      3  C   UNL     1       1.267   2.359  19.594  0.00  0.00    +0.000 C 
ATOM      4  C   UNL     1       0.358   3.044  18.579  0.00  0.00    +0.000 C 
ATOM      5  C   UNL     1       1.140   3.880  17.576  0.00  0.00    +0.000 C 
ATOM      6  C   UNL     1       2.050   4.885  18.278  0.00  0.00    +0.000 C 
ATOM      7  C   UNL     1       3.016   4.221  19.292  0.00  0.00    +0.000 C 
ATOM      8  C   UNL     1       3.875   5.324  19.962  0.00  0.00    +0.000 C 
ATOM      9  C   UNL     1       5.224   5.195  19.309  0.00  0.00    +0.000 C 
ATOM     10  O   UNL     1       6.251   5.730  19.705  0.00  0.00    +0.000 OA
ATOM     11  N   UNL     1       5.102   4.316  18.263  0.00  0.00    +0.000 N 
ATOM     12  C   UNL     1       4.069   3.441  18.513  0.00  0.00    +0.000 C 
ATOM     13  O   UNL     1       3.978   2.276  18.175  0.00  0.00    +0.000 OA
ENDROOT
BRANCH  11  14
ATOM     14  N   UNL     1       6.264   3.882  17.612  0.00  0.00    +0.000 N 
ATOM     15  H   UNL     1       7.111   4.165  18.111  0.00  0.00    +0.000 HD
BRANCH  14  16
ATOM     16  C   UNL     1       6.360   4.166  16.224  0.00  0.00    +0.000 A 
ATOM     17  C   UNL     1       5.655   3.479  15.223  0.00  0.00    +0.000 A 
ATOM     18  C   UNL     1       5.914   3.700  13.868  0.00  0.00    +0.000 A 
ATOM     19  C   UNL     1       6.887   4.619  13.494  0.00  0.00    +0.000 A 
ATOM     20 BR   UNL     1       7.284   4.869  11.665  0.00  0.00    +0.000 Br
ATOM     21  C   UNL     1       7.580   5.336  14.463  0.00  0.00    +0.000 A 
ATOM     22  C   UNL     1       7.318   5.108  15.818  0.00  0.00    +0.000 A 
ENDBRANCH  14  16
ENDBRANCH  11  14
TORSDOF 2
ENDMDL
MODEL 8
REMARK VINA RESULT:      -7.2      2.914      3.950
REMARK  Name = 
REMARK  3 active torsions:
REMARK  status: ('A' for Active; 'I' for Inactive)
REMARK    1  A    between atoms: C_1  and  C_2
REMARK    2  A    between atoms: N_11  and  N_12
REMARK    3  A    between atoms: N_12  and  C_13
REMARK                            x       y       z     vdW  Elec       q    Type
REMARK                         _______ _______ _______ _____ _____    ______ ____
ROOT
ATOM      1  C   UNL     1       3.286   1.428  18.230  0.00  0.00    +0.000 C 
ATOM      2  C   UNL     1       2.725   2.294  19.366  0.00  0.00    +0.000 C 
ATOM      3  C   UNL     1       1.203   2.466  19.176  0.00  0.00    +0.000 C 
ATOM      4  C   UNL     1       0.568   3.326  20.264  0.00  0.00    +0.000 C 
ATOM      5  C   UNL     1       1.269   4.668  20.420  0.00  0.00    +0.000 C 
ATOM      6  C   UNL     1       2.767   4.491  20.652  0.00  0.00    +0.000 C 
ATOM      7  C   UNL     1       3.455   3.652  19.545  0.00  0.00    +0.000 C 
ATOM      8  C   UNL     1       4.961   3.514  19.884  0.00  0.00    +0.000 C 
ATOM      9  C   UNL     1       5.646   4.460  18.937  0.00  0.00    +0.000 C 
ATOM     10  O   UNL     1       6.851   4.492  18.723  0.00  0.00    +0.000 OA
ATOM     11  N   UNL     1       4.678   5.201  18.310  0.00  0.00    +0.000 N 
ATOM     12  C   UNL     1       3.502   4.485  18.269  0.00  0.00    +0.000 C 
ATOM     13  O   UNL     1       2.643   4.507  17.408  0.00  0.00    +0.000 OA
ENDROOT
BRANCH  11  14
ATOM     14  N   UNL     1       5.049   6.024  17.239  0.00  0.00    +0.000 N 
ATOM     15  H   UNL     1       4.298   6.664  16.969  0.00  0.00    +0.000 HD
BRANCH  14  16
ATOM     16  C   UNL     1       5.614   5.381  16.106  0.00  0.00    +0.000 A 
ATOM     17  C   UNL     1       6.916   5.610  15.632  0.00  0.00    +0.000 A 
ATOM     18  C   UNL     1       7.355   5.065  14.422  0.00  0.00    +0.000 A 
ATOM     19  C   UNL     1       6.494   4.278  13.668  0.00  0.00    +0.000 A 
ATOM     20 BR   UNL     1       7.065   3.597  12.001  0.00  0.00    +0.000 Br
ATOM     21  C   UNL     1       5.209   4.010  14.127  0.00  0.00    +0.000 A 
ATOM     22  C   UNL     1       4.774   4.561  15.338  0.00  0.00    +0.000 A 
ENDBRANCH  14  16
ENDBRANCH  11  14
TORSDOF 2
ENDMDL
MODEL 9
REMARK VINA RESULT:      -6.9      3.522      5.768
REMARK  Name = 
REMARK  3 active torsions:
REMARK  status: ('A' for Active; 'I' for Inactive)
REMARK    1  A    between atoms: C_1  and  C_2
REMARK    2  A    between atoms: N_11  and  N_12
REMARK    3  A    between atoms: N_12  and  C_13
REMARK                            x       y       z     vdW  Elec       q    Type
REMARK                         _______ _______ _______ _____ _____    ______ ____
ROOT
ATOM      1  C   UNL     1       4.632   2.442  19.817  0.00  0.00    +0.000 C 
ATOM      2  C   UNL     1       4.441   3.114  18.450  0.00  0.00    +0.000 C 
ATOM      3  C   UNL     1       5.797   3.654  17.948  0.00  0.00    +0.000 C 
ATOM      4  C   UNL     1       5.690   4.347  16.594  0.00  0.00    +0.000 C 
ATOM      5  C   UNL     1       4.617   5.427  16.582  0.00  0.00    +0.000 C 
ATOM      6  C   UNL     1       3.267   4.876  17.036  0.00  0.00    +0.000 C 
ATOM      7  C   UNL     1       3.329   4.197  18.428  0.00  0.00    +0.000 C 
ATOM      8  C   UNL     1       1.920   3.656  18.784  0.00  0.00    +0.000 C 
ATOM      9  C   UNL     1       1.394   4.628  19.804  0.00  0.00    +0.000 C 
ATOM     10  O   UNL     1       0.407   4.446  20.505  0.00  0.00    +0.000 OA
ATOM     11  N   UNL     1       2.260   5.690  19.858  0.00  0.00    +0.000 N 
ATOM     12  C   UNL     1       3.519   5.279  19.484  0.00  0.00    +0.000 C 
ATOM     13  O   UNL     1       4.591   5.693  19.886  0.00  0.00    +0.000 OA
ENDROOT
BRANCH  11  14
ATOM     14  N   UNL     1       2.091   6.644  20.871  0.00  0.00    +0.000 N 
ATOM     15  H   UNL     1       1.625   6.251  21.693  0.00  0.00    +0.000 HD
BRANCH  14  16
ATOM     16  C   UNL     1       1.512   7.883  20.489  0.00  0.00    +0.000 A 
ATOM     17  C   UNL     1       0.550   8.574  21.244  0.00  0.00    +0.000 A 
ATOM     18  C   UNL     1      -0.096   9.705  20.738  0.00  0.00    +0.000 A 
ATOM     19  C   UNL     1       0.215  10.164  19.465  0.00  0.00    +0.000 A 
ATOM     20 BR   UNL     1      -0.705  11.653  18.755  0.00  0.00    +0.000 Br
ATOM     21  C   UNL     1       1.185   9.517  18.706  0.00  0.00    +0.000 A 
ATOM     22  C   UNL     1       1.826   8.383  19.217  0.00  0.00    +0.000 A 
ENDBRANCH  14  16
ENDBRANCH  11  14
TORSDOF 2
ENDMDL
