MODEL 1
REMARK VINA RESULT:      -7.1      0.000      0.000
REMARK  Name = 
REMARK  7 active torsions:
REMARK  status: ('A' for Active; 'I' for Inactive)
REMARK    1  A    between atoms: C_1  and  C_2
REMARK    2  A    between atoms: N_5  and  C_6
REMARK    3  A    between atoms: C_6  and  C_7
REMARK    4  A    between atoms: N_11  and  C_12
REMARK    5  A    between atoms: C_12  and  C_13
REMARK    6  A    between atoms: C_12  and  C_14
REMARK    7  A    between atoms: C_17  and  C_18
REMARK                            x       y       z     vdW  Elec       q    Type
REMARK                         _______ _______ _______ _____ _____    ______ ____
ROOT
ATOM      1  C   UNL     1       1.791   4.812  19.527  0.00  0.00    +0.000 C 
ATOM      2  C   UNL     1       1.060   3.942  20.555  0.00  0.00    +0.000 C 
ATOM      3  C   UNL     1       0.515   2.781  19.766  0.00  0.00    +0.000 C 
ATOM      4  C   UNL     1       1.457   2.642  18.589  0.00  0.00    +0.000 C 
ATOM      5  N   UNL     1       2.271   3.874  18.483  0.00  0.00    +0.000 NA
ENDROOT
BRANCH   5   6
ATOM      6  C   UNL     1       3.703   3.549  18.310  0.00  0.00    +0.000 C 
ATOM      7  C   UNL     1       3.846   2.074  17.848  0.00  0.00    +0.000 C 
BRANCH   6   8
ATOM      8  C   UNL     1       4.487   4.334  17.300  0.00  0.00    +0.000 A 
ATOM      9  N   UNL     1       4.590   5.636  17.103  0.00  0.00    +0.000 NA
ATOM     10  N   UNL     1       5.219   5.787  15.880  0.00  0.00    +0.000 NA
ATOM     11  C   UNL     1       5.442   4.574  15.402  0.00  0.00    +0.000 A 
ATOM     12  O   UNL     1       5.044   3.605  16.291  0.00  0.00    +0.000 OA
BRANCH  11  13
ATOM     13  C   UNL     1       5.931   4.288  14.082  0.00  0.00    +0.000 A 
ATOM     14  C   UNL     1       5.344   3.484  13.124  0.00  0.00    +0.000 A 
ATOM     15  C   UNL     1       6.153   3.348  11.954  0.00  0.00    +0.000 A 
ATOM     16  C   UNL     1       7.319   4.071  12.050  0.00  0.00    +0.000 A 
ATOM     17  S   UNL     1       7.435   4.907  13.535  0.00  0.00    +0.000 S 
ENDBRANCH  11  13
ENDBRANCH   6   8
ENDBRANCH   5   6
BRANCH   1  18
ATOM     18  C   UNL     1       2.706   5.840  20.226  0.00  0.00    +0.000 C 
BRANCH  18  23
ATOM     19  C   UNL     1       1.023   9.964  17.969  0.00  0.00    +0.000 C 
ATOM     20  C   UNL     1       1.422   8.975  18.994  0.00  0.00    +0.000 A 
ATOM     21  C   UNL     1       1.002   8.891  20.341  0.00  0.00    +0.000 A 
ATOM     22  N   UNL     1       1.507   7.827  20.973  0.00  0.00    +0.000 NA
ATOM     23  N   UNL     1       2.217   7.202  20.015  0.00  0.00    +0.000 N 
ATOM     24  C   UNL     1       2.266   7.897  18.840  0.00  0.00    +0.000 A 
ENDBRANCH  18  23
ENDBRANCH   1  18
TORSDOF 5
ENDMDL
MODEL 2
REMARK VINA RESULT:      -7.1      3.363      7.822
REMARK  Name = 
REMARK  7 active torsions:
REMARK  status: ('A' for Active; 'I' for Inactive)
REMARK    1  A    between atoms: C_1  and  C_2
REMARK    2  A    between atoms: N_5  and  C_6
REMARK    3  A    between atoms: C_6  and  C_7
REMARK    4  A    between atoms: N_11  and  C_12
REMARK    5  A    between atoms: C_12  and  C_13
REMARK    6  A    between atoms: C_12  and  C_14
REMARK    7  A    between atoms: C_17  and  C_18
REMARK                            x       y       z     vdW  Elec       q    Type
REMARK                         _______ _______ _______ _____ _____    ______ ____
ROOT
ATOM      1  C   UNL     1       5.608   5.881  18.120  0.00  0.00    +0.000 C 
ATOM      2  C   UNL     1       5.950   4.388  18.091  0.00  0.00    +0.000 C 
ATOM      3  C   UNL     1       5.159   3.785  19.222  0.00  0.00    +0.000 C 
ATOM      4  C   UNL     1       3.962   4.698  19.382  0.00  0.00    +0.000 C 
ATOM      5  N   UNL     1       4.229   5.962  18.658  0.00  0.00    +0.000 NA
ENDROOT
BRANCH   5   6
ATOM      6  C   UNL     1       3.073   6.345  17.819  0.00  0.00    +0.000 C 
ATOM      7  C   UNL     1       2.004   5.220  17.866  0.00  0.00    +0.000 C 
BRANCH   6   8
ATOM      8  C   UNL     1       2.321   7.591  18.181  0.00  0.00    +0.000 A 
ATOM      9  N   UNL     1       2.309   8.791  17.629  0.00  0.00    +0.000 NA
ATOM     10  N   UNL     1       1.658   9.618  18.526  0.00  0.00    +0.000 NA
ATOM     11  C   UNL     1       1.331   8.878  19.573  0.00  0.00    +0.000 A 
ATOM     12  O   UNL     1       1.681   7.563  19.386  0.00  0.00    +0.000 OA
BRANCH  11  13
ATOM     13  C   UNL     1       0.783   9.387  20.799  0.00  0.00    +0.000 A 
ATOM     14  C   UNL     1       1.042   8.946  22.083  0.00  0.00    +0.000 A 
ATOM     15  C   UNL     1       0.251   9.620  23.063  0.00  0.00    +0.000 A 
ATOM     16  C   UNL     1      -0.569  10.568  22.497  0.00  0.00    +0.000 A 
ATOM     17  S   UNL     1      -0.382  10.646  20.800  0.00  0.00    +0.000 S 
ENDBRANCH  11  13
ENDBRANCH   6   8
ENDBRANCH   5   6
BRANCH   1  18
ATOM     18  C   UNL     1       6.048   6.573  16.812  0.00  0.00    +0.000 C 
BRANCH  18  23
ATOM     19  C   UNL     1       5.341   3.522  12.925  0.00  0.00    +0.000 C 
ATOM     20  C   UNL     1       5.966   4.306  14.012  0.00  0.00    +0.000 A 
ATOM     21  C   UNL     1       7.313   4.716  14.135  0.00  0.00    +0.000 A 
ATOM     22  N   UNL     1       7.525   5.475  15.213  0.00  0.00    +0.000 NA
ATOM     23  N   UNL     1       6.300   5.589  15.761  0.00  0.00    +0.000 N 
ATOM     24  C   UNL     1       5.354   4.836  15.126  0.00  0.00    +0.000 A 
ENDBRANCH  18  23
ENDBRANCH   1  18
TORSDOF 5
ENDMDL
MODEL 3
REMARK VINA RESULT:      -7.0      3.000      6.991
REMARK  Name = 
REMARK  7 active torsions:
REMARK  status: ('A' for Active; 'I' for Inactive)
REMARK    1  A    between atoms: C_1  and  C_2
REMARK    2  A    between atoms: N_5  and  C_6
REMARK    3  A    between atoms: C_6  and  C_7
REMARK    4  A    between atoms: N_11  and  C_12
REMARK    5  A    between atoms: C_12  and  C_13
REMARK    6  A    between atoms: C_12  and  C_14
REMARK    7  A    between atoms: C_17  and  C_18
REMARK                            x       y       z     vdW  Elec       q    Type
REMARK                         _______ _______ _______ _____ _____    ______ ____
ROOT
ATOM      1  C   UNL     1       4.783   3.986  16.335  0.00  0.00    +0.000 C 
ATOM      2  C   UNL     1       6.158   3.806  15.685  0.00  0.00    +0.000 C 
ATOM      3  C   UNL     1       6.274   4.937  14.697  0.00  0.00    +0.000 C 
ATOM      4  C   UNL     1       5.391   6.030  15.262  0.00  0.00    +0.000 C 
ATOM      5  N   UNL     1       4.516   5.444  16.302  0.00  0.00    +0.000 NA
ENDROOT
BRANCH   5   6
ATOM      6  C   UNL     1       4.517   6.277  17.525  0.00  0.00    +0.000 C 
ATOM      7  C   UNL     1       5.813   7.131  17.567  0.00  0.00    +0.000 C 
BRANCH   6   8
ATOM      8  C   UNL     1       3.408   7.271  17.701  0.00  0.00    +0.000 A 
ATOM      9  N   UNL     1       3.076   8.337  16.996  0.00  0.00    +0.000 NA
ATOM     10  N   UNL     1       2.154   9.029  17.760  0.00  0.00    +0.000 NA
ATOM     11  C   UNL     1       1.995   8.353  18.887  0.00  0.00    +0.000 A 
ATOM     12  O   UNL     1       2.730   7.193  18.883  0.00  0.00    +0.000 OA
BRANCH  11  13
ATOM     13  C   UNL     1       1.244   8.814  20.021  0.00  0.00    +0.000 A 
ATOM     14  C   UNL     1       1.255   8.296  21.303  0.00  0.00    +0.000 A 
ATOM     15  C   UNL     1       0.313   8.942  22.161  0.00  0.00    +0.000 A 
ATOM     16  C   UNL     1      -0.369   9.944  21.512  0.00  0.00    +0.000 A 
ATOM     17  S   UNL     1       0.125  10.107  19.885  0.00  0.00    +0.000 S 
ENDBRANCH  11  13
ENDBRANCH   6   8
ENDBRANCH   5   6
BRANCH   1  18
ATOM     18  C   UNL     1       4.663   3.132  17.616  0.00  0.00    +0.000 C 
BRANCH  18  23
ATOM     19  C   UNL     1       0.924   4.535  20.613  0.00  0.00    +0.000 C 
ATOM     20  C   UNL     1       1.700   3.942  19.502  0.00  0.00    +0.000 A 
ATOM     21  C   UNL     1       1.247   3.574  18.215  0.00  0.00    +0.000 A 
ATOM     22  N   UNL     1       2.232   3.129  17.430  0.00  0.00    +0.000 NA
ATOM     23  N   UNL     1       3.328   3.255  18.201  0.00  0.00    +0.000 N 
ATOM     24  C   UNL     1       3.047   3.655  19.476  0.00  0.00    +0.000 A 
ENDBRANCH  18  23
ENDBRANCH   1  18
TORSDOF 5
ENDMDL
MODEL 4
REMARK VINA RESULT:      -7.0      1.087      1.364
REMARK  Name = 
REMARK  7 active torsions:
REMARK  status: ('A' for Active; 'I' for Inactive)
REMARK    1  A    between atoms: C_1  and  C_2
REMARK    2  A    between atoms: N_5  and  C_6
REMARK    3  A    between atoms: C_6  and  C_7
REMARK    4  A    between atoms: N_11  and  C_12
REMARK    5  A    between atoms: C_12  and  C_13
REMARK    6  A    between atoms: C_12  and  C_14
REMARK    7  A    between atoms: C_17  and  C_18
REMARK                            x       y       z     vdW  Elec       q    Type
REMARK                         _______ _______ _______ _____ _____    ______ ____
ROOT
ATOM      1  C   UNL     1       1.978   5.348  19.206  0.00  0.00    +0.000 C 
ATOM      2  C   UNL     1       1.235   4.306  20.048  0.00  0.00    +0.000 C 
ATOM      3  C   UNL     1       1.321   3.029  19.253  0.00  0.00    +0.000 C 
ATOM      4  C   UNL     1       2.588   3.172  18.436  0.00  0.00    +0.000 C 
ATOM      5  N   UNL     1       3.009   4.590  18.456  0.00  0.00    +0.000 NA
ENDROOT
BRANCH   5   6
ATOM      6  C   UNL     1       4.453   4.709  18.757  0.00  0.00    +0.000 C 
ATOM      7  C   UNL     1       4.993   3.339  19.249  0.00  0.00    +0.000 C 
BRANCH   6   8
ATOM      8  C   UNL     1       5.376   5.095  17.639  0.00  0.00    +0.000 A 
ATOM      9  N   UNL     1       6.018   6.223  17.393  0.00  0.00    +0.000 NA
ATOM     10  N   UNL     1       6.498   6.114  16.101  0.00  0.00    +0.000 NA
ATOM     11  C   UNL     1       6.105   4.939  15.635  0.00  0.00    +0.000 A 
ATOM     12  O   UNL     1       5.430   4.222  16.592  0.00  0.00    +0.000 OA
BRANCH  11  13
ATOM     13  C   UNL     1       6.257   4.503  14.275  0.00  0.00    +0.000 A 
ATOM     14  C   UNL     1       5.455   3.616  13.583  0.00  0.00    +0.000 A 
ATOM     15  C   UNL     1       5.953   3.335  12.274  0.00  0.00    +0.000 A 
ATOM     16  C   UNL     1       7.107   4.035  12.003  0.00  0.00    +0.000 A 
ATOM     17  S   UNL     1       7.580   5.022  13.315  0.00  0.00    +0.000 S 
ENDBRANCH  11  13
ENDBRANCH   6   8
ENDBRANCH   5   6
BRANCH   1  18
ATOM     18  C   UNL     1       2.293   6.608  20.040  0.00  0.00    +0.000 C 
BRANCH  18  23
ATOM     19  C   UNL     1       0.973  11.332  19.105  0.00  0.00    +0.000 C 
ATOM     20  C   UNL     1       1.381   9.919  18.945  0.00  0.00    +0.000 A 
ATOM     21  C   UNL     1       2.012   9.309  17.837  0.00  0.00    +0.000 A 
ATOM     22  N   UNL     1       2.304   8.023  18.054  0.00  0.00    +0.000 NA
ATOM     23  N   UNL     1       1.900   7.820  19.322  0.00  0.00    +0.000 N 
ATOM     24  C   UNL     1       1.263   8.900  19.864  0.00  0.00    +0.000 A 
ENDBRANCH  18  23
ENDBRANCH   1  18
TORSDOF 5
ENDMDL
MODEL 5
REMARK VINA RESULT:      -6.9      1.221      1.394
REMARK  Name = 
REMARK  7 active torsions:
REMARK  status: ('A' for Active; 'I' for Inactive)
REMARK    1  A    between atoms: C_1  and  C_2
REMARK    2  A    between atoms: N_5  and  C_6
REMARK    3  A    between atoms: C_6  and  C_7
REMARK    4  A    between atoms: N_11  and  C_12
REMARK    5  A    between atoms: C_12  and  C_13
REMARK    6  A    between atoms: C_12  and  C_14
REMARK    7  A    between atoms: C_17  and  C_18
REMARK                            x       y       z     vdW  Elec       q    Type
REMARK                         _______ _______ _______ _____ _____    ______ ____
ROOT
ATOM      1  C   UNL     1       1.743   4.605  19.538  0.00  0.00    +0.000 C 
ATOM      2  C   UNL     1       0.820   3.455  19.955  0.00  0.00    +0.000 C 
ATOM      3  C   UNL     1       0.947   2.434  18.856  0.00  0.00    +0.000 C 
ATOM      4  C   UNL     1       2.328   2.663  18.279  0.00  0.00    +0.000 C 
ATOM      5  N   UNL     1       2.827   3.975  18.746  0.00  0.00    +0.000 NA
ENDROOT
BRANCH   5   6
ATOM      6  C   UNL     1       4.214   3.865  19.250  0.00  0.00    +0.000 C 
ATOM      7  C   UNL     1       4.569   2.370  19.464  0.00  0.00    +0.000 C 
BRANCH   6   8
ATOM      8  C   UNL     1       5.322   4.392  18.386  0.00  0.00    +0.000 A 
ATOM      9  N   UNL     1       6.105   5.446  18.525  0.00  0.00    +0.000 NA
ATOM     10  N   UNL     1       6.750   5.605  17.312  0.00  0.00    +0.000 NA
ATOM     11  C   UNL     1       6.307   4.654  16.506  0.00  0.00    +0.000 A 
ATOM     12  O   UNL     1       5.432   3.816  17.154  0.00  0.00    +0.000 OA
BRANCH  11  13
ATOM     13  C   UNL     1       6.604   4.561  15.104  0.00  0.00    +0.000 A 
ATOM     14  C   UNL     1       7.617   5.202  14.416  0.00  0.00    +0.000 A 
ATOM     15  C   UNL     1       7.564   4.954  13.010  0.00  0.00    +0.000 A 
ATOM     16  C   UNL     1       6.527   4.116  12.675  0.00  0.00    +0.000 A 
ATOM     17  S   UNL     1       5.628   3.629  14.045  0.00  0.00    +0.000 S 
ENDBRANCH  11  13
ENDBRANCH   6   8
ENDBRANCH   5   6
BRANCH   1  18
ATOM     18  C   UNL     1       2.005   5.560  20.722  0.00  0.00    +0.000 C 
BRANCH  18  23
ATOM     19  C   UNL     1       1.777   9.609  17.810  0.00  0.00    +0.000 C 
ATOM     20  C   UNL     1       1.759   8.706  18.982  0.00  0.00    +0.000 A 
ATOM     21  C   UNL     1       1.144   8.913  20.238  0.00  0.00    +0.000 A 
ATOM     22  N   UNL     1       1.263   7.859  21.050  0.00  0.00    +0.000 NA
ATOM     23  N   UNL     1       1.918   6.955  20.295  0.00  0.00    +0.000 N 
ATOM     24  C   UNL     1       2.310   7.448  19.084  0.00  0.00    +0.000 A 
ENDBRANCH  18  23
ENDBRANCH   1  18
TORSDOF 5
ENDMDL
MODEL 6
REMARK VINA RESULT:      -6.8      3.379      8.160
REMARK  Name = 
REMARK  7 active torsions:
REMARK  status: ('A' for Active; 'I' for Inactive)
REMARK    1  A    between atoms: C_1  and  C_2
REMARK    2  A    between atoms: N_5  and  C_6
REMARK    3  A    between atoms: C_6  and  C_7
REMARK    4  A    between atoms: N_11  and  C_12
REMARK    5  A    between atoms: C_12  and  C_13
REMARK    6  A    between atoms: C_12  and  C_14
REMARK    7  A    between atoms: C_17  and  C_18
REMARK                            x       y       z     vdW  Elec       q    Type
REMARK                         _______ _______ _______ _____ _____    ______ ____
ROOT
ATOM      1  C   UNL     1       6.219   5.723  16.510  0.00  0.00    +0.000 C 
ATOM      2  C   UNL     1       7.222   4.628  16.884  0.00  0.00    +0.000 C 
ATOM      3  C   UNL     1       7.674   4.972  18.278  0.00  0.00    +0.000 C 
ATOM      4  C   UNL     1       6.514   5.737  18.879  0.00  0.00    +0.000 C 
ATOM      5  N   UNL     1       5.601   6.149  17.789  0.00  0.00    +0.000 NA
ENDROOT
BRANCH   5   6
ATOM      6  C   UNL     1       4.195   5.840  18.131  0.00  0.00    +0.000 C 
ATOM      7  C   UNL     1       4.130   5.248  19.564  0.00  0.00    +0.000 C 
BRANCH   6   8
ATOM      8  C   UNL     1       3.209   6.969  18.147  0.00  0.00    +0.000 A 
ATOM      9  N   UNL     1       3.035   7.983  17.318  0.00  0.00    +0.000 NA
ATOM     10  N   UNL     1       2.175   8.857  17.959  0.00  0.00    +0.000 NA
ATOM     11  C   UNL     1       1.894   8.332  19.141  0.00  0.00    +0.000 A 
ATOM     12  O   UNL     1       2.483   7.101  19.295  0.00  0.00    +0.000 OA
BRANCH  11  13
ATOM     13  C   UNL     1       1.163   8.999  20.182  0.00  0.00    +0.000 A 
ATOM     14  C   UNL     1       0.934   8.549  21.468  0.00  0.00    +0.000 A 
ATOM     15  C   UNL     1       0.086   9.426  22.211  0.00  0.00    +0.000 A 
ATOM     16  C   UNL     1      -0.285  10.527  21.474  0.00  0.00    +0.000 A 
ATOM     17  S   UNL     1       0.386  10.502  19.903  0.00  0.00    +0.000 S 
ENDBRANCH  11  13
ENDBRANCH   6   8
ENDBRANCH   5   6
BRANCH   1  18
ATOM     18  C   UNL     1       5.398   5.319  15.267  0.00  0.00    +0.000 C 
BRANCH  18  23
ATOM     19  C   UNL     1       6.965   2.734  11.294  0.00  0.00    +0.000 C 
ATOM     20  C   UNL     1       6.901   3.671  12.436  0.00  0.00    +0.000 A 
ATOM     21  C   UNL     1       7.681   4.827  12.666  0.00  0.00    +0.000 A 
ATOM     22  N   UNL     1       7.314   5.486  13.769  0.00  0.00    +0.000 NA
ATOM     23  N   UNL     1       6.265   4.774  14.223  0.00  0.00    +0.000 N 
ATOM     24  C   UNL     1       6.037   3.633  13.508  0.00  0.00    +0.000 A 
ENDBRANCH  18  23
ENDBRANCH   1  18
TORSDOF 5
ENDMDL
MODEL 7
REMARK VINA RESULT:      -6.8      2.964      3.421
REMARK  Name = 
REMARK  7 active torsions:
REMARK  status: ('A' for Active; 'I' for Inactive)
REMARK    1  A    between atoms: C_1  and  C_2
REMARK    2  A    between atoms: N_5  and  C_6
REMARK    3  A    between atoms: C_6  and  C_7
REMARK    4  A    between atoms: N_11  and  C_12
REMARK    5  A    between atoms: C_12  and  C_13
REMARK    6  A    between atoms: C_12  and  C_14
REMARK    7  A    between atoms: C_17  and  C_18
REMARK                            x       y       z     vdW  Elec       q    Type
REMARK                         _______ _______ _______ _____ _____    ______ ____
ROOT
ATOM      1  C   UNL     1       1.681   4.705  20.638  0.00  0.00    +0.000 C 
ATOM      2  C   UNL     1       2.189   3.823  21.783  0.00  0.00    +0.000 C 
ATOM      3  C   UNL     1       1.409   2.541  21.664  0.00  0.00    +0.000 C 
ATOM      4  C   UNL     1       1.052   2.444  20.196  0.00  0.00    +0.000 C 
ATOM      5  N   UNL     1       1.272   3.765  19.566  0.00  0.00    +0.000 NA
ENDROOT
BRANCH   5   6
ATOM      6  C   UNL     1       2.028   3.629  18.302  0.00  0.00    +0.000 C 
ATOM      7  C   UNL     1       1.612   4.762  17.326  0.00  0.00    +0.000 C 
BRANCH   6   8
ATOM      8  C   UNL     1       3.525   3.719  18.363  0.00  0.00    +0.000 A 
ATOM      9  N   UNL     1       4.416   2.962  18.977  0.00  0.00    +0.000 NA
ATOM     10  N   UNL     1       5.610   3.658  18.922  0.00  0.00    +0.000 NA
ATOM     11  C   UNL     1       5.369   4.799  18.297  0.00  0.00    +0.000 A 
ATOM     12  O   UNL     1       4.066   4.870  17.869  0.00  0.00    +0.000 OA
BRANCH  11  13
ATOM     13  C   UNL     1       6.306   5.880  18.172  0.00  0.00    +0.000 A 
ATOM     14  C   UNL     1       6.257   6.936  17.282  0.00  0.00    +0.000 A 
ATOM     15  C   UNL     1       7.405   7.781  17.372  0.00  0.00    +0.000 A 
ATOM     16  C   UNL     1       8.282   7.353  18.342  0.00  0.00    +0.000 A 
ATOM     17  S   UNL     1       7.722   5.949  19.138  0.00  0.00    +0.000 S 
ENDBRANCH  11  13
ENDBRANCH   6   8
ENDBRANCH   5   6
BRANCH   1  18
ATOM     18  C   UNL     1       2.627   5.900  20.400  0.00  0.00    +0.000 C 
BRANCH  18  23
ATOM     19  C   UNL     1       0.130  10.104  21.408  0.00  0.00    +0.000 C 
ATOM     20  C   UNL     1       0.830   9.010  20.701  0.00  0.00    +0.000 A 
ATOM     21  C   UNL     1       1.431   9.036  19.422  0.00  0.00    +0.000 A 
ATOM     22  N   UNL     1       2.041   7.888  19.115  0.00  0.00    +0.000 NA
ATOM     23  N   UNL     1       1.870   7.138  20.220  0.00  0.00    +0.000 N 
ATOM     24  C   UNL     1       1.078   7.735  21.159  0.00  0.00    +0.000 A 
ENDBRANCH  18  23
ENDBRANCH   1  18
TORSDOF 5
ENDMDL
MODEL 8
REMARK VINA RESULT:      -6.8      2.711      6.664
REMARK  Name = 
REMARK  7 active torsions:
REMARK  status: ('A' for Active; 'I' for Inactive)
REMARK    1  A    between atoms: C_1  and  C_2
REMARK    2  A    between atoms: N_5  and  C_6
REMARK    3  A    between atoms: C_6  and  C_7
REMARK    4  A    between atoms: N_11  and  C_12
REMARK    5  A    between atoms: C_12  and  C_13
REMARK    6  A    between atoms: C_12  and  C_14
REMARK    7  A    between atoms: C_17  and  C_18
REMARK                            x       y       z     vdW  Elec       q    Type
REMARK                         _______ _______ _______ _____ _____    ______ ____
ROOT
ATOM      1  C   UNL     1       4.170   3.491  17.205  0.00  0.00    +0.000 C 
ATOM      2  C   UNL     1       2.681   3.216  16.972  0.00  0.00    +0.000 C 
ATOM      3  C   UNL     1       2.341   2.090  17.912  0.00  0.00    +0.000 C 
ATOM      4  C   UNL     1       3.331   2.228  19.049  0.00  0.00    +0.000 C 
ATOM      5  N   UNL     1       4.423   3.130  18.621  0.00  0.00    +0.000 NA
ENDROOT
BRANCH   5   6
ATOM      6  C   UNL     1       4.706   4.147  19.658  0.00  0.00    +0.000 C 
ATOM      7  C   UNL     1       5.826   5.098  19.158  0.00  0.00    +0.000 C 
BRANCH   6   8
ATOM      8  C   UNL     1       3.592   5.063  20.069  0.00  0.00    +0.000 A 
ATOM      9  N   UNL     1       2.477   4.830  20.736  0.00  0.00    +0.000 NA
ATOM     10  N   UNL     1       1.700   5.966  20.590  0.00  0.00    +0.000 NA
ATOM     11  C   UNL     1       2.381   6.809  19.831  0.00  0.00    +0.000 A 
ATOM     12  O   UNL     1       3.620   6.309  19.512  0.00  0.00    +0.000 OA
BRANCH  11  13
ATOM     13  C   UNL     1       1.863   8.042  19.307  0.00  0.00    +0.000 A 
ATOM     14  C   UNL     1       2.007   8.536  18.024  0.00  0.00    +0.000 A 
ATOM     15  C   UNL     1       1.441   9.839  17.873  0.00  0.00    +0.000 A 
ATOM     16  C   UNL     1       0.866  10.287  19.040  0.00  0.00    +0.000 A 
ATOM     17  S   UNL     1       1.004   9.144  20.302  0.00  0.00    +0.000 S 
ENDBRANCH  11  13
ENDBRANCH   6   8
ENDBRANCH   5   6
BRANCH   1  18
ATOM     18  C   UNL     1       4.584   4.845  16.590  0.00  0.00    +0.000 C 
BRANCH  18  23
ATOM     19  C   UNL     1       6.730   3.701  12.230  0.00  0.00    +0.000 C 
ATOM     20  C   UNL     1       6.493   4.201  13.601  0.00  0.00    +0.000 A 
ATOM     21  C   UNL     1       7.211   5.191  14.310  0.00  0.00    +0.000 A 
ATOM     22  N   UNL     1       6.684   5.451  15.509  0.00  0.00    +0.000 NA
ATOM     23  N   UNL     1       5.596   4.658  15.552  0.00  0.00    +0.000 N 
ATOM     24  C   UNL     1       5.491   3.830  14.471  0.00  0.00    +0.000 A 
ENDBRANCH  18  23
ENDBRANCH   1  18
TORSDOF 5
ENDMDL
MODEL 9
REMARK VINA RESULT:      -6.7      2.894      7.895
REMARK  Name = 
REMARK  7 active torsions:
REMARK  status: ('A' for Active; 'I' for Inactive)
REMARK    1  A    between atoms: C_1  and  C_2
REMARK    2  A    between atoms: N_5  and  C_6
REMARK    3  A    between atoms: C_6  and  C_7
REMARK    4  A    between atoms: N_11  and  C_12
REMARK    5  A    between atoms: C_12  and  C_13
REMARK    6  A    between atoms: C_12  and  C_14
REMARK    7  A    between atoms: C_17  and  C_18
REMARK                            x       y       z     vdW  Elec       q    Type
REMARK                         _______ _______ _______ _____ _____    ______ ____
ROOT
ATOM      1  C   UNL     1       6.064   6.056  16.896  0.00  0.00    +0.000 C 
ATOM      2  C   UNL     1       7.212   5.043  16.902  0.00  0.00    +0.000 C 
ATOM      3  C   UNL     1       7.590   4.889  18.352  0.00  0.00    +0.000 C 
ATOM      4  C   UNL     1       6.321   5.210  19.114  0.00  0.00    +0.000 C 
ATOM      5  N   UNL     1       5.373   5.881  18.196  0.00  0.00    +0.000 NA
ENDROOT
BRANCH   5   6
ATOM      6  C   UNL     1       4.024   5.283  18.301  0.00  0.00    +0.000 C 
ATOM      7  C   UNL     1       4.153   3.755  18.546  0.00  0.00    +0.000 C 
BRANCH   6   8
ATOM      8  C   UNL     1       3.123   5.763  19.400  0.00  0.00    +0.000 A 
ATOM      9  N   UNL     1       2.307   5.107  20.204  0.00  0.00    +0.000 NA
ATOM     10  N   UNL     1       1.531   6.067  20.828  0.00  0.00    +0.000 NA
ATOM     11  C   UNL     1       1.909   7.243  20.353  0.00  0.00    +0.000 A 
ATOM     12  O   UNL     1       2.959   7.116  19.477  0.00  0.00    +0.000 OA
BRANCH  11  13
ATOM     13  C   UNL     1       1.245   8.488  20.622  0.00  0.00    +0.000 A 
ATOM     14  C   UNL     1       0.726   8.920  21.827  0.00  0.00    +0.000 A 
ATOM     15  C   UNL     1       0.049  10.174  21.713  0.00  0.00    +0.000 A 
ATOM     16  C   UNL     1       0.094  10.666  20.430  0.00  0.00    +0.000 A 
ATOM     17  S   UNL     1       0.948   9.628  19.375  0.00  0.00    +0.000 S 
ENDBRANCH  11  13
ENDBRANCH   6   8
ENDBRANCH   5   6
BRANCH   1  18
ATOM     18  C   UNL     1       5.328   6.049  15.539  0.00  0.00    +0.000 C 
BRANCH  18  23
ATOM     19  C   UNL     1       6.073   2.684  11.926  0.00  0.00    +0.000 C 
ATOM     20  C   UNL     1       6.285   3.727  12.954  0.00  0.00    +0.000 A 
ATOM     21  C   UNL     1       7.362   4.635  13.072  0.00  0.00    +0.000 A 
ATOM     22  N   UNL     1       7.203   5.494  14.083  0.00  0.00    +0.000 NA
ATOM     23  N   UNL     1       5.999   5.165  14.587  0.00  0.00    +0.000 N 
ATOM     24  C   UNL     1       5.453   4.059  14.000  0.00  0.00    +0.000 A 
ENDBRANCH  18  23
ENDBRANCH   1  18
TORSDOF 5
ENDMDL
