MODEL 1
REMARK VINA RESULT:      -7.1      0.000      0.000
REMARK  Name = 
REMARK  1 active torsions:
REMARK  status: ('A' for Active; 'I' for Inactive)
REMARK    1  A    between atoms: N_3  and  C_4
REMARK                            x       y       z     vdW  Elec       q    Type
REMARK                         _______ _______ _______ _____ _____    ______ ____
ROOT
ATOM      1  O   UNL     1       4.153   3.190  17.011  0.00  0.00    +0.000 OA
ATOM      2  C   UNL     1       4.288   4.355  17.375  0.00  0.00    +0.000 C 
ATOM      3  N   UNL     1       3.685   4.901  18.488  0.00  0.00    +0.000 N 
ATOM      4  N   UNL     1       5.039   5.252  16.630  0.00  0.00    +0.000 N 
ATOM      5  C   UNL     1       5.519   4.842  15.308  0.00  0.00    +0.000 C 
ATOM      6  C   UNL     1       7.047   4.780  15.278  0.00  0.00    +0.000 C 
ATOM      7  O   UNL     1       7.613   6.038  15.687  0.00  0.00    +0.000 OA
ATOM      8  C   UNL     1       7.206   6.360  17.026  0.00  0.00    +0.000 C 
ATOM      9  C   UNL     1       5.677   6.474  17.133  0.00  0.00    +0.000 C 
ATOM     10  H   UNL     1       3.559   5.902  18.455  0.00  0.00    +0.000 HD
ENDROOT
BRANCH   3  11
ATOM     11  C   UNL     1       2.893   4.212  19.430  0.00  0.00    +0.000 A 
ATOM     12  C   UNL     1       1.496   4.309  19.480  0.00  0.00    +0.000 A 
ATOM     13  C   UNL     1       0.772   3.644  20.474  0.00  0.00    +0.000 A 
ATOM     14  C   UNL     1       1.443   2.868  21.406  0.00  0.00    +0.000 A 
ATOM     15  F   UNL     1       0.751   2.245  22.370  0.00  0.00    +0.000 F 
ATOM     16  C   UNL     1       2.825   2.728  21.355  0.00  0.00    +0.000 A 
ATOM     17  C   UNL     1       3.549   3.394  20.362  0.00  0.00    +0.000 A 
ENDBRANCH   3  11
TORSDOF 1
ENDMDL
MODEL 2
REMARK VINA RESULT:      -7.0      0.209      1.214
REMARK  Name = 
REMARK  1 active torsions:
REMARK  status: ('A' for Active; 'I' for Inactive)
REMARK    1  A    between atoms: N_3  and  C_4
REMARK                            x       y       z     vdW  Elec       q    Type
REMARK                         _______ _______ _______ _____ _____    ______ ____
ROOT
ATOM      1  O   UNL     1       4.169   3.126  17.058  0.00  0.00    +0.000 OA
ATOM      2  C   UNL     1       4.349   4.295  17.387  0.00  0.00    +0.000 C 
ATOM      3  N   UNL     1       3.830   4.876  18.525  0.00  0.00    +0.000 N 
ATOM      4  N   UNL     1       5.067   5.162  16.577  0.00  0.00    +0.000 N 
ATOM      5  C   UNL     1       5.453   4.715  15.235  0.00  0.00    +0.000 C 
ATOM      6  C   UNL     1       6.974   4.621  15.109  0.00  0.00    +0.000 C 
ATOM      7  O   UNL     1       7.589   5.875  15.454  0.00  0.00    +0.000 OA
ATOM      8  C   UNL     1       7.276   6.233  16.809  0.00  0.00    +0.000 C 
ATOM      9  C   UNL     1       5.759   6.380  17.011  0.00  0.00    +0.000 C 
ATOM     10  H   UNL     1       3.720   5.878  18.478  0.00  0.00    +0.000 HD
ENDROOT
BRANCH   3  11
ATOM     11  C   UNL     1       3.087   4.222  19.530  0.00  0.00    +0.000 A 
ATOM     12  C   UNL     1       3.631   3.251  20.382  0.00  0.00    +0.000 A 
ATOM     13  C   UNL     1       2.827   2.600  21.322  0.00  0.00    +0.000 A 
ATOM     14  C   UNL     1       1.485   2.930  21.423  0.00  0.00    +0.000 A 
ATOM     15  F   UNL     1       0.710   2.293  22.310  0.00  0.00    +0.000 F 
ATOM     16  C   UNL     1       0.931   3.916  20.613  0.00  0.00    +0.000 A 
ATOM     17  C   UNL     1       1.735   4.567  19.672  0.00  0.00    +0.000 A 
ENDBRANCH   3  11
TORSDOF 1
ENDMDL
MODEL 3
REMARK VINA RESULT:      -6.6      1.332      1.701
REMARK  Name = 
REMARK  1 active torsions:
REMARK  status: ('A' for Active; 'I' for Inactive)
REMARK    1  A    between atoms: N_3  and  C_4
REMARK                            x       y       z     vdW  Elec       q    Type
REMARK                         _______ _______ _______ _____ _____    ______ ____
ROOT
ATOM      1  O   UNL     1       5.660   4.606  19.455  0.00  0.00    +0.000 OA
ATOM      2  C   UNL     1       5.234   4.096  18.422  0.00  0.00    +0.000 C 
ATOM      3  N   UNL     1       4.070   3.361  18.337  0.00  0.00    +0.000 N 
ATOM      4  N   UNL     1       5.948   4.180  17.237  0.00  0.00    +0.000 N 
ATOM      5  C   UNL     1       7.308   4.726  17.271  0.00  0.00    +0.000 C 
ATOM      6  C   UNL     1       7.392   6.029  16.474  0.00  0.00    +0.000 C 
ATOM      7  O   UNL     1       6.929   5.829  15.127  0.00  0.00    +0.000 OA
ATOM      8  C   UNL     1       5.560   5.393  15.125  0.00  0.00    +0.000 C 
ATOM      9  C   UNL     1       5.396   4.065  15.882  0.00  0.00    +0.000 C 
ATOM     10  H   UNL     1       4.040   2.700  17.574  0.00  0.00    +0.000 HD
ENDROOT
BRANCH   3  11
ATOM     11  C   UNL     1       3.144   3.140  19.378  0.00  0.00    +0.000 A 
ATOM     12  C   UNL     1       1.818   3.590  19.338  0.00  0.00    +0.000 A 
ATOM     13  C   UNL     1       0.966   3.387  20.428  0.00  0.00    +0.000 A 
ATOM     14  C   UNL     1       1.434   2.719  21.549  0.00  0.00    +0.000 A 
ATOM     15  F   UNL     1       0.623   2.541  22.600  0.00  0.00    +0.000 F 
ATOM     16  C   UNL     1       2.735   2.231  21.596  0.00  0.00    +0.000 A 
ATOM     17  C   UNL     1       3.588   2.435  20.507  0.00  0.00    +0.000 A 
ENDBRANCH   3  11
TORSDOF 1
ENDMDL
MODEL 4
REMARK VINA RESULT:      -6.5      1.353      2.085
REMARK  Name = 
REMARK  1 active torsions:
REMARK  status: ('A' for Active; 'I' for Inactive)
REMARK    1  A    between atoms: N_3  and  C_4
REMARK                            x       y       z     vdW  Elec       q    Type
REMARK                         _______ _______ _______ _____ _____    ______ ____
ROOT
ATOM      1  O   UNL     1       5.800   4.666  19.366  0.00  0.00    +0.000 OA
ATOM      2  C   UNL     1       5.322   4.126  18.371  0.00  0.00    +0.000 C 
ATOM      3  N   UNL     1       4.164   3.378  18.368  0.00  0.00    +0.000 N 
ATOM      4  N   UNL     1       5.970   4.186  17.147  0.00  0.00    +0.000 N 
ATOM      5  C   UNL     1       7.324   4.745  17.093  0.00  0.00    +0.000 C 
ATOM      6  C   UNL     1       7.351   6.028  16.261  0.00  0.00    +0.000 C 
ATOM      7  O   UNL     1       6.817   5.789  14.946  0.00  0.00    +0.000 OA
ATOM      8  C   UNL     1       5.455   5.341  15.031  0.00  0.00    +0.000 C 
ATOM      9  C   UNL     1       5.346   4.032  15.828  0.00  0.00    +0.000 C 
ATOM     10  H   UNL     1       4.099   2.698  17.625  0.00  0.00    +0.000 HD
ENDROOT
BRANCH   3  11
ATOM     11  C   UNL     1       3.299   3.175  19.464  0.00  0.00    +0.000 A 
ATOM     12  C   UNL     1       3.678   2.494  20.629  0.00  0.00    +0.000 A 
ATOM     13  C   UNL     1       2.756   2.278  21.657  0.00  0.00    +0.000 A 
ATOM     14  C   UNL     1       1.461   2.757  21.529  0.00  0.00    +0.000 A 
ATOM     15  F   UNL     1       0.573   2.534  22.506  0.00  0.00    +0.000 F 
ATOM     16  C   UNL     1       1.073   3.467  20.399  0.00  0.00    +0.000 A 
ATOM     17  C   UNL     1       1.995   3.683  19.370  0.00  0.00    +0.000 A 
ENDBRANCH   3  11
TORSDOF 1
ENDMDL
MODEL 5
REMARK VINA RESULT:      -6.5      3.375      6.369
REMARK  Name = 
REMARK  1 active torsions:
REMARK  status: ('A' for Active; 'I' for Inactive)
REMARK    1  A    between atoms: N_3  and  C_4
REMARK                            x       y       z     vdW  Elec       q    Type
REMARK                         _______ _______ _______ _____ _____    ______ ____
ROOT
ATOM      1  O   UNL     1       3.985   3.797  17.256  0.00  0.00    +0.000 OA
ATOM      2  C   UNL     1       4.007   3.839  18.484  0.00  0.00    +0.000 C 
ATOM      3  N   UNL     1       4.886   4.602  19.224  0.00  0.00    +0.000 N 
ATOM      4  N   UNL     1       3.154   3.050  19.240  0.00  0.00    +0.000 N 
ATOM      5  C   UNL     1       2.352   2.028  18.561  0.00  0.00    +0.000 C 
ATOM      6  C   UNL     1       0.859   2.342  18.676  0.00  0.00    +0.000 C 
ATOM      7  O   UNL     1       0.479   2.493  20.056  0.00  0.00    +0.000 OA
ATOM      8  C   UNL     1       1.209   3.570  20.664  0.00  0.00    +0.000 C 
ATOM      9  C   UNL     1       2.724   3.314  20.618  0.00  0.00    +0.000 C 
ATOM     10  H   UNL     1       5.058   4.263  20.159  0.00  0.00    +0.000 HD
ENDROOT
BRANCH   3  11
ATOM     11  C   UNL     1       5.839   5.509  18.713  0.00  0.00    +0.000 A 
ATOM     12  C   UNL     1       7.142   5.620  19.214  0.00  0.00    +0.000 A 
ATOM     13  C   UNL     1       8.021   6.578  18.701  0.00  0.00    +0.000 A 
ATOM     14  C   UNL     1       7.603   7.412  17.676  0.00  0.00    +0.000 A 
ATOM     15  F   UNL     1       8.439   8.343  17.196  0.00  0.00    +0.000 F 
ATOM     16  C   UNL     1       6.327   7.296  17.138  0.00  0.00    +0.000 A 
ATOM     17  C   UNL     1       5.447   6.338  17.652  0.00  0.00    +0.000 A 
ENDBRANCH   3  11
TORSDOF 1
ENDMDL
MODEL 6
REMARK VINA RESULT:      -6.4      3.555      6.595
REMARK  Name = 
REMARK  1 active torsions:
REMARK  status: ('A' for Active; 'I' for Inactive)
REMARK    1  A    between atoms: N_3  and  C_4
REMARK                            x       y       z     vdW  Elec       q    Type
REMARK                         _______ _______ _______ _____ _____    ______ ____
ROOT
ATOM      1  O   UNL     1       2.555   3.378  16.740  0.00  0.00    +0.000 OA
ATOM      2  C   UNL     1       3.301   3.129  17.683  0.00  0.00    +0.000 C 
ATOM      3  N   UNL     1       4.671   3.289  17.659  0.00  0.00    +0.000 N 
ATOM      4  N   UNL     1       2.806   2.597  18.864  0.00  0.00    +0.000 N 
ATOM      5  C   UNL     1       1.407   2.162  18.909  0.00  0.00    +0.000 C 
ATOM      6  C   UNL     1       0.605   3.009  19.897  0.00  0.00    +0.000 C 
ATOM      7  O   UNL     1       1.216   2.983  21.200  0.00  0.00    +0.000 OA
ATOM      8  C   UNL     1       2.550   3.512  21.139  0.00  0.00    +0.000 C 
ATOM      9  C   UNL     1       3.434   2.691  20.187  0.00  0.00    +0.000 C 
ATOM     10  H   UNL     1       5.178   2.708  18.310  0.00  0.00    +0.000 HD
ENDROOT
BRANCH   3  11
ATOM     11  C   UNL     1       5.429   3.831  16.599  0.00  0.00    +0.000 A 
ATOM     12  C   UNL     1       5.256   3.459  15.260  0.00  0.00    +0.000 A 
ATOM     13  C   UNL     1       6.078   3.992  14.263  0.00  0.00    +0.000 A 
ATOM     14  C   UNL     1       7.059   4.911  14.602  0.00  0.00    +0.000 A 
ATOM     15  F   UNL     1       7.858   5.408  13.649  0.00  0.00    +0.000 F 
ATOM     16  C   UNL     1       7.224   5.323  15.919  0.00  0.00    +0.000 A 
ATOM     17  C   UNL     1       6.403   4.788  16.917  0.00  0.00    +0.000 A 
ENDBRANCH   3  11
TORSDOF 1
ENDMDL
MODEL 7
REMARK VINA RESULT:      -6.4      3.490      6.646
REMARK  Name = 
REMARK  1 active torsions:
REMARK  status: ('A' for Active; 'I' for Inactive)
REMARK    1  A    between atoms: N_3  and  C_4
REMARK                            x       y       z     vdW  Elec       q    Type
REMARK                         _______ _______ _______ _____ _____    ______ ____
ROOT
ATOM      1  O   UNL     1       2.788   4.817  17.363  0.00  0.00    +0.000 OA
ATOM      2  C   UNL     1       3.276   3.811  17.872  0.00  0.00    +0.000 C 
ATOM      3  N   UNL     1       4.501   3.277  17.529  0.00  0.00    +0.000 N 
ATOM      4  N   UNL     1       2.577   3.081  18.822  0.00  0.00    +0.000 N 
ATOM      5  C   UNL     1       1.174   3.420  19.078  0.00  0.00    +0.000 C 
ATOM      6  C   UNL     1       0.990   3.931  20.508  0.00  0.00    +0.000 C 
ATOM      7  O   UNL     1       1.492   2.973  21.457  0.00  0.00    +0.000 OA
ATOM      8  C   UNL     1       2.894   2.741  21.243  0.00  0.00    +0.000 C 
ATOM      9  C   UNL     1       3.161   2.192  19.833  0.00  0.00    +0.000 C 
ATOM     10  H   UNL     1       4.601   2.291  17.716  0.00  0.00    +0.000 HD
ENDROOT
BRANCH   3  11
ATOM     11  C   UNL     1       5.424   3.827  16.615  0.00  0.00    +0.000 A 
ATOM     12  C   UNL     1       6.441   4.715  16.988  0.00  0.00    +0.000 A 
ATOM     13  C   UNL     1       7.290   5.269  16.025  0.00  0.00    +0.000 A 
ATOM     14  C   UNL     1       7.133   4.922  14.692  0.00  0.00    +0.000 A 
ATOM     15  F   UNL     1       7.933   5.466  13.767  0.00  0.00    +0.000 F 
ATOM     16  C   UNL     1       6.154   4.015  14.303  0.00  0.00    +0.000 A 
ATOM     17  C   UNL     1       5.304   3.462  15.266  0.00  0.00    +0.000 A 
ENDBRANCH   3  11
TORSDOF 1
ENDMDL
MODEL 8
REMARK VINA RESULT:      -6.3      3.945      5.298
REMARK  Name = 
REMARK  1 active torsions:
REMARK  status: ('A' for Active; 'I' for Inactive)
REMARK    1  A    between atoms: N_3  and  C_4
REMARK                            x       y       z     vdW  Elec       q    Type
REMARK                         _______ _______ _______ _____ _____    ______ ____
ROOT
ATOM      1  O   UNL     1       1.500   5.053  17.715  0.00  0.00    +0.000 OA
ATOM      2  C   UNL     1       2.602   5.158  18.247  0.00  0.00    +0.000 C 
ATOM      3  N   UNL     1       3.078   6.310  18.838  0.00  0.00    +0.000 N 
ATOM      4  N   UNL     1       3.501   4.102  18.241  0.00  0.00    +0.000 N 
ATOM      5  C   UNL     1       3.194   2.920  17.431  0.00  0.00    +0.000 C 
ATOM      6  C   UNL     1       2.994   1.689  18.318  0.00  0.00    +0.000 C 
ATOM      7  O   UNL     1       4.143   1.480  19.159  0.00  0.00    +0.000 OA
ATOM      8  C   UNL     1       4.355   2.615  20.013  0.00  0.00    +0.000 C 
ATOM      9  C   UNL     1       4.598   3.893  19.194  0.00  0.00    +0.000 C 
ATOM     10  H   UNL     1       4.083   6.382  18.878  0.00  0.00    +0.000 HD
ENDROOT
BRANCH   3  11
ATOM     11  C   UNL     1       2.367   7.517  19.005  0.00  0.00    +0.000 A 
ATOM     12  C   UNL     1       1.757   7.892  20.209  0.00  0.00    +0.000 A 
ATOM     13  C   UNL     1       1.019   9.076  20.293  0.00  0.00    +0.000 A 
ATOM     14  C   UNL     1       0.905   9.893  19.179  0.00  0.00    +0.000 A 
ATOM     15  F   UNL     1       0.183  11.019  19.254  0.00  0.00    +0.000 F 
ATOM     16  C   UNL     1       1.532   9.560  17.984  0.00  0.00    +0.000 A 
ATOM     17  C   UNL     1       2.269   8.375  17.900  0.00  0.00    +0.000 A 
ENDBRANCH   3  11
TORSDOF 1
ENDMDL
MODEL 9
REMARK VINA RESULT:      -6.2      3.923      5.236
REMARK  Name = 
REMARK  1 active torsions:
REMARK  status: ('A' for Active; 'I' for Inactive)
REMARK    1  A    between atoms: N_3  and  C_4
REMARK                            x       y       z     vdW  Elec       q    Type
REMARK                         _______ _______ _______ _____ _____    ______ ____
ROOT
ATOM      1  O   UNL     1       1.517   4.979  17.681  0.00  0.00    +0.000 OA
ATOM      2  C   UNL     1       2.618   5.106  18.210  0.00  0.00    +0.000 C 
ATOM      3  N   UNL     1       3.085   6.277  18.769  0.00  0.00    +0.000 N 
ATOM      4  N   UNL     1       3.524   4.057  18.234  0.00  0.00    +0.000 N 
ATOM      5  C   UNL     1       3.226   2.850  17.457  0.00  0.00    +0.000 C 
ATOM      6  C   UNL     1       3.034   1.644  18.377  0.00  0.00    +0.000 C 
ATOM      7  O   UNL     1       4.184   1.465  19.224  0.00  0.00    +0.000 OA
ATOM      8  C   UNL     1       4.387   2.625  20.046  0.00  0.00    +0.000 C 
ATOM      9  C   UNL     1       4.622   3.881  19.192  0.00  0.00    +0.000 C 
ATOM     10  H   UNL     1       4.090   6.358  18.807  0.00  0.00    +0.000 HD
ENDROOT
BRANCH   3  11
ATOM     11  C   UNL     1       2.366   7.483  18.902  0.00  0.00    +0.000 A 
ATOM     12  C   UNL     1       2.209   8.405  17.858  0.00  0.00    +0.000 A 
ATOM     13  C   UNL     1       1.531   9.609  18.070  0.00  0.00    +0.000 A 
ATOM     14  C   UNL     1       0.996   9.884  19.318  0.00  0.00    +0.000 A 
ATOM     15  F   UNL     1       0.362  11.046  19.526  0.00  0.00    +0.000 F 
ATOM     16  C   UNL     1       1.108   8.969  20.359  0.00  0.00    +0.000 A 
ATOM     17  C   UNL     1       1.786   7.765  20.147  0.00  0.00    +0.000 A 
ENDBRANCH   3  11
TORSDOF 1
ENDMDL
