MODEL 1
REMARK VINA RESULT:      -8.7      0.000      0.000
REMARK  Name = 
REMARK  6 active torsions:
REMARK  status: ('A' for Active; 'I' for Inactive)
REMARK    1  A    between atoms: C_1  and  C_2
REMARK    2  A    between atoms: C_2  and  C_3
REMARK    3  A    between atoms: C_2  and  C_4
REMARK    4  A    between atoms: C_2  and  C_5
REMARK    5  A    between atoms: C_9  and  C_10
REMARK    6  A    between atoms: C_15  and  C_17
REMARK                            x       y       z     vdW  Elec       q    Type
REMARK                         _______ _______ _______ _____ _____    ______ ____
ROOT
ATOM      1  C   UNL     1       2.409   5.662  19.914  0.00  0.00    +0.000 C 
ATOM      2  C   UNL     1       1.560   5.254  21.118  0.00  0.00    +0.000 C 
ATOM      3  C   UNL     1       1.395   4.558  19.808  0.00  0.00    +0.000 C 
ATOM      4  C   UNL     1       2.120   3.264  19.564  0.00  0.00    +0.000 C 
ATOM      5  N   UNL     1       3.405   3.717  19.058  0.00  0.00    +0.000 N 
ATOM      6  C   UNL     1       3.979   3.076  17.972  0.00  0.00    +0.000 C 
ATOM      7  O   UNL     1       3.552   1.972  17.604  0.00  0.00    +0.000 OA
ATOM      8  C   UNL     1       3.757   5.017  19.605  0.00  0.00    +0.000 C 
ENDROOT
BRANCH   6   9
ATOM      9  C   UNL     1       5.077   3.806  17.174  0.00  0.00    +0.000 C 
ATOM     10  C   UNL     1       5.977   3.080  16.135  0.00  0.00    +0.000 C 
ATOM     11  C   UNL     1       5.967   4.412  15.330  0.00  0.00    +0.000 C 
ATOM     12  C   UNL     1       7.044   5.455  15.582  0.00  0.00    +0.000 C 
ATOM     13  O   UNL     1       7.828   5.513  14.377  0.00  0.00    +0.000 OA
ATOM     14  C   UNL     1       7.152   4.870  13.377  0.00  0.00    +0.000 C 
ATOM     15  O   UNL     1       7.501   4.837  12.210  0.00  0.00    +0.000 OA
ATOM     16  N   UNL     1       6.050   4.265  13.896  0.00  0.00    +0.000 N 
ATOM     17  C   UNL     1       4.583   4.662  15.954  0.00  0.00    +0.000 C 
ATOM     18  H   UNL     1       5.449   3.740  13.274  0.00  0.00    +0.000 HD
ENDBRANCH   6   9
BRANCH   1  23
ATOM     19  C   UNL     1       1.192   9.304  19.639  0.00  0.00    +0.000 A 
ATOM     20  C   UNL     1       1.594   9.578  18.322  0.00  0.00    +0.000 A 
ATOM     21  C   UNL     1       2.342   8.661  17.591  0.00  0.00    +0.000 A 
ATOM     22  C   UNL     1       2.674   7.433  18.150  0.00  0.00    +0.000 A 
ATOM     23  C   UNL     1       2.289   7.094  19.456  0.00  0.00    +0.000 A 
ATOM     24  C   UNL     1       1.604   8.072  20.203  0.00  0.00    +0.000 A 
BRANCH  19  26
ATOM     25  C   UNL     1       0.917  11.588  20.819  0.00  0.00    +0.000 C 
ATOM     26  C   UNL     1       0.256  10.247  20.419  0.00  0.00    +0.000 C 
ATOM     27  C   UNL     1      -0.229   9.567  21.713  0.00  0.00    +0.000 C 
ATOM     28  C   UNL     1      -0.963  10.602  19.537  0.00  0.00    +0.000 C 
ENDBRANCH  19  26
ENDBRANCH   1  23
TORSDOF 3
ENDMDL
MODEL 2
REMARK VINA RESULT:      -7.8      3.570      6.396
REMARK  Name = 
REMARK  6 active torsions:
REMARK  status: ('A' for Active; 'I' for Inactive)
REMARK    1  A    between atoms: C_1  and  C_2
REMARK    2  A    between atoms: C_2  and  C_3
REMARK    3  A    between atoms: C_2  and  C_4
REMARK    4  A    between atoms: C_2  and  C_5
REMARK    5  A    between atoms: C_9  and  C_10
REMARK    6  A    between atoms: C_15  and  C_17
REMARK                            x       y       z     vdW  Elec       q    Type
REMARK                         _______ _______ _______ _____ _____    ______ ____
ROOT
ATOM      1  C   UNL     1       0.288  10.704  19.238  0.00  0.00    +0.000 C 
ATOM      2  C   UNL     1       0.267  12.049  18.514  0.00  0.00    +0.000 C 
ATOM      3  C   UNL     1       1.565  11.407  18.877  0.00  0.00    +0.000 C 
ATOM      4  C   UNL     1       2.292  10.583  17.851  0.00  0.00    +0.000 C 
ATOM      5  N   UNL     1       1.697   9.269  18.029  0.00  0.00    +0.000 N 
ATOM      6  C   UNL     1       2.507   8.144  18.034  0.00  0.00    +0.000 C 
ATOM      7  O   UNL     1       3.675   8.216  17.625  0.00  0.00    +0.000 OA
ATOM      8  C   UNL     1       0.324   9.372  18.494  0.00  0.00    +0.000 C 
ENDROOT
BRANCH   6   9
ATOM      9  C   UNL     1       1.963   6.841  18.652  0.00  0.00    +0.000 C 
ATOM     10  C   UNL     1       2.799   5.531  18.706  0.00  0.00    +0.000 C 
ATOM     11  C   UNL     1       2.085   5.239  20.058  0.00  0.00    +0.000 C 
ATOM     12  C   UNL     1       0.786   4.449  20.073  0.00  0.00    +0.000 C 
ATOM     13  O   UNL     1       1.086   3.205  20.730  0.00  0.00    +0.000 OA
ATOM     14  C   UNL     1       2.296   3.317  21.359  0.00  0.00    +0.000 C 
ATOM     15  O   UNL     1       2.780   2.472  22.092  0.00  0.00    +0.000 OA
ATOM     16  N   UNL     1       2.870   4.503  21.022  0.00  0.00    +0.000 N 
ATOM     17  C   UNL     1       1.985   6.766  20.220  0.00  0.00    +0.000 C 
ATOM     18  H   UNL     1       3.779   4.726  21.406  0.00  0.00    +0.000 HD
ENDBRANCH   6   9
BRANCH   1  23
ATOM     19  C   UNL     1      -1.617  11.799  22.399  0.00  0.00    +0.000 A 
ATOM     20  C   UNL     1      -1.211  10.779  23.274  0.00  0.00    +0.000 A 
ATOM     21  C   UNL     1      -0.448   9.705  22.824  0.00  0.00    +0.000 A 
ATOM     22  C   UNL     1      -0.044   9.648  21.496  0.00  0.00    +0.000 A 
ATOM     23  C   UNL     1      -0.405  10.646  20.577  0.00  0.00    +0.000 A 
ATOM     24  C   UNL     1      -1.246  11.678  21.038  0.00  0.00    +0.000 A 
BRANCH  19  26
ATOM     25  C   UNL     1      -1.438  14.042  23.672  0.00  0.00    +0.000 C 
ATOM     26  C   UNL     1      -2.349  13.059  22.900  0.00  0.00    +0.000 C 
ATOM     27  C   UNL     1      -3.506  12.667  23.838  0.00  0.00    +0.000 C 
ATOM     28  C   UNL     1      -2.912  13.838  21.688  0.00  0.00    +0.000 C 
ENDBRANCH  19  26
ENDBRANCH   1  23
TORSDOF 3
ENDMDL
MODEL 3
REMARK VINA RESULT:      -7.8      1.449      1.882
REMARK  Name = 
REMARK  6 active torsions:
REMARK  status: ('A' for Active; 'I' for Inactive)
REMARK    1  A    between atoms: C_1  and  C_2
REMARK    2  A    between atoms: C_2  and  C_3
REMARK    3  A    between atoms: C_2  and  C_4
REMARK    4  A    between atoms: C_2  and  C_5
REMARK    5  A    between atoms: C_9  and  C_10
REMARK    6  A    between atoms: C_15  and  C_17
REMARK                            x       y       z     vdW  Elec       q    Type
REMARK                         _______ _______ _______ _____ _____    ______ ____
ROOT
ATOM      1  C   UNL     1       2.057   5.259  20.097  0.00  0.00    +0.000 C 
ATOM      2  C   UNL     1       1.158   4.772  21.233  0.00  0.00    +0.000 C 
ATOM      3  C   UNL     1       0.988   4.233  19.852  0.00  0.00    +0.000 C 
ATOM      4  C   UNL     1       1.647   2.933  19.481  0.00  0.00    +0.000 C 
ATOM      5  N   UNL     1       2.967   3.365  19.052  0.00  0.00    +0.000 N 
ATOM      6  C   UNL     1       3.531   2.813  17.913  0.00  0.00    +0.000 C 
ATOM      7  O   UNL     1       3.054   1.782  17.419  0.00  0.00    +0.000 OA
ATOM      8  C   UNL     1       3.376   4.576  19.745  0.00  0.00    +0.000 C 
ENDROOT
BRANCH   6   9
ATOM      9  C   UNL     1       4.687   3.562  17.220  0.00  0.00    +0.000 C 
ATOM     10  C   UNL     1       4.575   5.051  16.785  0.00  0.00    +0.000 C 
ATOM     11  C   UNL     1       6.089   5.169  17.123  0.00  0.00    +0.000 C 
ATOM     12  C   UNL     1       7.128   4.899  16.046  0.00  0.00    +0.000 C 
ATOM     13  O   UNL     1       7.771   6.161  15.792  0.00  0.00    +0.000 OA
ATOM     14  C   UNL     1       7.450   7.033  16.795  0.00  0.00    +0.000 C 
ATOM     15  O   UNL     1       7.922   8.148  16.927  0.00  0.00    +0.000 OA
ATOM     16  N   UNL     1       6.514   6.464  17.602  0.00  0.00    +0.000 N 
ATOM     17  C   UNL     1       5.843   4.059  18.160  0.00  0.00    +0.000 C 
ATOM     18  H   UNL     1       6.169   6.995  18.391  0.00  0.00    +0.000 HD
ENDBRANCH   6   9
BRANCH   1  23
ATOM     19  C   UNL     1       1.022   8.966  20.171  0.00  0.00    +0.000 A 
ATOM     20  C   UNL     1       1.507   9.362  18.914  0.00  0.00    +0.000 A 
ATOM     21  C   UNL     1       2.253   8.493  18.122  0.00  0.00    +0.000 A 
ATOM     22  C   UNL     1       2.498   7.196  18.556  0.00  0.00    +0.000 A 
ATOM     23  C   UNL     1       2.027   6.737  19.796  0.00  0.00    +0.000 A 
ATOM     24  C   UNL     1       1.347   7.661  20.614  0.00  0.00    +0.000 A 
BRANCH  19  26
ATOM     25  C   UNL     1       0.766  11.156  21.520  0.00  0.00    +0.000 C 
ATOM     26  C   UNL     1       0.088   9.864  21.004  0.00  0.00    +0.000 C 
ATOM     27  C   UNL     1      -0.438   9.096  22.230  0.00  0.00    +0.000 C 
ATOM     28  C   UNL     1      -1.105  10.313  20.128  0.00  0.00    +0.000 C 
ENDBRANCH  19  26
ENDBRANCH   1  23
TORSDOF 3
ENDMDL
MODEL 4
REMARK VINA RESULT:      -7.5      0.707      1.246
REMARK  Name = 
REMARK  6 active torsions:
REMARK  status: ('A' for Active; 'I' for Inactive)
REMARK    1  A    between atoms: C_1  and  C_2
REMARK    2  A    between atoms: C_2  and  C_3
REMARK    3  A    between atoms: C_2  and  C_4
REMARK    4  A    between atoms: C_2  and  C_5
REMARK    5  A    between atoms: C_9  and  C_10
REMARK    6  A    between atoms: C_15  and  C_17
REMARK                            x       y       z     vdW  Elec       q    Type
REMARK                         _______ _______ _______ _____ _____    ______ ____
ROOT
ATOM      1  C   UNL     1       2.273   4.946  20.009  0.00  0.00    +0.000 C 
ATOM      2  C   UNL     1       1.385   4.355  21.104  0.00  0.00    +0.000 C 
ATOM      3  C   UNL     1       1.245   3.899  19.690  0.00  0.00    +0.000 C 
ATOM      4  C   UNL     1       1.956   2.651  19.243  0.00  0.00    +0.000 C 
ATOM      5  N   UNL     1       3.262   3.159  18.855  0.00  0.00    +0.000 N 
ATOM      6  C   UNL     1       3.855   2.702  17.689  0.00  0.00    +0.000 C 
ATOM      7  O   UNL     1       3.421   1.687  17.125  0.00  0.00    +0.000 OA
ATOM      8  C   UNL     1       3.619   4.338  19.627  0.00  0.00    +0.000 C 
ENDROOT
BRANCH   6   9
ATOM      9  C   UNL     1       4.986   3.537  17.056  0.00  0.00    +0.000 C 
ATOM     10  C   UNL     1       5.969   2.950  16.005  0.00  0.00    +0.000 C 
ATOM     11  C   UNL     1       5.981   4.366  15.359  0.00  0.00    +0.000 C 
ATOM     12  C   UNL     1       7.015   5.389  15.800  0.00  0.00    +0.000 C 
ATOM     13  O   UNL     1       7.875   5.598  14.666  0.00  0.00    +0.000 OA
ATOM     14  C   UNL     1       7.282   5.064  13.555  0.00  0.00    +0.000 C 
ATOM     15  O   UNL     1       7.707   5.172  12.419  0.00  0.00    +0.000 OA
ATOM     16  N   UNL     1       6.162   4.386  13.925  0.00  0.00    +0.000 N 
ATOM     17  C   UNL     1       4.554   4.521  15.911  0.00  0.00    +0.000 C 
ATOM     18  H   UNL     1       5.616   3.928  13.209  0.00  0.00    +0.000 HD
ENDBRANCH   6   9
BRANCH   1  23
ATOM     19  C   UNL     1       1.255   8.631  20.468  0.00  0.00    +0.000 A 
ATOM     20  C   UNL     1       1.519   9.102  19.172  0.00  0.00    +0.000 A 
ATOM     21  C   UNL     1       2.122   8.288  18.217  0.00  0.00    +0.000 A 
ATOM     22  C   UNL     1       2.441   6.972  18.529  0.00  0.00    +0.000 A 
ATOM     23  C   UNL     1       2.188   6.439  19.802  0.00  0.00    +0.000 A 
ATOM     24  C   UNL     1       1.654   7.308  20.775  0.00  0.00    +0.000 A 
BRANCH  19  26
ATOM     25  C   UNL     1      -0.847   8.812  21.961  0.00  0.00    +0.000 C 
ATOM     26  C   UNL     1       0.474   9.470  21.497  0.00  0.00    +0.000 C 
ATOM     27  C   UNL     1       0.123  10.848  20.906  0.00  0.00    +0.000 C 
ATOM     28  C   UNL     1       1.341   9.660  22.764  0.00  0.00    +0.000 C 
ENDBRANCH  19  26
ENDBRANCH   1  23
TORSDOF 3
ENDMDL
MODEL 5
REMARK VINA RESULT:      -7.5      8.993     12.430
REMARK  Name = 
REMARK  6 active torsions:
REMARK  status: ('A' for Active; 'I' for Inactive)
REMARK    1  A    between atoms: C_1  and  C_2
REMARK    2  A    between atoms: C_2  and  C_3
REMARK    3  A    between atoms: C_2  and  C_4
REMARK    4  A    between atoms: C_2  and  C_5
REMARK    5  A    between atoms: C_9  and  C_10
REMARK    6  A    between atoms: C_15  and  C_17
REMARK                            x       y       z     vdW  Elec       q    Type
REMARK                         _______ _______ _______ _____ _____    ______ ____
ROOT
ATOM      1  C   UNL     1      -5.965  12.042  19.157  0.00  0.00    +0.000 C 
ATOM      2  C   UNL     1      -7.288  11.937  18.399  0.00  0.00    +0.000 C 
ATOM      3  C   UNL     1      -7.097  11.211  19.689  0.00  0.00    +0.000 C 
ATOM      4  C   UNL     1      -7.589  11.834  20.966  0.00  0.00    +0.000 C 
ATOM      5  N   UNL     1      -6.459  12.657  21.366  0.00  0.00    +0.000 N 
ATOM      6  C   UNL     1      -6.062  12.676  22.694  0.00  0.00    +0.000 C 
ATOM      7  O   UNL     1      -6.808  12.224  23.574  0.00  0.00    +0.000 OA
ATOM      8  C   UNL     1      -5.706  13.114  20.211  0.00  0.00    +0.000 C 
ENDROOT
BRANCH   6   9
ATOM      9  C   UNL     1      -4.641  13.168  23.036  0.00  0.00    +0.000 C 
ATOM     10  C   UNL     1      -4.339  14.644  23.419  0.00  0.00    +0.000 C 
ATOM     11  C   UNL     1      -3.241  14.077  24.366  0.00  0.00    +0.000 C 
ATOM     12  C   UNL     1      -1.823  13.887  23.851  0.00  0.00    +0.000 C 
ATOM     13  O   UNL     1      -1.010  14.832  24.570  0.00  0.00    +0.000 OA
ATOM     14  C   UNL     1      -1.724  15.310  25.635  0.00  0.00    +0.000 C 
ATOM     15  O   UNL     1      -1.277  16.044  26.499  0.00  0.00    +0.000 OA
ATOM     16  N   UNL     1      -3.002  14.851  25.563  0.00  0.00    +0.000 N 
ATOM     17  C   UNL     1      -4.125  12.823  24.478  0.00  0.00    +0.000 C 
ATOM     18  H   UNL     1      -3.656  15.127  26.283  0.00  0.00    +0.000 HD
ENDBRANCH   6   9
BRANCH   1  23
ATOM     19  C   UNL     1      -2.262  11.544  18.225  0.00  0.00    +0.000 A 
ATOM     20  C   UNL     1      -2.408  11.271  16.855  0.00  0.00    +0.000 A 
ATOM     21  C   UNL     1      -3.667  11.130  16.278  0.00  0.00    +0.000 A 
ATOM     22  C   UNL     1      -4.808  11.295  17.053  0.00  0.00    +0.000 A 
ATOM     23  C   UNL     1      -4.728  11.583  18.424  0.00  0.00    +0.000 A 
ATOM     24  C   UNL     1      -3.443  11.639  19.000  0.00  0.00    +0.000 A 
BRANCH  19  26
ATOM     25  C   UNL     1      -0.229  13.136  18.347  0.00  0.00    +0.000 C 
ATOM     26  C   UNL     1      -0.888  11.832  18.857  0.00  0.00    +0.000 C 
ATOM     27  C   UNL     1       0.087  10.677  18.564  0.00  0.00    +0.000 C 
ATOM     28  C   UNL     1      -1.052  11.991  20.387  0.00  0.00    +0.000 C 
ENDBRANCH  19  26
ENDBRANCH   1  23
TORSDOF 3
ENDMDL
MODEL 6
REMARK VINA RESULT:      -7.2      3.348      6.387
REMARK  Name = 
REMARK  6 active torsions:
REMARK  status: ('A' for Active; 'I' for Inactive)
REMARK    1  A    between atoms: C_1  and  C_2
REMARK    2  A    between atoms: C_2  and  C_3
REMARK    3  A    between atoms: C_2  and  C_4
REMARK    4  A    between atoms: C_2  and  C_5
REMARK    5  A    between atoms: C_9  and  C_10
REMARK    6  A    between atoms: C_15  and  C_17
REMARK                            x       y       z     vdW  Elec       q    Type
REMARK                         _______ _______ _______ _____ _____    ______ ____
ROOT
ATOM      1  C   UNL     1      -0.445  11.318  19.420  0.00  0.00    +0.000 C 
ATOM      2  C   UNL     1      -0.335  12.735  19.983  0.00  0.00    +0.000 C 
ATOM      3  C   UNL     1      -0.549  11.574  20.896  0.00  0.00    +0.000 C 
ATOM      4  C   UNL     1       0.634  10.942  21.576  0.00  0.00    +0.000 C 
ATOM      5  N   UNL     1       1.076   9.970  20.591  0.00  0.00    +0.000 N 
ATOM      6  C   UNL     1       1.439   8.696  21.001  0.00  0.00    +0.000 C 
ATOM      7  O   UNL     1       1.648   8.464  22.200  0.00  0.00    +0.000 OA
ATOM      8  C   UNL     1       0.769  10.410  19.241  0.00  0.00    +0.000 C 
ENDROOT
BRANCH   6   9
ATOM      9  C   UNL     1       1.472   7.562  19.957  0.00  0.00    +0.000 C 
ATOM     10  C   UNL     1       2.660   7.368  18.973  0.00  0.00    +0.000 C 
ATOM     11  C   UNL     1       2.385   5.840  19.087  0.00  0.00    +0.000 C 
ATOM     12  C   UNL     1       1.428   5.169  18.114  0.00  0.00    +0.000 C 
ATOM     13  O   UNL     1       2.233   4.286  17.313  0.00  0.00    +0.000 OA
ATOM     14  C   UNL     1       3.457   4.140  17.907  0.00  0.00    +0.000 C 
ATOM     15  O   UNL     1       4.325   3.372  17.532  0.00  0.00    +0.000 OA
ATOM     16  N   UNL     1       3.550   4.995  18.961  0.00  0.00    +0.000 N 
ATOM     17  C   UNL     1       1.859   6.141  20.501  0.00  0.00    +0.000 C 
ATOM     18  H   UNL     1       4.407   5.008  19.498  0.00  0.00    +0.000 HD
ENDBRANCH   6   9
BRANCH   1  23
ATOM     19  C   UNL     1      -3.964  11.136  17.869  0.00  0.00    +0.000 A 
ATOM     20  C   UNL     1      -3.737  10.136  16.909  0.00  0.00    +0.000 A 
ATOM     21  C   UNL     1      -2.461   9.627  16.686  0.00  0.00    +0.000 A 
ATOM     22  C   UNL     1      -1.390  10.081  17.445  0.00  0.00    +0.000 A 
ATOM     23  C   UNL     1      -1.556  11.068  18.429  0.00  0.00    +0.000 A 
ATOM     24  C   UNL     1      -2.841  11.626  18.578  0.00  0.00    +0.000 A 
BRANCH  19  26
ATOM     25  C   UNL     1      -6.373  10.472  18.533  0.00  0.00    +0.000 C 
ATOM     26  C   UNL     1      -5.383  11.620  18.221  0.00  0.00    +0.000 C 
ATOM     27  C   UNL     1      -5.974  12.438  17.058  0.00  0.00    +0.000 C 
ATOM     28  C   UNL     1      -5.321  12.504  19.490  0.00  0.00    +0.000 C 
ENDBRANCH  19  26
ENDBRANCH   1  23
TORSDOF 3
ENDMDL
MODEL 7
REMARK VINA RESULT:      -7.2      7.604     11.529
REMARK  Name = 
REMARK  6 active torsions:
REMARK  status: ('A' for Active; 'I' for Inactive)
REMARK    1  A    between atoms: C_1  and  C_2
REMARK    2  A    between atoms: C_2  and  C_3
REMARK    3  A    between atoms: C_2  and  C_4
REMARK    4  A    between atoms: C_2  and  C_5
REMARK    5  A    between atoms: C_9  and  C_10
REMARK    6  A    between atoms: C_15  and  C_17
REMARK                            x       y       z     vdW  Elec       q    Type
REMARK                         _______ _______ _______ _____ _____    ______ ____
ROOT
ATOM      1  C   UNL     1      -0.476  10.937  19.108  0.00  0.00    +0.000 C 
ATOM      2  C   UNL     1       0.815  10.297  18.599  0.00  0.00    +0.000 C 
ATOM      3  C   UNL     1       0.787  11.739  18.983  0.00  0.00    +0.000 C 
ATOM      4  C   UNL     1       1.235  12.144  20.360  0.00  0.00    +0.000 C 
ATOM      5  N   UNL     1       0.015  12.008  21.137  0.00  0.00    +0.000 N 
ATOM      6  C   UNL     1      -0.324  12.987  22.057  0.00  0.00    +0.000 C 
ATOM      7  O   UNL     1       0.517  13.823  22.415  0.00  0.00    +0.000 OA
ATOM      8  C   UNL     1      -0.846  10.973  20.588  0.00  0.00    +0.000 C 
ENDROOT
BRANCH   6   9
ATOM      9  C   UNL     1      -1.786  13.078  22.538  0.00  0.00    +0.000 C 
ATOM     10  C   UNL     1      -2.212  13.947  23.755  0.00  0.00    +0.000 C 
ATOM     11  C   UNL     1      -3.545  14.199  22.993  0.00  0.00    +0.000 C 
ATOM     12  C   UNL     1      -4.726  13.266  23.206  0.00  0.00    +0.000 C 
ATOM     13  O   UNL     1      -5.735  14.049  23.868  0.00  0.00    +0.000 OA
ATOM     14  C   UNL     1      -5.400  15.372  23.778  0.00  0.00    +0.000 C 
ATOM     15  O   UNL     1      -6.104  16.296  24.146  0.00  0.00    +0.000 OA
ATOM     16  N   UNL     1      -4.158  15.485  23.234  0.00  0.00    +0.000 N 
ATOM     17  C   UNL     1      -2.726  14.018  21.703  0.00  0.00    +0.000 C 
ATOM     18  H   UNL     1      -3.767  16.409  23.110  0.00  0.00    +0.000 HD
ENDBRANCH   6   9
BRANCH   1  23
ATOM     19  C   UNL     1      -4.079  11.261  17.789  0.00  0.00    +0.000 A 
ATOM     20  C   UNL     1      -4.012  10.352  16.721  0.00  0.00    +0.000 A 
ATOM     21  C   UNL     1      -2.810   9.748  16.363  0.00  0.00    +0.000 A 
ATOM     22  C   UNL     1      -1.656  10.013  17.089  0.00  0.00    +0.000 A 
ATOM     23  C   UNL     1      -1.662  10.901  18.175  0.00  0.00    +0.000 A 
ATOM     24  C   UNL     1      -2.872  11.563  18.465  0.00  0.00    +0.000 A 
BRANCH  19  26
ATOM     25  C   UNL     1      -5.278  12.758  19.522  0.00  0.00    +0.000 C 
ATOM     26  C   UNL     1      -5.417  11.841  18.284  0.00  0.00    +0.000 C 
ATOM     27  C   UNL     1      -6.387  10.704  18.657  0.00  0.00    +0.000 C 
ATOM     28  C   UNL     1      -6.045  12.704  17.165  0.00  0.00    +0.000 C 
ENDBRANCH  19  26
ENDBRANCH   1  23
TORSDOF 3
ENDMDL
MODEL 8
REMARK VINA RESULT:      -7.1      8.710     12.238
REMARK  Name = 
REMARK  6 active torsions:
REMARK  status: ('A' for Active; 'I' for Inactive)
REMARK    1  A    between atoms: C_1  and  C_2
REMARK    2  A    between atoms: C_2  and  C_3
REMARK    3  A    between atoms: C_2  and  C_4
REMARK    4  A    between atoms: C_2  and  C_5
REMARK    5  A    between atoms: C_9  and  C_10
REMARK    6  A    between atoms: C_15  and  C_17
REMARK                            x       y       z     vdW  Elec       q    Type
REMARK                         _______ _______ _______ _____ _____    ______ ____
ROOT
ATOM      1  C   UNL     1       0.307  14.103  19.519  0.00  0.00    +0.000 C 
ATOM      2  C   UNL     1       1.443  14.865  18.837  0.00  0.00    +0.000 C 
ATOM      3  C   UNL     1       0.059  15.424  18.848  0.00  0.00    +0.000 C 
ATOM      4  C   UNL     1      -0.322  16.430  19.898  0.00  0.00    +0.000 C 
ATOM      5  N   UNL     1      -0.752  15.584  20.999  0.00  0.00    +0.000 N 
ATOM      6  C   UNL     1      -1.896  15.913  21.709  0.00  0.00    +0.000 C 
ATOM      7  O   UNL     1      -2.395  17.041  21.598  0.00  0.00    +0.000 OA
ATOM      8  C   UNL     1      -0.054  14.310  20.987  0.00  0.00    +0.000 C 
ENDROOT
BRANCH   6   9
ATOM      9  C   UNL     1      -2.588  14.820  22.548  0.00  0.00    +0.000 C 
ATOM     10  C   UNL     1      -3.773  15.128  23.506  0.00  0.00    +0.000 C 
ATOM     11  C   UNL     1      -4.322  13.720  23.132  0.00  0.00    +0.000 C 
ATOM     12  C   UNL     1      -3.925  12.509  23.962  0.00  0.00    +0.000 C 
ATOM     13  O   UNL     1      -5.127  12.067  24.617  0.00  0.00    +0.000 OA
ATOM     14  C   UNL     1      -6.202  12.674  24.029  0.00  0.00    +0.000 C 
ATOM     15  O   UNL     1      -7.367  12.427  24.285  0.00  0.00    +0.000 OA
ATOM     16  N   UNL     1      -5.762  13.601  23.135  0.00  0.00    +0.000 N 
ATOM     17  C   UNL     1      -3.614  13.913  21.780  0.00  0.00    +0.000 C 
ATOM     18  H   UNL     1      -6.446  14.141  22.623  0.00  0.00    +0.000 HD
ENDBRANCH   6   9
BRANCH   1  23
ATOM     19  C   UNL     1      -1.581  11.106  18.009  0.00  0.00    +0.000 A 
ATOM     20  C   UNL     1      -0.804  10.061  18.535  0.00  0.00    +0.000 A 
ATOM     21  C   UNL     1       0.362  10.319  19.250  0.00  0.00    +0.000 A 
ATOM     22  C   UNL     1       0.757  11.630  19.486  0.00  0.00    +0.000 A 
ATOM     23  C   UNL     1       0.015  12.717  18.999  0.00  0.00    +0.000 A 
ATOM     24  C   UNL     1      -1.115  12.428  18.208  0.00  0.00    +0.000 A 
BRANCH  19  26
ATOM     25  C   UNL     1      -2.899  10.996  15.788  0.00  0.00    +0.000 C 
ATOM     26  C   UNL     1      -2.938  10.850  17.328  0.00  0.00    +0.000 C 
ATOM     27  C   UNL     1      -3.996  11.835  17.859  0.00  0.00    +0.000 C 
ATOM     28  C   UNL     1      -3.392   9.401  17.622  0.00  0.00    +0.000 C 
ENDBRANCH  19  26
ENDBRANCH   1  23
TORSDOF 3
ENDMDL
MODEL 9
REMARK VINA RESULT:      -7.1      3.303      5.963
REMARK  Name = 
REMARK  6 active torsions:
REMARK  status: ('A' for Active; 'I' for Inactive)
REMARK    1  A    between atoms: C_1  and  C_2
REMARK    2  A    between atoms: C_2  and  C_3
REMARK    3  A    between atoms: C_2  and  C_4
REMARK    4  A    between atoms: C_2  and  C_5
REMARK    5  A    between atoms: C_9  and  C_10
REMARK    6  A    between atoms: C_15  and  C_17
REMARK                            x       y       z     vdW  Elec       q    Type
REMARK                         _______ _______ _______ _____ _____    ______ ____
ROOT
ATOM      1  C   UNL     1       0.305  10.683  19.216  0.00  0.00    +0.000 C 
ATOM      2  C   UNL     1       0.214  12.025  18.490  0.00  0.00    +0.000 C 
ATOM      3  C   UNL     1       1.544  11.447  18.845  0.00  0.00    +0.000 C 
ATOM      4  C   UNL     1       2.304  10.657  17.817  0.00  0.00    +0.000 C 
ATOM      5  N   UNL     1       1.774   9.316  18.000  0.00  0.00    +0.000 N 
ATOM      6  C   UNL     1       2.638   8.233  18.001  0.00  0.00    +0.000 C 
ATOM      7  O   UNL     1       3.798   8.361  17.584  0.00  0.00    +0.000 OA
ATOM      8  C   UNL     1       0.401   9.353  18.474  0.00  0.00    +0.000 C 
ENDROOT
BRANCH   6   9
ATOM      9  C   UNL     1       2.163   6.905  18.625  0.00  0.00    +0.000 C 
ATOM     10  C   UNL     1       1.945   5.617  17.782  0.00  0.00    +0.000 C 
ATOM     11  C   UNL     1       2.422   4.826  19.035  0.00  0.00    +0.000 C 
ATOM     12  C   UNL     1       1.407   4.361  20.066  0.00  0.00    +0.000 C 
ATOM     13  O   UNL     1       1.396   2.924  19.992  0.00  0.00    +0.000 OA
ATOM     14  C   UNL     1       2.488   2.510  19.278  0.00  0.00    +0.000 C 
ATOM     15  O   UNL     1       2.822   1.347  19.129  0.00  0.00    +0.000 OA
ATOM     16  N   UNL     1       3.121   3.594  18.754  0.00  0.00    +0.000 N 
ATOM     17  C   UNL     1       3.258   6.071  19.379  0.00  0.00    +0.000 C 
ATOM     18  H   UNL     1       3.948   3.445  18.191  0.00  0.00    +0.000 HD
ENDBRANCH   6   9
BRANCH   1  23
ATOM     19  C   UNL     1      -1.608  11.696  22.400  0.00  0.00    +0.000 A 
ATOM     20  C   UNL     1      -1.165  10.681  23.263  0.00  0.00    +0.000 A 
ATOM     21  C   UNL     1      -0.374   9.634  22.799  0.00  0.00    +0.000 A 
ATOM     22  C   UNL     1       0.022   9.600  21.468  0.00  0.00    +0.000 A 
ATOM     23  C   UNL     1      -0.376  10.594  20.560  0.00  0.00    +0.000 A 
ATOM     24  C   UNL     1      -1.244  11.596  21.035  0.00  0.00    +0.000 A 
BRANCH  19  26
ATOM     25  C   UNL     1      -1.486  13.936  23.684  0.00  0.00    +0.000 C 
ATOM     26  C   UNL     1      -2.374  12.928  22.916  0.00  0.00    +0.000 C 
ATOM     27  C   UNL     1      -3.508  12.495  23.864  0.00  0.00    +0.000 C 
ATOM     28  C   UNL     1      -2.975  13.697  21.715  0.00  0.00    +0.000 C 
ENDBRANCH  19  26
ENDBRANCH   1  23
TORSDOF 3
ENDMDL
