MODEL 1
REMARK VINA RESULT:      -7.4      0.000      0.000
REMARK  Name = 
REMARK  15 active torsions:
REMARK  status: ('A' for Active; 'I' for Inactive)
REMARK    1  A    between atoms: C_1  and  C_2
REMARK    2  A    between atoms: C_4  and  N_5
REMARK    3  A    between atoms: C_9  and  C_10
REMARK    4  A    between atoms: C_11  and  O_12
REMARK    5  A    between atoms: O_12  and  C_13
REMARK    6  A    between atoms: C_13  and  C_14
REMARK    7  A    between atoms: C_14  and  C_15
REMARK    8  A    between atoms: C_15  and  C_16
REMARK    9  A    between atoms: C_16  and  C_17
REMARK   10  A    between atoms: C_17  and  C_18
REMARK   11  A    between atoms: C_18  and  C_19
REMARK   12  A    between atoms: C_19  and  C_20
REMARK   13  A    between atoms: C_20  and  C_21
REMARK   14  A    between atoms: C_21  and  C_22
REMARK   15  A    between atoms: C_22  and  N_23
REMARK                            x       y       z     vdW  Elec       q    Type
REMARK                         _______ _______ _______ _____ _____    ______ ____
ROOT
ATOM      1  C   UNL     1       2.798   6.435  20.041  0.00  0.00    +0.000 C 
ENDROOT
BRANCH   1   2
ATOM      2  C   UNL     1       2.188   6.602  18.668  0.00  0.00    +0.000 C 
BRANCH   2   3
ATOM      3  C   UNL     1       2.705   7.846  17.952  0.00  0.00    +0.000 C 
BRANCH   3   4
ATOM      4  C   UNL     1       1.605   8.913  17.867  0.00  0.00    +0.000 C 
BRANCH   4   5
ATOM      5  C   UNL     1       1.370   9.504  19.256  0.00  0.00    +0.000 C 
BRANCH   5   6
ATOM      6  O   UNL     1       0.004   9.610  19.612  0.00  0.00    +0.000 OA
BRANCH   6  14
ATOM      7  C   UNL     1      -0.423  12.607  18.698  0.00  0.00    +0.000 C 
ATOM      8  C   UNL     1      -0.526  12.016  20.080  0.00  0.00    +0.000 A 
ATOM      9  C   UNL     1      -0.910  12.941  21.073  0.00  0.00    +0.000 A 
ATOM     10  C   UNL     1      -1.078  12.554  22.400  0.00  0.00    +0.000 A 
ATOM     11  C   UNL     1      -0.871  11.228  22.774  0.00  0.00    +0.000 A 
ATOM     12  C   UNL     1      -0.493  10.276  21.808  0.00  0.00    +0.000 A 
ATOM     13  C   UNL     1      -0.270   8.853  22.258  0.00  0.00    +0.000 C 
ATOM     14  C   UNL     1      -0.312  10.664  20.455  0.00  0.00    +0.000 A 
BRANCH  10  15
ATOM     15  N   UNL     1      -1.478  13.561  23.387  0.00  0.00    +0.000 N 
ATOM     16  O   UNL     1      -2.625  13.493  23.852  0.00  0.00    +0.000 OA
ATOM     17  O   UNL     1      -0.646  14.427  23.700  0.00  0.00    +0.000 OA
ENDBRANCH  10  15
ENDBRANCH   6  14
ENDBRANCH   5   6
ENDBRANCH   4   5
ENDBRANCH   3   4
ENDBRANCH   2   3
ENDBRANCH   1   2
BRANCH   1  18
ATOM     18  C   UNL     1       2.386   5.078  20.595  0.00  0.00    +0.000 C 
BRANCH  18  19
ATOM     19  C   UNL     1       0.916   4.825  20.329  0.00  0.00    +0.000 C 
BRANCH  19  20
ATOM     20  C   UNL     1       0.720   3.472  19.655  0.00  0.00    +0.000 C 
BRANCH  20  21
ATOM     21  C   UNL     1       1.785   2.504  20.160  0.00  0.00    +0.000 C 
BRANCH  21  22
ATOM     22  C   UNL     1       2.559   1.848  19.020  0.00  0.00    +0.000 C 
BRANCH  22  23
ATOM     23  N   UNL     1       3.516   2.769  18.430  0.00  0.00    +0.000 N 
ATOM     24  C   UNL     1       3.324   3.444  17.253  0.00  0.00    +0.000 C 
ATOM     25  O   UNL     1       2.396   3.404  16.469  0.00  0.00    +0.000 OA
ATOM     26  C   UNL     1       4.501   4.287  17.069  0.00  0.00    +0.000 A 
ATOM     27  C   UNL     1       4.796   5.182  16.058  0.00  0.00    +0.000 A 
ATOM     28  C   UNL     1       6.008   5.871  16.152  0.00  0.00    +0.000 A 
ATOM     29  C   UNL     1       6.890   5.645  17.236  0.00  0.00    +0.000 A 
ATOM     30  C   UNL     1       6.560   4.737  18.246  0.00  0.00    +0.000 A 
ATOM     31  C   UNL     1       5.353   4.073  18.135  0.00  0.00    +0.000 A 
ATOM     32  C   UNL     1       4.711   3.098  19.019  0.00  0.00    +0.000 C 
ATOM     33  O   UNL     1       5.191   2.698  20.055  0.00  0.00    +0.000 OA
ENDBRANCH  22  23
ENDBRANCH  21  22
ENDBRANCH  20  21
ENDBRANCH  19  20
ENDBRANCH  18  19
ENDBRANCH   1  18
TORSDOF 13
ENDMDL
MODEL 2
REMARK VINA RESULT:      -7.3      2.302      3.711
REMARK  Name = 
REMARK  15 active torsions:
REMARK  status: ('A' for Active; 'I' for Inactive)
REMARK    1  A    between atoms: C_1  and  C_2
REMARK    2  A    between atoms: C_4  and  N_5
REMARK    3  A    between atoms: C_9  and  C_10
REMARK    4  A    between atoms: C_11  and  O_12
REMARK    5  A    between atoms: O_12  and  C_13
REMARK    6  A    between atoms: C_13  and  C_14
REMARK    7  A    between atoms: C_14  and  C_15
REMARK    8  A    between atoms: C_15  and  C_16
REMARK    9  A    between atoms: C_16  and  C_17
REMARK   10  A    between atoms: C_17  and  C_18
REMARK   11  A    between atoms: C_18  and  C_19
REMARK   12  A    between atoms: C_19  and  C_20
REMARK   13  A    between atoms: C_20  and  C_21
REMARK   14  A    between atoms: C_21  and  C_22
REMARK   15  A    between atoms: C_22  and  N_23
REMARK                            x       y       z     vdW  Elec       q    Type
REMARK                         _______ _______ _______ _____ _____    ______ ____
ROOT
ATOM      1  C   UNL     1       1.490   2.354  20.271  0.00  0.00    +0.000 C 
ENDROOT
BRANCH   1   2
ATOM      2  C   UNL     1       1.587   3.244  21.489  0.00  0.00    +0.000 C 
BRANCH   2   3
ATOM      3  C   UNL     1       2.315   4.551  21.194  0.00  0.00    +0.000 C 
BRANCH   3   4
ATOM      4  C   UNL     1       1.325   5.620  20.708  0.00  0.00    +0.000 C 
BRANCH   4   5
ATOM      5  C   UNL     1       2.097   6.739  20.012  0.00  0.00    +0.000 C 
BRANCH   5   6
ATOM      6  O   UNL     1       1.988   7.997  20.654  0.00  0.00    +0.000 OA
BRANCH   6  14
ATOM      7  C   UNL     1       2.203   8.965  17.651  0.00  0.00    +0.000 C 
ATOM      8  C   UNL     1       1.192   9.350  18.699  0.00  0.00    +0.000 A 
ATOM      9  C   UNL     1       0.190  10.229  18.235  0.00  0.00    +0.000 A 
ATOM     10  C   UNL     1      -0.837  10.663  19.068  0.00  0.00    +0.000 A 
ATOM     11  C   UNL     1      -0.898  10.227  20.390  0.00  0.00    +0.000 A 
ATOM     12  C   UNL     1       0.081   9.345  20.886  0.00  0.00    +0.000 A 
ATOM     13  C   UNL     1      -0.019   8.907  22.325  0.00  0.00    +0.000 C 
ATOM     14  C   UNL     1       1.136   8.905  20.045  0.00  0.00    +0.000 A 
BRANCH  10  15
ATOM     15  N   UNL     1      -1.849  11.576  18.529  0.00  0.00    +0.000 N 
ATOM     16  O   UNL     1      -1.805  11.840  17.318  0.00  0.00    +0.000 OA
ATOM     17  O   UNL     1      -2.691  12.038  19.315  0.00  0.00    +0.000 OA
ENDBRANCH  10  15
ENDBRANCH   6  14
ENDBRANCH   5   6
ENDBRANCH   4   5
ENDBRANCH   3   4
ENDBRANCH   2   3
ENDBRANCH   1   2
BRANCH   1  18
ATOM     18  C   UNL     1       2.822   2.387  19.535  0.00  0.00    +0.000 C 
BRANCH  18  19
ATOM     19  C   UNL     1       2.616   2.117  18.059  0.00  0.00    +0.000 C 
BRANCH  19  20
ATOM     20  C   UNL     1       1.981   3.324  17.379  0.00  0.00    +0.000 C 
BRANCH  20  21
ATOM     21  C   UNL     1       2.948   4.501  17.445  0.00  0.00    +0.000 C 
BRANCH  21  22
ATOM     22  C   UNL     1       4.269   4.205  16.740  0.00  0.00    +0.000 C 
BRANCH  22  23
ATOM     23  N   UNL     1       5.301   5.149  17.133  0.00  0.00    +0.000 N 
ATOM     24  C   UNL     1       5.489   6.381  16.561  0.00  0.00    +0.000 C 
ATOM     25  O   UNL     1       4.904   6.914  15.639  0.00  0.00    +0.000 OA
ATOM     26  C   UNL     1       6.590   7.006  17.288  0.00  0.00    +0.000 A 
ATOM     27  C   UNL     1       7.156   8.256  17.128  0.00  0.00    +0.000 A 
ATOM     28  C   UNL     1       8.201   8.596  17.990  0.00  0.00    +0.000 A 
ATOM     29  C   UNL     1       8.657   7.685  18.974  0.00  0.00    +0.000 A 
ATOM     30  C   UNL     1       8.060   6.430  19.114  0.00  0.00    +0.000 A 
ATOM     31  C   UNL     1       7.022   6.119  18.255  0.00  0.00    +0.000 A 
ATOM     32  C   UNL     1       6.184   4.923  18.159  0.00  0.00    +0.000 C 
ATOM     33  O   UNL     1       6.294   3.953  18.875  0.00  0.00    +0.000 OA
ENDBRANCH  22  23
ENDBRANCH  21  22
ENDBRANCH  20  21
ENDBRANCH  19  20
ENDBRANCH  18  19
ENDBRANCH   1  18
TORSDOF 13
ENDMDL
MODEL 3
REMARK VINA RESULT:      -7.2      0.583      1.692
REMARK  Name = 
REMARK  15 active torsions:
REMARK  status: ('A' for Active; 'I' for Inactive)
REMARK    1  A    between atoms: C_1  and  C_2
REMARK    2  A    between atoms: C_4  and  N_5
REMARK    3  A    between atoms: C_9  and  C_10
REMARK    4  A    between atoms: C_11  and  O_12
REMARK    5  A    between atoms: O_12  and  C_13
REMARK    6  A    between atoms: C_13  and  C_14
REMARK    7  A    between atoms: C_14  and  C_15
REMARK    8  A    between atoms: C_15  and  C_16
REMARK    9  A    between atoms: C_16  and  C_17
REMARK   10  A    between atoms: C_17  and  C_18
REMARK   11  A    between atoms: C_18  and  C_19
REMARK   12  A    between atoms: C_19  and  C_20
REMARK   13  A    between atoms: C_20  and  C_21
REMARK   14  A    between atoms: C_21  and  C_22
REMARK   15  A    between atoms: C_22  and  N_23
REMARK                            x       y       z     vdW  Elec       q    Type
REMARK                         _______ _______ _______ _____ _____    ______ ____
ROOT
ATOM      1  C   UNL     1       2.817   6.157  20.256  0.00  0.00    +0.000 C 
ENDROOT
BRANCH   1   2
ATOM      2  C   UNL     1       1.864   6.634  19.183  0.00  0.00    +0.000 C 
BRANCH   2   3
ATOM      3  C   UNL     1       2.511   7.645  18.242  0.00  0.00    +0.000 C 
BRANCH   3   4
ATOM      4  C   UNL     1       1.770   8.988  18.304  0.00  0.00    +0.000 C 
BRANCH   4   5
ATOM      5  C   UNL     1       1.141   9.150  19.686  0.00  0.00    +0.000 C 
BRANCH   5   6
ATOM      6  O   UNL     1      -0.211   9.574  19.656  0.00  0.00    +0.000 OA
BRANCH   6  14
ATOM      7  C   UNL     1      -0.227   9.246  22.802  0.00  0.00    +0.000 C 
ATOM      8  C   UNL     1      -0.547  10.465  21.976  0.00  0.00    +0.000 A 
ATOM      9  C   UNL     1      -0.848  11.612  22.738  0.00  0.00    +0.000 A 
ATOM     10  C   UNL     1      -1.140  12.831  22.132  0.00  0.00    +0.000 A 
ATOM     11  C   UNL     1      -1.136  12.941  20.743  0.00  0.00    +0.000 A 
ATOM     12  C   UNL     1      -0.834  11.817  19.950  0.00  0.00    +0.000 A 
ATOM     13  C   UNL     1      -0.850  11.979  18.451  0.00  0.00    +0.000 C 
ATOM     14  C   UNL     1      -0.543  10.570  20.561  0.00  0.00    +0.000 A 
BRANCH  10  15
ATOM     15  N   UNL     1      -1.445  13.988  22.978  0.00  0.00    +0.000 N 
ATOM     16  O   UNL     1      -0.509  14.522  23.591  0.00  0.00    +0.000 OA
ATOM     17  O   UNL     1      -2.625  14.368  23.036  0.00  0.00    +0.000 OA
ENDBRANCH  10  15
ENDBRANCH   6  14
ENDBRANCH   5   6
ENDBRANCH   4   5
ENDBRANCH   3   4
ENDBRANCH   2   3
ENDBRANCH   1   2
BRANCH   1  18
ATOM     18  C   UNL     1       2.258   4.882  20.872  0.00  0.00    +0.000 C 
BRANCH  18  19
ATOM     19  C   UNL     1       1.087   4.373  20.056  0.00  0.00    +0.000 C 
BRANCH  19  20
ATOM     20  C   UNL     1       0.931   2.866  20.229  0.00  0.00    +0.000 C 
BRANCH  20  21
ATOM     21  C   UNL     1       1.099   2.188  18.874  0.00  0.00    +0.000 C 
BRANCH  21  22
ATOM     22  C   UNL     1       2.513   1.656  18.664  0.00  0.00    +0.000 C 
BRANCH  22  23
ATOM     23  N   UNL     1       3.438   2.726  18.331  0.00  0.00    +0.000 N 
ATOM     24  C   UNL     1       3.313   3.554  17.246  0.00  0.00    +0.000 C 
ATOM     25  O   UNL     1       2.485   3.562  16.357  0.00  0.00    +0.000 OA
ATOM     26  C   UNL     1       4.419   4.504  17.328  0.00  0.00    +0.000 A 
ATOM     27  C   UNL     1       4.737   5.561  16.497  0.00  0.00    +0.000 A 
ATOM     28  C   UNL     1       5.861   6.319  16.835  0.00  0.00    +0.000 A 
ATOM     29  C   UNL     1       6.636   6.001  17.976  0.00  0.00    +0.000 A 
ATOM     30  C   UNL     1       6.285   4.928  18.799  0.00  0.00    +0.000 A 
ATOM     31  C   UNL     1       5.165   4.197  18.449  0.00  0.00    +0.000 A 
ATOM     32  C   UNL     1       4.525   3.054  19.101  0.00  0.00    +0.000 C 
ATOM     33  O   UNL     1       4.925   2.539  20.122  0.00  0.00    +0.000 OA
ENDBRANCH  22  23
ENDBRANCH  21  22
ENDBRANCH  20  21
ENDBRANCH  19  20
ENDBRANCH  18  19
ENDBRANCH   1  18
TORSDOF 13
ENDMDL
MODEL 4
REMARK VINA RESULT:      -7.2      1.205      3.312
REMARK  Name = 
REMARK  15 active torsions:
REMARK  status: ('A' for Active; 'I' for Inactive)
REMARK    1  A    between atoms: C_1  and  C_2
REMARK    2  A    between atoms: C_4  and  N_5
REMARK    3  A    between atoms: C_9  and  C_10
REMARK    4  A    between atoms: C_11  and  O_12
REMARK    5  A    between atoms: O_12  and  C_13
REMARK    6  A    between atoms: C_13  and  C_14
REMARK    7  A    between atoms: C_14  and  C_15
REMARK    8  A    between atoms: C_15  and  C_16
REMARK    9  A    between atoms: C_16  and  C_17
REMARK   10  A    between atoms: C_17  and  C_18
REMARK   11  A    between atoms: C_18  and  C_19
REMARK   12  A    between atoms: C_19  and  C_20
REMARK   13  A    between atoms: C_20  and  C_21
REMARK   14  A    between atoms: C_21  and  C_22
REMARK   15  A    between atoms: C_22  and  N_23
REMARK                            x       y       z     vdW  Elec       q    Type
REMARK                         _______ _______ _______ _____ _____    ______ ____
ROOT
ATOM      1  C   UNL     1       3.746   6.838  18.596  0.00  0.00    +0.000 C 
ENDROOT
BRANCH   1   2
ATOM      2  C   UNL     1       2.310   7.302  18.678  0.00  0.00    +0.000 C 
BRANCH   2   3
ATOM      3  C   UNL     1       1.958   8.295  17.575  0.00  0.00    +0.000 C 
BRANCH   3   4
ATOM      4  C   UNL     1       1.738   9.696  18.163  0.00  0.00    +0.000 C 
BRANCH   4   5
ATOM      5  C   UNL     1       0.716   9.612  19.294  0.00  0.00    +0.000 C 
BRANCH   5   6
ATOM      6  O   UNL     1       1.241   9.932  20.569  0.00  0.00    +0.000 OA
BRANCH   6  14
ATOM      7  C   UNL     1       1.803  12.952  19.815  0.00  0.00    +0.000 C 
ATOM      8  C   UNL     1       0.883  12.396  20.870  0.00  0.00    +0.000 A 
ATOM      9  C   UNL     1       0.153  13.378  21.571  0.00  0.00    +0.000 A 
ATOM     10  C   UNL     1      -0.762  13.034  22.562  0.00  0.00    +0.000 A 
ATOM     11  C   UNL     1      -0.979  11.695  22.880  0.00  0.00    +0.000 A 
ATOM     12  C   UNL     1      -0.272  10.687  22.197  0.00  0.00    +0.000 A 
ATOM     13  C   UNL     1      -0.532   9.251  22.579  0.00  0.00    +0.000 C 
ATOM     14  C   UNL     1       0.668  11.030  21.191  0.00  0.00    +0.000 A 
BRANCH  10  15
ATOM     15  N   UNL     1      -1.490  14.100  23.256  0.00  0.00    +0.000 N 
ATOM     16  O   UNL     1      -1.042  14.497  24.342  0.00  0.00    +0.000 OA
ATOM     17  O   UNL     1      -2.517  14.545  22.718  0.00  0.00    +0.000 OA
ENDBRANCH  10  15
ENDBRANCH   6  14
ENDBRANCH   5   6
ENDBRANCH   4   5
ENDBRANCH   3   4
ENDBRANCH   2   3
ENDBRANCH   1   2
BRANCH   1  18
ATOM     18  C   UNL     1       4.240   7.032  17.169  0.00  0.00    +0.000 C 
BRANCH  18  19
ATOM     19  C   UNL     1       5.754   7.080  17.137  0.00  0.00    +0.000 C 
BRANCH  19  20
ATOM     20  C   UNL     1       6.318   5.787  16.561  0.00  0.00    +0.000 C 
BRANCH  20  21
ATOM     21  C   UNL     1       5.186   4.991  15.919  0.00  0.00    +0.000 C 
BRANCH  21  22
ATOM     22  C   UNL     1       5.095   3.569  16.464  0.00  0.00    +0.000 C 
BRANCH  22  23
ATOM     23  N   UNL     1       4.169   3.488  17.581  0.00  0.00    +0.000 N 
ATOM     24  C   UNL     1       2.811   3.347  17.458  0.00  0.00    +0.000 C 
ATOM     25  O   UNL     1       2.116   3.297  16.463  0.00  0.00    +0.000 OA
ATOM     26  C   UNL     1       2.285   3.258  18.817  0.00  0.00    +0.000 A 
ATOM     27  C   UNL     1       0.985   3.083  19.250  0.00  0.00    +0.000 A 
ATOM     28  C   UNL     1       0.777   3.019  20.630  0.00  0.00    +0.000 A 
ATOM     29  C   UNL     1       1.860   3.138  21.534  0.00  0.00    +0.000 A 
ATOM     30  C   UNL     1       3.165   3.309  21.064  0.00  0.00    +0.000 A 
ATOM     31  C   UNL     1       3.347   3.362  19.695  0.00  0.00    +0.000 A 
ATOM     32  C   UNL     1       4.564   3.502  18.895  0.00  0.00    +0.000 C 
ATOM     33  O   UNL     1       5.677   3.607  19.359  0.00  0.00    +0.000 OA
ENDBRANCH  22  23
ENDBRANCH  21  22
ENDBRANCH  20  21
ENDBRANCH  19  20
ENDBRANCH  18  19
ENDBRANCH   1  18
TORSDOF 13
ENDMDL
MODEL 5
REMARK VINA RESULT:      -7.1      2.959      4.774
REMARK  Name = 
REMARK  15 active torsions:
REMARK  status: ('A' for Active; 'I' for Inactive)
REMARK    1  A    between atoms: C_1  and  C_2
REMARK    2  A    between atoms: C_4  and  N_5
REMARK    3  A    between atoms: C_9  and  C_10
REMARK    4  A    between atoms: C_11  and  O_12
REMARK    5  A    between atoms: O_12  and  C_13
REMARK    6  A    between atoms: C_13  and  C_14
REMARK    7  A    between atoms: C_14  and  C_15
REMARK    8  A    between atoms: C_15  and  C_16
REMARK    9  A    between atoms: C_16  and  C_17
REMARK   10  A    between atoms: C_17  and  C_18
REMARK   11  A    between atoms: C_18  and  C_19
REMARK   12  A    between atoms: C_19  and  C_20
REMARK   13  A    between atoms: C_20  and  C_21
REMARK   14  A    between atoms: C_21  and  C_22
REMARK   15  A    between atoms: C_22  and  N_23
REMARK                            x       y       z     vdW  Elec       q    Type
REMARK                         _______ _______ _______ _____ _____    ______ ____
ROOT
ATOM      1  C   UNL     1       2.518   7.121  17.772  0.00  0.00    +0.000 C 
ENDROOT
BRANCH   1   2
ATOM      2  C   UNL     1       2.024   8.246  18.653  0.00  0.00    +0.000 C 
BRANCH   2   3
ATOM      3  C   UNL     1       1.814   9.542  17.875  0.00  0.00    +0.000 C 
BRANCH   3   4
ATOM      4  C   UNL     1       1.313  10.653  18.808  0.00  0.00    +0.000 C 
BRANCH   4   5
ATOM      5  C   UNL     1      -0.209  10.573  18.912  0.00  0.00    +0.000 C 
BRANCH   5   6
ATOM      6  O   UNL     1      -0.887  11.631  18.258  0.00  0.00    +0.000 OA
BRANCH   6  14
ATOM      7  C   UNL     1      -2.567   9.914  16.200  0.00  0.00    +0.000 C 
ATOM      8  C   UNL     1      -3.055  10.762  17.346  0.00  0.00    +0.000 A 
ATOM      9  C   UNL     1      -4.453  10.730  17.529  0.00  0.00    +0.000 A 
ATOM     10  C   UNL     1      -5.068  11.437  18.559  0.00  0.00    +0.000 A 
ATOM     11  C   UNL     1      -4.301  12.194  19.443  0.00  0.00    +0.000 A 
ATOM     12  C   UNL     1      -2.902  12.244  19.295  0.00  0.00    +0.000 A 
ATOM     13  C   UNL     1      -2.112  13.083  20.268  0.00  0.00    +0.000 C 
ATOM     14  C   UNL     1      -2.269  11.532  18.242  0.00  0.00    +0.000 A 
BRANCH  10  15
ATOM     15  N   UNL     1      -6.525  11.366  18.697  0.00  0.00    +0.000 N 
ATOM     16  O   UNL     1      -7.058  10.248  18.644  0.00  0.00    +0.000 OA
ATOM     17  O   UNL     1      -7.144  12.429  18.857  0.00  0.00    +0.000 OA
ENDBRANCH  10  15
ENDBRANCH   6  14
ENDBRANCH   5   6
ENDBRANCH   4   5
ENDBRANCH   3   4
ENDBRANCH   2   3
ENDBRANCH   1   2
BRANCH   1  18
ATOM     18  C   UNL     1       4.039   7.159  17.741  0.00  0.00    +0.000 C 
BRANCH  18  19
ATOM     19  C   UNL     1       4.541   7.007  16.320  0.00  0.00    +0.000 C 
BRANCH  19  20
ATOM     20  C   UNL     1       5.733   6.058  16.273  0.00  0.00    +0.000 C 
BRANCH  20  21
ATOM     21  C   UNL     1       5.332   4.789  15.528  0.00  0.00    +0.000 C 
BRANCH  21  22
ATOM     22  C   UNL     1       5.416   3.547  16.411  0.00  0.00    +0.000 C 
BRANCH  22  23
ATOM     23  N   UNL     1       4.420   3.581  17.468  0.00  0.00    +0.000 N 
ATOM     24  C   UNL     1       4.691   3.857  18.784  0.00  0.00    +0.000 C 
ATOM     25  O   UNL     1       5.750   4.083  19.335  0.00  0.00    +0.000 OA
ATOM     26  C   UNL     1       3.406   3.835  19.478  0.00  0.00    +0.000 A 
ATOM     27  C   UNL     1       3.119   4.075  20.808  0.00  0.00    +0.000 A 
ATOM     28  C   UNL     1       1.777   3.998  21.192  0.00  0.00    +0.000 A 
ATOM     29  C   UNL     1       0.769   3.679  20.250  0.00  0.00    +0.000 A 
ATOM     30  C   UNL     1       1.093   3.448  18.911  0.00  0.00    +0.000 A 
ATOM     31  C   UNL     1       2.425   3.536  18.553  0.00  0.00    +0.000 A 
ATOM     32  C   UNL     1       3.080   3.381  17.254  0.00  0.00    +0.000 C 
ATOM     33  O   UNL     1       2.499   3.125  16.223  0.00  0.00    +0.000 OA
ENDBRANCH  22  23
ENDBRANCH  21  22
ENDBRANCH  20  21
ENDBRANCH  19  20
ENDBRANCH  18  19
ENDBRANCH   1  18
TORSDOF 13
ENDMDL
MODEL 6
REMARK VINA RESULT:      -7.1      3.081      4.924
REMARK  Name = 
REMARK  15 active torsions:
REMARK  status: ('A' for Active; 'I' for Inactive)
REMARK    1  A    between atoms: C_1  and  C_2
REMARK    2  A    between atoms: C_4  and  N_5
REMARK    3  A    between atoms: C_9  and  C_10
REMARK    4  A    between atoms: C_11  and  O_12
REMARK    5  A    between atoms: O_12  and  C_13
REMARK    6  A    between atoms: C_13  and  C_14
REMARK    7  A    between atoms: C_14  and  C_15
REMARK    8  A    between atoms: C_15  and  C_16
REMARK    9  A    between atoms: C_16  and  C_17
REMARK   10  A    between atoms: C_17  and  C_18
REMARK   11  A    between atoms: C_18  and  C_19
REMARK   12  A    between atoms: C_19  and  C_20
REMARK   13  A    between atoms: C_20  and  C_21
REMARK   14  A    between atoms: C_21  and  C_22
REMARK   15  A    between atoms: C_22  and  N_23
REMARK                            x       y       z     vdW  Elec       q    Type
REMARK                         _______ _______ _______ _____ _____    ______ ____
ROOT
ATOM      1  C   UNL     1       1.992   7.927  18.862  0.00  0.00    +0.000 C 
ENDROOT
BRANCH   1   2
ATOM      2  C   UNL     1       1.645   8.982  17.836  0.00  0.00    +0.000 C 
BRANCH   2   3
ATOM      3  C   UNL     1       1.235  10.303  18.479  0.00  0.00    +0.000 C 
BRANCH   3   4
ATOM      4  C   UNL     1      -0.182  10.201  19.059  0.00  0.00    +0.000 C 
BRANCH   4   5
ATOM      5  C   UNL     1      -1.190  10.134  17.914  0.00  0.00    +0.000 C 
BRANCH   5   6
ATOM      6  O   UNL     1      -1.750  11.388  17.567  0.00  0.00    +0.000 OA
BRANCH   6  14
ATOM      7  C   UNL     1      -2.280  12.625  20.429  0.00  0.00    +0.000 C 
ATOM      8  C   UNL     1      -3.277  12.218  19.375  0.00  0.00    +0.000 A 
ATOM      9  C   UNL     1      -4.619  12.477  19.722  0.00  0.00    +0.000 A 
ATOM     10  C   UNL     1      -5.664  12.186  18.850  0.00  0.00    +0.000 A 
ATOM     11  C   UNL     1      -5.399  11.631  17.600  0.00  0.00    +0.000 A 
ATOM     12  C   UNL     1      -4.071  11.364  17.217  0.00  0.00    +0.000 A 
ATOM     13  C   UNL     1      -3.831  10.754  15.859  0.00  0.00    +0.000 C 
ATOM     14  C   UNL     1      -3.001  11.650  18.104  0.00  0.00    +0.000 A 
BRANCH  10  15
ATOM     15  N   UNL     1      -7.038  12.478  19.269  0.00  0.00    +0.000 N 
ATOM     16  O   UNL     1      -7.737  11.534  19.663  0.00  0.00    +0.000 OA
ATOM     17  O   UNL     1      -7.426  13.655  19.202  0.00  0.00    +0.000 OA
ENDBRANCH  10  15
ENDBRANCH   6  14
ENDBRANCH   5   6
ENDBRANCH   4   5
ENDBRANCH   3   4
ENDBRANCH   2   3
ENDBRANCH   1   2
BRANCH   1  18
ATOM     18  C   UNL     1       2.768   6.813  18.172  0.00  0.00    +0.000 C 
BRANCH  18  19
ATOM     19  C   UNL     1       3.891   7.393  17.337  0.00  0.00    +0.000 C 
BRANCH  19  20
ATOM     20  C   UNL     1       5.083   6.443  17.313  0.00  0.00    +0.000 C 
BRANCH  20  21
ATOM     21  C   UNL     1       4.913   5.457  16.162  0.00  0.00    +0.000 C 
BRANCH  21  22
ATOM     22  C   UNL     1       5.112   4.011  16.604  0.00  0.00    +0.000 C 
BRANCH  22  23
ATOM     23  N   UNL     1       4.197   3.654  17.675  0.00  0.00    +0.000 N 
ATOM     24  C   UNL     1       4.547   3.550  18.997  0.00  0.00    +0.000 C 
ATOM     25  O   UNL     1       5.629   3.687  19.533  0.00  0.00    +0.000 OA
ATOM     26  C   UNL     1       3.322   3.225  19.720  0.00  0.00    +0.000 A 
ATOM     27  C   UNL     1       3.119   3.039  21.074  0.00  0.00    +0.000 A 
ATOM     28  C   UNL     1       1.817   2.747  21.488  0.00  0.00    +0.000 A 
ATOM     29  C   UNL     1       0.763   2.641  20.549  0.00  0.00    +0.000 A 
ATOM     30  C   UNL     1       0.999   2.840  19.187  0.00  0.00    +0.000 A 
ATOM     31  C   UNL     1       2.294   3.134  18.801  0.00  0.00    +0.000 A 
ATOM     32  C   UNL     1       2.859   3.420  17.482  0.00  0.00    +0.000 C 
ATOM     33  O   UNL     1       2.219   3.433  16.454  0.00  0.00    +0.000 OA
ENDBRANCH  22  23
ENDBRANCH  21  22
ENDBRANCH  20  21
ENDBRANCH  19  20
ENDBRANCH  18  19
ENDBRANCH   1  18
TORSDOF 13
ENDMDL
MODEL 7
REMARK VINA RESULT:      -7.0      1.188      1.969
REMARK  Name = 
REMARK  15 active torsions:
REMARK  status: ('A' for Active; 'I' for Inactive)
REMARK    1  A    between atoms: C_1  and  C_2
REMARK    2  A    between atoms: C_4  and  N_5
REMARK    3  A    between atoms: C_9  and  C_10
REMARK    4  A    between atoms: C_11  and  O_12
REMARK    5  A    between atoms: O_12  and  C_13
REMARK    6  A    between atoms: C_13  and  C_14
REMARK    7  A    between atoms: C_14  and  C_15
REMARK    8  A    between atoms: C_15  and  C_16
REMARK    9  A    between atoms: C_16  and  C_17
REMARK   10  A    between atoms: C_17  and  C_18
REMARK   11  A    between atoms: C_18  and  C_19
REMARK   12  A    between atoms: C_19  and  C_20
REMARK   13  A    between atoms: C_20  and  C_21
REMARK   14  A    between atoms: C_21  and  C_22
REMARK   15  A    between atoms: C_22  and  N_23
REMARK                            x       y       z     vdW  Elec       q    Type
REMARK                         _______ _______ _______ _____ _____    ______ ____
ROOT
ATOM      1  C   UNL     1       2.776   6.345  19.017  0.00  0.00    +0.000 C 
ENDROOT
BRANCH   1   2
ATOM      2  C   UNL     1       2.121   7.695  19.201  0.00  0.00    +0.000 C 
BRANCH   2   3
ATOM      3  C   UNL     1       2.125   8.521  17.919  0.00  0.00    +0.000 C 
BRANCH   3   4
ATOM      4  C   UNL     1       1.451   9.880  18.154  0.00  0.00    +0.000 C 
BRANCH   4   5
ATOM      5  C   UNL     1       0.559   9.791  19.391  0.00  0.00    +0.000 C 
BRANCH   5   6
ATOM      6  O   UNL     1       0.959  10.641  20.450  0.00  0.00    +0.000 OA
BRANCH   6  14
ATOM      7  C   UNL     1      -0.645  13.172  19.436  0.00  0.00    +0.000 C 
ATOM      8  C   UNL     1      -0.824  12.386  20.709  0.00  0.00    +0.000 A 
ATOM      9  C   UNL     1      -1.888  12.836  21.517  0.00  0.00    +0.000 A 
ATOM     10  C   UNL     1      -2.208  12.205  22.716  0.00  0.00    +0.000 A 
ATOM     11  C   UNL     1      -1.475  11.099  23.142  0.00  0.00    +0.000 A 
ATOM     12  C   UNL     1      -0.409  10.618  22.357  0.00  0.00    +0.000 A 
ATOM     13  C   UNL     1       0.363   9.424  22.861  0.00  0.00    +0.000 C 
ATOM     14  C   UNL     1      -0.073  11.261  21.138  0.00  0.00    +0.000 A 
BRANCH  10  15
ATOM     15  N   UNL     1      -3.325  12.720  23.513  0.00  0.00    +0.000 N 
ATOM     16  O   UNL     1      -3.094  13.644  24.306  0.00  0.00    +0.000 OA
ATOM     17  O   UNL     1      -4.440  12.200  23.351  0.00  0.00    +0.000 OA
ENDBRANCH  10  15
ENDBRANCH   6  14
ENDBRANCH   5   6
ENDBRANCH   4   5
ENDBRANCH   3   4
ENDBRANCH   2   3
ENDBRANCH   1   2
BRANCH   1  18
ATOM     18  C   UNL     1       1.689   5.281  18.947  0.00  0.00    +0.000 C 
BRANCH  18  19
ATOM     19  C   UNL     1       1.321   4.813  20.339  0.00  0.00    +0.000 C 
BRANCH  19  20
ATOM     20  C   UNL     1       1.642   3.332  20.507  0.00  0.00    +0.000 C 
BRANCH  20  21
ATOM     21  C   UNL     1       3.048   3.188  21.079  0.00  0.00    +0.000 C 
BRANCH  21  22
ATOM     22  C   UNL     1       3.953   2.343  20.187  0.00  0.00    +0.000 C 
BRANCH  22  23
ATOM     23  N   UNL     1       4.448   3.110  19.057  0.00  0.00    +0.000 N 
ATOM     24  C   UNL     1       5.436   4.058  19.131  0.00  0.00    +0.000 C 
ATOM     25  O   UNL     1       6.055   4.470  20.092  0.00  0.00    +0.000 OA
ATOM     26  C   UNL     1       5.649   4.533  17.767  0.00  0.00    +0.000 A 
ATOM     27  C   UNL     1       6.549   5.466  17.289  0.00  0.00    +0.000 A 
ATOM     28  C   UNL     1       6.537   5.714  15.914  0.00  0.00    +0.000 A 
ATOM     29  C   UNL     1       5.631   5.038  15.061  0.00  0.00    +0.000 A 
ATOM     30  C   UNL     1       4.737   4.095  15.576  0.00  0.00    +0.000 A 
ATOM     31  C   UNL     1       4.772   3.862  16.937  0.00  0.00    +0.000 A 
ATOM     32  C   UNL     1       4.003   2.936  17.771  0.00  0.00    +0.000 C 
ATOM     33  O   UNL     1       3.151   2.187  17.349  0.00  0.00    +0.000 OA
ENDBRANCH  22  23
ENDBRANCH  21  22
ENDBRANCH  20  21
ENDBRANCH  19  20
ENDBRANCH  18  19
ENDBRANCH   1  18
TORSDOF 13
ENDMDL
MODEL 8
REMARK VINA RESULT:      -6.9      1.407      3.407
REMARK  Name = 
REMARK  15 active torsions:
REMARK  status: ('A' for Active; 'I' for Inactive)
REMARK    1  A    between atoms: C_1  and  C_2
REMARK    2  A    between atoms: C_4  and  N_5
REMARK    3  A    between atoms: C_9  and  C_10
REMARK    4  A    between atoms: C_11  and  O_12
REMARK    5  A    between atoms: O_12  and  C_13
REMARK    6  A    between atoms: C_13  and  C_14
REMARK    7  A    between atoms: C_14  and  C_15
REMARK    8  A    between atoms: C_15  and  C_16
REMARK    9  A    between atoms: C_16  and  C_17
REMARK   10  A    between atoms: C_17  and  C_18
REMARK   11  A    between atoms: C_18  and  C_19
REMARK   12  A    between atoms: C_19  and  C_20
REMARK   13  A    between atoms: C_20  and  C_21
REMARK   14  A    between atoms: C_21  and  C_22
REMARK   15  A    between atoms: C_22  and  N_23
REMARK                            x       y       z     vdW  Elec       q    Type
REMARK                         _______ _______ _______ _____ _____    ______ ____
ROOT
ATOM      1  C   UNL     1       3.829   7.587  18.067  0.00  0.00    +0.000 C 
ENDROOT
BRANCH   1   2
ATOM      2  C   UNL     1       2.453   7.098  18.458  0.00  0.00    +0.000 C 
BRANCH   2   3
ATOM      3  C   UNL     1       2.202   7.213  19.957  0.00  0.00    +0.000 C 
BRANCH   3   4
ATOM      4  C   UNL     1       0.879   7.945  20.226  0.00  0.00    +0.000 C 
BRANCH   4   5
ATOM      5  C   UNL     1       1.031   9.414  19.839  0.00  0.00    +0.000 C 
BRANCH   5   6
ATOM      6  O   UNL     1       1.228  10.282  20.941  0.00  0.00    +0.000 OA
BRANCH   6  14
ATOM      7  C   UNL     1      -0.227  12.604  19.362  0.00  0.00    +0.000 C 
ATOM      8  C   UNL     1      -0.590  11.991  20.689  0.00  0.00    +0.000 A 
ATOM      9  C   UNL     1      -1.769  12.514  21.260  0.00  0.00    +0.000 A 
ATOM     10  C   UNL     1      -2.260  12.040  22.473  0.00  0.00    +0.000 A 
ATOM     11  C   UNL     1      -1.590  11.024  23.151  0.00  0.00    +0.000 A 
ATOM     12  C   UNL     1      -0.414  10.474  22.608  0.00  0.00    +0.000 A 
ATOM     13  C   UNL     1       0.284   9.382  23.380  0.00  0.00    +0.000 C 
ATOM     14  C   UNL     1       0.098  10.957  21.376  0.00  0.00    +0.000 A 
BRANCH  10  15
ATOM     15  N   UNL     1      -3.490  12.624  23.016  0.00  0.00    +0.000 N 
ATOM     16  O   UNL     1      -4.049  12.032  23.951  0.00  0.00    +0.000 OA
ATOM     17  O   UNL     1      -3.905  13.678  22.508  0.00  0.00    +0.000 OA
ENDBRANCH  10  15
ENDBRANCH   6  14
ENDBRANCH   5   6
ENDBRANCH   4   5
ENDBRANCH   3   4
ENDBRANCH   2   3
ENDBRANCH   1   2
BRANCH   1  18
ATOM     18  C   UNL     1       4.267   6.855  16.806  0.00  0.00    +0.000 C 
BRANCH  18  19
ATOM     19  C   UNL     1       5.773   6.691  16.789  0.00  0.00    +0.000 C 
BRANCH  19  20
ATOM     20  C   UNL     1       6.192   5.719  15.691  0.00  0.00    +0.000 C 
BRANCH  20  21
ATOM     21  C   UNL     1       5.120   4.645  15.540  0.00  0.00    +0.000 C 
BRANCH  21  22
ATOM     22  C   UNL     1       5.317   3.489  16.515  0.00  0.00    +0.000 C 
BRANCH  22  23
ATOM     23  N   UNL     1       4.336   3.526  17.586  0.00  0.00    +0.000 N 
ATOM     24  C   UNL     1       2.990   3.327  17.417  0.00  0.00    +0.000 C 
ATOM     25  O   UNL     1       2.349   3.125  16.405  0.00  0.00    +0.000 OA
ATOM     26  C   UNL     1       2.396   3.401  18.749  0.00  0.00    +0.000 A 
ATOM     27  C   UNL     1       1.080   3.243  19.137  0.00  0.00    +0.000 A 
ATOM     28  C   UNL     1       0.802   3.354  20.502  0.00  0.00    +0.000 A 
ATOM     29  C   UNL     1       1.833   3.626  21.434  0.00  0.00    +0.000 A 
ATOM     30  C   UNL     1       3.156   3.774  21.009  0.00  0.00    +0.000 A 
ATOM     31  C   UNL     1       3.408   3.653  19.656  0.00  0.00    +0.000 A 
ATOM     32  C   UNL     1       4.661   3.725  18.904  0.00  0.00    +0.000 C 
ATOM     33  O   UNL     1       5.746   3.925  19.404  0.00  0.00    +0.000 OA
ENDBRANCH  22  23
ENDBRANCH  21  22
ENDBRANCH  20  21
ENDBRANCH  19  20
ENDBRANCH  18  19
ENDBRANCH   1  18
TORSDOF 13
ENDMDL
MODEL 9
REMARK VINA RESULT:      -6.8      3.057      4.018
REMARK  Name = 
REMARK  15 active torsions:
REMARK  status: ('A' for Active; 'I' for Inactive)
REMARK    1  A    between atoms: C_1  and  C_2
REMARK    2  A    between atoms: C_4  and  N_5
REMARK    3  A    between atoms: C_9  and  C_10
REMARK    4  A    between atoms: C_11  and  O_12
REMARK    5  A    between atoms: O_12  and  C_13
REMARK    6  A    between atoms: C_13  and  C_14
REMARK    7  A    between atoms: C_14  and  C_15
REMARK    8  A    between atoms: C_15  and  C_16
REMARK    9  A    between atoms: C_16  and  C_17
REMARK   10  A    between atoms: C_17  and  C_18
REMARK   11  A    between atoms: C_18  and  C_19
REMARK   12  A    between atoms: C_19  and  C_20
REMARK   13  A    between atoms: C_20  and  C_21
REMARK   14  A    between atoms: C_21  and  C_22
REMARK   15  A    between atoms: C_22  and  N_23
REMARK                            x       y       z     vdW  Elec       q    Type
REMARK                         _______ _______ _______ _____ _____    ______ ____
ROOT
ATOM      1  C   UNL     1       2.781   8.001  17.565  0.00  0.00    +0.000 C 
ENDROOT
BRANCH   1   2
ATOM      2  C   UNL     1       2.383   9.358  18.098  0.00  0.00    +0.000 C 
BRANCH   2   3
ATOM      3  C   UNL     1       0.870   9.541  18.145  0.00  0.00    +0.000 C 
BRANCH   3   4
ATOM      4  C   UNL     1       0.389   9.675  19.597  0.00  0.00    +0.000 C 
BRANCH   4   5
ATOM      5  C   UNL     1      -0.412  10.967  19.743  0.00  0.00    +0.000 C 
BRANCH   5   6
ATOM      6  O   UNL     1      -1.034  11.397  18.545  0.00  0.00    +0.000 OA
BRANCH   6  14
ATOM      7  C   UNL     1      -2.616  13.117  20.676  0.00  0.00    +0.000 C 
ATOM      8  C   UNL     1      -3.156  12.298  19.532  0.00  0.00    +0.000 A 
ATOM      9  C   UNL     1      -4.557  12.363  19.389  0.00  0.00    +0.000 A 
ATOM     10  C   UNL     1      -5.216  11.686  18.366  0.00  0.00    +0.000 A 
ATOM     11  C   UNL     1      -4.491  10.927  17.450  0.00  0.00    +0.000 A 
ATOM     12  C   UNL     1      -3.090  10.844  17.557  0.00  0.00    +0.000 A 
ATOM     13  C   UNL     1      -2.347  10.004  16.549  0.00  0.00    +0.000 C 
ATOM     14  C   UNL     1      -2.413  11.525  18.602  0.00  0.00    +0.000 A 
BRANCH  10  15
ATOM     15  N   UNL     1      -6.674  11.792  18.271  0.00  0.00    +0.000 N 
ATOM     16  O   UNL     1      -7.354  11.236  19.145  0.00  0.00    +0.000 OA
ATOM     17  O   UNL     1      -7.148  12.429  17.317  0.00  0.00    +0.000 OA
ENDBRANCH  10  15
ENDBRANCH   6  14
ENDBRANCH   5   6
ENDBRANCH   4   5
ENDBRANCH   3   4
ENDBRANCH   2   3
ENDBRANCH   1   2
BRANCH   1  18
ATOM     18  C   UNL     1       1.996   6.933  18.314  0.00  0.00    +0.000 C 
BRANCH  18  19
ATOM     19  C   UNL     1       2.767   6.469  19.532  0.00  0.00    +0.000 C 
BRANCH  19  20
ATOM     20  C   UNL     1       1.954   5.451  20.324  0.00  0.00    +0.000 C 
BRANCH  20  21
ATOM     21  C   UNL     1       2.072   4.087  19.653  0.00  0.00    +0.000 C 
BRANCH  21  22
ATOM     22  C   UNL     1       3.478   3.505  19.766  0.00  0.00    +0.000 C 
BRANCH  22  23
ATOM     23  N   UNL     1       4.290   3.853  18.612  0.00  0.00    +0.000 N 
ATOM     24  C   UNL     1       5.566   4.350  18.679  0.00  0.00    +0.000 C 
ATOM     25  O   UNL     1       6.248   4.629  19.644  0.00  0.00    +0.000 OA
ATOM     26  C   UNL     1       6.015   4.506  17.299  0.00  0.00    +0.000 A 
ATOM     27  C   UNL     1       7.232   4.944  16.812  0.00  0.00    +0.000 A 
ATOM     28  C   UNL     1       7.387   4.976  15.424  0.00  0.00    +0.000 A 
ATOM     29  C   UNL     1       6.332   4.582  14.565  0.00  0.00    +0.000 A 
ATOM     30  C   UNL     1       5.115   4.139  15.090  0.00  0.00    +0.000 A 
ATOM     31  C   UNL     1       4.988   4.108  16.465  0.00  0.00    +0.000 A 
ATOM     32  C   UNL     1       3.876   3.679  17.315  0.00  0.00    +0.000 C 
ATOM     33  O   UNL     1       2.820   3.260  16.897  0.00  0.00    +0.000 OA
ENDBRANCH  22  23
ENDBRANCH  21  22
ENDBRANCH  20  21
ENDBRANCH  19  20
ENDBRANCH  18  19
ENDBRANCH   1  18
TORSDOF 13
ENDMDL
