MODEL 1
REMARK VINA RESULT:      -7.1      0.000      0.000
REMARK  Name = 
REMARK  9 active torsions:
REMARK  status: ('A' for Active; 'I' for Inactive)
REMARK    1  A    between atoms: C_1  and  C_2
REMARK    2  A    between atoms: C_2  and  C_3
REMARK    3  A    between atoms: C_2  and  C_4
REMARK    4  A    between atoms: C_2  and  N_5
REMARK    5  A    between atoms: C_6  and  C_8
REMARK    6  A    between atoms: C_8  and  N_9
REMARK    7  A    between atoms: N_9  and  C_24
REMARK    8  A    between atoms: C_10  and  C_12
REMARK    9  A    between atoms: C_12  and  C_13
REMARK                            x       y       z     vdW  Elec       q    Type
REMARK                         _______ _______ _______ _____ _____    ______ ____
ROOT
ATOM      1  N   UNL     1       5.465   5.635  16.954  0.00  0.00    +0.000 N 
ATOM      2  C   UNL     1       4.685   4.505  17.303  0.00  0.00    +0.000 C 
ATOM      3  O   UNL     1       4.226   3.870  16.318  0.00  0.00    +0.000 OA
ENDROOT
BRANCH   2   4
ATOM      4  C   UNL     1       4.184   3.832  18.699  0.00  0.00    +0.000 C 
ATOM      5  C   UNL     1       3.691   2.644  17.767  0.00  0.00    +0.000 C 
ATOM      6  C   UNL     1       4.152   5.301  19.232  0.00  0.00    +0.000 C 
ATOM      7  C   UNL     1       2.802   5.953  19.050  0.00  0.00    +0.000 C 
ATOM      8  O   UNL     1       2.755   7.143  18.754  0.00  0.00    +0.000 OA
ATOM      9  N   UNL     1       1.667   5.240  19.320  0.00  0.00    +0.000 NA
ATOM     10  C   UNL     1       1.875   4.048  19.769  0.00  0.00    +0.000 C 
ATOM     11  C   UNL     1       0.757   3.391  20.523  0.00  0.00    +0.000 C 
ATOM     12  C   UNL     1       1.129   2.581  21.529  0.00  0.00    +0.000 C 
ATOM     13  C   UNL     1       2.535   2.352  21.817  0.00  0.00    +0.000 C 
ATOM     14  C   UNL     1       3.460   2.719  20.902  0.00  0.00    +0.000 C 
ATOM     15  N   UNL     1       3.127   3.440  19.730  0.00  0.00    +0.000 N 
ENDBRANCH   2   4
BRANCH   1  16
ATOM     16  C   UNL     1       6.336   6.493  17.815  0.00  0.00    +0.000 C 
ATOM     17  C   UNL     1       7.595   5.781  18.351  0.00  0.00    +0.000 C 
ATOM     18  C   UNL     1       8.417   6.894  18.982  0.00  0.00    +0.000 C 
ATOM     19  C   UNL     1       8.173   8.105  18.086  0.00  0.00    +0.000 C 
ATOM     20  C   UNL     1       7.026   7.707  17.139  0.00  0.00    +0.000 C 
ENDBRANCH   1  16
BRANCH   1  21
ATOM     21  C   UNL     1       5.440   6.023  15.485  0.00  0.00    +0.000 C 
BRANCH  21  23
ATOM     22  N   UNL     1       5.393   4.588  13.475  0.00  0.00    +0.000 N 
ATOM     23  C   UNL     1       6.199   5.169  14.429  0.00  0.00    +0.000 C 
ATOM     24  O   UNL     1       7.431   5.113  14.411  0.00  0.00    +0.000 OA
ATOM     25  H   UNL     1       4.405   4.797  13.548  0.00  0.00    +0.000 HD
BRANCH  22  27
ATOM     26  C   UNL     1       6.196   2.272  13.048  0.00  0.00    +0.000 C 
ATOM     27  C   UNL     1       5.819   3.632  12.433  0.00  0.00    +0.000 C 
ATOM     28  C   UNL     1       7.006   4.152  11.603  0.00  0.00    +0.000 C 
ATOM     29  C   UNL     1       4.623   3.421  11.487  0.00  0.00    +0.000 C 
ENDBRANCH  22  27
ENDBRANCH  21  23
ENDBRANCH   1  21
TORSDOF 5
ENDMDL
MODEL 2
REMARK VINA RESULT:      -6.9      3.570      6.318
REMARK  Name = 
REMARK  9 active torsions:
REMARK  status: ('A' for Active; 'I' for Inactive)
REMARK    1  A    between atoms: C_1  and  C_2
REMARK    2  A    between atoms: C_2  and  C_3
REMARK    3  A    between atoms: C_2  and  C_4
REMARK    4  A    between atoms: C_2  and  N_5
REMARK    5  A    between atoms: C_6  and  C_8
REMARK    6  A    between atoms: C_8  and  N_9
REMARK    7  A    between atoms: N_9  and  C_24
REMARK    8  A    between atoms: C_10  and  C_12
REMARK    9  A    between atoms: C_12  and  C_13
REMARK                            x       y       z     vdW  Elec       q    Type
REMARK                         _______ _______ _______ _____ _____    ______ ____
ROOT
ATOM      1  N   UNL     1       2.638   6.268  19.477  0.00  0.00    +0.000 N 
ATOM      2  C   UNL     1       2.412   7.538  18.893  0.00  0.00    +0.000 C 
ATOM      3  O   UNL     1       3.460   8.133  18.530  0.00  0.00    +0.000 OA
ENDROOT
BRANCH   2   4
ATOM      4  C   UNL     1       1.103   8.464  18.609  0.00  0.00    +0.000 C 
ATOM      5  C   UNL     1       2.006   9.120  17.479  0.00  0.00    +0.000 C 
ATOM      6  C   UNL     1       0.727   8.141  20.091  0.00  0.00    +0.000 C 
ATOM      7  C   UNL     1       1.258   9.172  21.060  0.00  0.00    +0.000 C 
ATOM      8  O   UNL     1       1.666   8.798  22.156  0.00  0.00    +0.000 OA
ATOM      9  N   UNL     1       1.177  10.499  20.744  0.00  0.00    +0.000 NA
ATOM     10  C   UNL     1       0.586  10.750  19.624  0.00  0.00    +0.000 C 
ATOM     11  C   UNL     1       0.036  12.132  19.431  0.00  0.00    +0.000 C 
ATOM     12  C   UNL     1      -1.097  12.213  18.713  0.00  0.00    +0.000 C 
ATOM     13  C   UNL     1      -1.704  11.021  18.145  0.00  0.00    +0.000 C 
ATOM     14  C   UNL     1      -0.983   9.879  18.093  0.00  0.00    +0.000 C 
ATOM     15  N   UNL     1       0.295   9.759  18.691  0.00  0.00    +0.000 N 
ENDBRANCH   2   4
BRANCH   1  16
ATOM     16  C   UNL     1       1.659   5.193  19.826  0.00  0.00    +0.000 C 
ATOM     17  C   UNL     1       1.528   4.084  18.761  0.00  0.00    +0.000 C 
ATOM     18  C   UNL     1       0.679   3.016  19.432  0.00  0.00    +0.000 C 
ATOM     19  C   UNL     1       1.109   3.047  20.896  0.00  0.00    +0.000 C 
ATOM     20  C   UNL     1       1.991   4.300  21.050  0.00  0.00    +0.000 C 
ENDBRANCH   1  16
BRANCH   1  21
ATOM     21  C   UNL     1       4.089   5.927  19.770  0.00  0.00    +0.000 C 
BRANCH  21  23
ATOM     22  N   UNL     1       5.077   5.564  17.535  0.00  0.00    +0.000 N 
ATOM     23  C   UNL     1       4.904   5.031  18.793  0.00  0.00    +0.000 C 
ATOM     24  O   UNL     1       5.425   3.978  19.167  0.00  0.00    +0.000 OA
ATOM     25  H   UNL     1       4.680   6.485  17.389  0.00  0.00    +0.000 HD
BRANCH  22  27
ATOM     26  C   UNL     1       4.980   3.563  16.061  0.00  0.00    +0.000 C 
ATOM     27  C   UNL     1       5.694   4.890  16.375  0.00  0.00    +0.000 C 
ATOM     28  C   UNL     1       7.194   4.615  16.579  0.00  0.00    +0.000 C 
ATOM     29  C   UNL     1       5.533   5.824  15.162  0.00  0.00    +0.000 C 
ENDBRANCH  22  27
ENDBRANCH  21  23
ENDBRANCH   1  21
TORSDOF 5
ENDMDL
MODEL 3
REMARK VINA RESULT:      -6.6      1.723      2.398
REMARK  Name = 
REMARK  9 active torsions:
REMARK  status: ('A' for Active; 'I' for Inactive)
REMARK    1  A    between atoms: C_1  and  C_2
REMARK    2  A    between atoms: C_2  and  C_3
REMARK    3  A    between atoms: C_2  and  C_4
REMARK    4  A    between atoms: C_2  and  N_5
REMARK    5  A    between atoms: C_6  and  C_8
REMARK    6  A    between atoms: C_8  and  N_9
REMARK    7  A    between atoms: N_9  and  C_24
REMARK    8  A    between atoms: C_10  and  C_12
REMARK    9  A    between atoms: C_12  and  C_13
REMARK                            x       y       z     vdW  Elec       q    Type
REMARK                         _______ _______ _______ _____ _____    ______ ____
ROOT
ATOM      1  N   UNL     1       6.085   4.314  16.816  0.00  0.00    +0.000 N 
ATOM      2  C   UNL     1       4.900   3.539  16.833  0.00  0.00    +0.000 C 
ATOM      3  O   UNL     1       4.926   2.540  16.068  0.00  0.00    +0.000 OA
ENDROOT
BRANCH   2   4
ATOM      4  C   UNL     1       3.459   3.646  17.582  0.00  0.00    +0.000 C 
ATOM      5  C   UNL     1       3.669   5.213  17.425  0.00  0.00    +0.000 C 
ATOM      6  C   UNL     1       3.810   2.236  18.156  0.00  0.00    +0.000 C 
ATOM      7  C   UNL     1       4.520   2.313  19.488  0.00  0.00    +0.000 C 
ATOM      8  O   UNL     1       5.412   1.506  19.730  0.00  0.00    +0.000 OA
ATOM      9  N   UNL     1       4.088   3.203  20.431  0.00  0.00    +0.000 NA
ATOM     10  C   UNL     1       3.043   3.881  20.092  0.00  0.00    +0.000 C 
ATOM     11  C   UNL     1       2.237   4.501  21.194  0.00  0.00    +0.000 C 
ATOM     12  C   UNL     1       0.910   4.557  20.986  0.00  0.00    +0.000 C 
ATOM     13  C   UNL     1       0.332   4.071  19.745  0.00  0.00    +0.000 C 
ATOM     14  C   UNL     1       1.145   3.830  18.692  0.00  0.00    +0.000 C 
ATOM     15  N   UNL     1       2.556   3.905  18.788  0.00  0.00    +0.000 N 
ENDBRANCH   2   4
BRANCH   1  16
ATOM     16  C   UNL     1       6.510   5.424  17.724  0.00  0.00    +0.000 C 
ATOM     17  C   UNL     1       7.729   5.088  18.609  0.00  0.00    +0.000 C 
ATOM     18  C   UNL     1       8.105   6.414  19.250  0.00  0.00    +0.000 C 
ATOM     19  C   UNL     1       7.822   7.456  18.172  0.00  0.00    +0.000 C 
ATOM     20  C   UNL     1       7.055   6.715  17.060  0.00  0.00    +0.000 C 
ENDBRANCH   1  16
BRANCH   1  21
ATOM     21  C   UNL     1       7.092   3.955  15.736  0.00  0.00    +0.000 C 
BRANCH  21  23
ATOM     22  N   UNL     1       6.279   3.222  13.522  0.00  0.00    +0.000 N 
ATOM     23  C   UNL     1       6.797   4.275  14.242  0.00  0.00    +0.000 C 
ATOM     24  O   UNL     1       6.933   5.413  13.789  0.00  0.00    +0.000 OA
ATOM     25  H   UNL     1       6.124   2.367  14.042  0.00  0.00    +0.000 HD
BRANCH  22  27
ATOM     26  C   UNL     1       7.031   4.080  11.311  0.00  0.00    +0.000 C 
ATOM     27  C   UNL     1       6.023   3.197  12.068  0.00  0.00    +0.000 C 
ATOM     28  C   UNL     1       4.595   3.650  11.711  0.00  0.00    +0.000 C 
ATOM     29  C   UNL     1       6.202   1.743  11.594  0.00  0.00    +0.000 C 
ENDBRANCH  22  27
ENDBRANCH  21  23
ENDBRANCH   1  21
TORSDOF 5
ENDMDL
MODEL 4
REMARK VINA RESULT:      -6.6      1.562      2.120
REMARK  Name = 
REMARK  9 active torsions:
REMARK  status: ('A' for Active; 'I' for Inactive)
REMARK    1  A    between atoms: C_1  and  C_2
REMARK    2  A    between atoms: C_2  and  C_3
REMARK    3  A    between atoms: C_2  and  C_4
REMARK    4  A    between atoms: C_2  and  N_5
REMARK    5  A    between atoms: C_6  and  C_8
REMARK    6  A    between atoms: C_8  and  N_9
REMARK    7  A    between atoms: N_9  and  C_24
REMARK    8  A    between atoms: C_10  and  C_12
REMARK    9  A    between atoms: C_12  and  C_13
REMARK                            x       y       z     vdW  Elec       q    Type
REMARK                         _______ _______ _______ _____ _____    ______ ____
ROOT
ATOM      1  N   UNL     1       6.602   4.856  16.822  0.00  0.00    +0.000 N 
ATOM      2  C   UNL     1       5.416   4.366  17.422  0.00  0.00    +0.000 C 
ATOM      3  O   UNL     1       5.119   3.188  17.093  0.00  0.00    +0.000 OA
ENDROOT
BRANCH   2   4
ATOM      4  C   UNL     1       4.288   4.980  18.424  0.00  0.00    +0.000 C 
ATOM      5  C   UNL     1       5.169   4.317  19.568  0.00  0.00    +0.000 C 
ATOM      6  C   UNL     1       3.355   4.936  17.171  0.00  0.00    +0.000 C 
ATOM      7  C   UNL     1       2.579   3.643  17.072  0.00  0.00    +0.000 C 
ATOM      8  O   UNL     1       2.385   3.154  15.964  0.00  0.00    +0.000 OA
ATOM      9  N   UNL     1       2.022   3.104  18.198  0.00  0.00    +0.000 NA
ATOM     10  C   UNL     1       2.181   3.809  19.267  0.00  0.00    +0.000 C 
ATOM     11  C   UNL     1       1.232   3.561  20.402  0.00  0.00    +0.000 C 
ATOM     12  C   UNL     1       0.908   4.638  21.137  0.00  0.00    +0.000 C 
ATOM     13  C   UNL     1       1.486   5.939  20.844  0.00  0.00    +0.000 C 
ATOM     14  C   UNL     1       2.559   6.011  20.025  0.00  0.00    +0.000 C 
ATOM     15  N   UNL     1       3.064   4.883  19.333  0.00  0.00    +0.000 N 
ENDBRANCH   2   4
BRANCH   1  16
ATOM     16  C   UNL     1       7.379   6.097  17.123  0.00  0.00    +0.000 C 
ATOM     17  C   UNL     1       6.546   7.395  17.071  0.00  0.00    +0.000 C 
ATOM     18  C   UNL     1       7.474   8.461  17.631  0.00  0.00    +0.000 C 
ATOM     19  C   UNL     1       8.269   7.745  18.718  0.00  0.00    +0.000 C 
ATOM     20  C   UNL     1       7.950   6.247  18.558  0.00  0.00    +0.000 C 
ENDBRANCH   1  16
BRANCH   1  21
ATOM     21  C   UNL     1       7.194   3.984  15.727  0.00  0.00    +0.000 C 
BRANCH  21  23
ATOM     22  N   UNL     1       6.344   3.220  13.537  0.00  0.00    +0.000 N 
ATOM     23  C   UNL     1       6.889   4.279  14.230  0.00  0.00    +0.000 C 
ATOM     24  O   UNL     1       7.041   5.404  13.751  0.00  0.00    +0.000 OA
ATOM     25  H   UNL     1       6.179   2.379  14.077  0.00  0.00    +0.000 HD
BRANCH  22  27
ATOM     26  C   UNL     1       6.150   1.728  11.556  0.00  0.00    +0.000 C 
ATOM     27  C   UNL     1       6.072   3.171  12.087  0.00  0.00    +0.000 C 
ATOM     28  C   UNL     1       7.034   4.055  11.274  0.00  0.00    +0.000 C 
ATOM     29  C   UNL     1       4.638   3.688  11.870  0.00  0.00    +0.000 C 
ENDBRANCH  22  27
ENDBRANCH  21  23
ENDBRANCH   1  21
TORSDOF 5
ENDMDL
MODEL 5
REMARK VINA RESULT:      -6.6      1.444      2.434
REMARK  Name = 
REMARK  9 active torsions:
REMARK  status: ('A' for Active; 'I' for Inactive)
REMARK    1  A    between atoms: C_1  and  C_2
REMARK    2  A    between atoms: C_2  and  C_3
REMARK    3  A    between atoms: C_2  and  C_4
REMARK    4  A    between atoms: C_2  and  N_5
REMARK    5  A    between atoms: C_6  and  C_8
REMARK    6  A    between atoms: C_8  and  N_9
REMARK    7  A    between atoms: N_9  and  C_24
REMARK    8  A    between atoms: C_10  and  C_12
REMARK    9  A    between atoms: C_12  and  C_13
REMARK                            x       y       z     vdW  Elec       q    Type
REMARK                         _______ _______ _______ _____ _____    ______ ____
ROOT
ATOM      1  N   UNL     1       6.142   4.636  16.933  0.00  0.00    +0.000 N 
ATOM      2  C   UNL     1       4.973   3.849  17.073  0.00  0.00    +0.000 C 
ATOM      3  O   UNL     1       4.956   2.817  16.351  0.00  0.00    +0.000 OA
ENDROOT
BRANCH   2   4
ATOM      4  C   UNL     1       3.591   3.971  17.925  0.00  0.00    +0.000 C 
ATOM      5  C   UNL     1       4.307   5.212  18.611  0.00  0.00    +0.000 C 
ATOM      6  C   UNL     1       3.425   2.450  17.604  0.00  0.00    +0.000 C 
ATOM      7  C   UNL     1       4.018   1.564  18.675  0.00  0.00    +0.000 C 
ATOM      8  O   UNL     1       4.581   0.527  18.339  0.00  0.00    +0.000 OA
ATOM      9  N   UNL     1       3.827   1.878  19.992  0.00  0.00    +0.000 NA
ATOM     10  C   UNL     1       3.086   2.914  20.195  0.00  0.00    +0.000 C 
ATOM     11  C   UNL     1       2.442   3.047  21.544  0.00  0.00    +0.000 C 
ATOM     12  C   UNL     1       1.224   3.615  21.556  0.00  0.00    +0.000 C 
ATOM     13  C   UNL     1       0.615   4.091  20.326  0.00  0.00    +0.000 C 
ATOM     14  C   UNL     1       1.384   4.226  19.221  0.00  0.00    +0.000 C 
ATOM     15  N   UNL     1       2.732   3.795  19.177  0.00  0.00    +0.000 N 
ENDBRANCH   2   4
BRANCH   1  16
ATOM     16  C   UNL     1       6.617   5.789  17.758  0.00  0.00    +0.000 C 
ATOM     17  C   UNL     1       7.892   5.500  18.577  0.00  0.00    +0.000 C 
ATOM     18  C   UNL     1       8.301   6.857  19.129  0.00  0.00    +0.000 C 
ATOM     19  C   UNL     1       7.942   7.845  18.023  0.00  0.00    +0.000 C 
ATOM     20  C   UNL     1       7.110   7.050  17.000  0.00  0.00    +0.000 C 
ENDBRANCH   1  16
BRANCH   1  21
ATOM     21  C   UNL     1       7.069   4.243  15.795  0.00  0.00    +0.000 C 
BRANCH  21  23
ATOM     22  N   UNL     1       6.362   3.321  13.615  0.00  0.00    +0.000 N 
ATOM     23  C   UNL     1       6.646   4.472  14.315  0.00  0.00    +0.000 C 
ATOM     24  O   UNL     1       6.491   5.606  13.858  0.00  0.00    +0.000 OA
ATOM     25  H   UNL     1       6.434   2.457  14.140  0.00  0.00    +0.000 HD
BRANCH  22  27
ATOM     26  C   UNL     1       4.624   3.692  11.874  0.00  0.00    +0.000 C 
ATOM     27  C   UNL     1       6.059   3.225  12.173  0.00  0.00    +0.000 C 
ATOM     28  C   UNL     1       6.246   1.799  11.624  0.00  0.00    +0.000 C 
ATOM     29  C   UNL     1       7.036   4.159  11.436  0.00  0.00    +0.000 C 
ENDBRANCH  22  27
ENDBRANCH  21  23
ENDBRANCH   1  21
TORSDOF 5
ENDMDL
MODEL 6
REMARK VINA RESULT:      -6.4     10.283     12.554
REMARK  Name = 
REMARK  9 active torsions:
REMARK  status: ('A' for Active; 'I' for Inactive)
REMARK    1  A    between atoms: C_1  and  C_2
REMARK    2  A    between atoms: C_2  and  C_3
REMARK    3  A    between atoms: C_2  and  C_4
REMARK    4  A    between atoms: C_2  and  N_5
REMARK    5  A    between atoms: C_6  and  C_8
REMARK    6  A    between atoms: C_8  and  N_9
REMARK    7  A    between atoms: N_9  and  C_24
REMARK    8  A    between atoms: C_10  and  C_12
REMARK    9  A    between atoms: C_12  and  C_13
REMARK                            x       y       z     vdW  Elec       q    Type
REMARK                         _______ _______ _______ _____ _____    ______ ____
ROOT
ATOM      1  N   UNL     1      -1.829  13.372  20.514  0.00  0.00    +0.000 N 
ATOM      2  C   UNL     1      -2.742  13.089  21.559  0.00  0.00    +0.000 C 
ATOM      3  O   UNL     1      -2.600  11.949  22.074  0.00  0.00    +0.000 OA
ENDROOT
BRANCH   2   4
ATOM      4  C   UNL     1      -3.991  13.875  22.248  0.00  0.00    +0.000 C 
ATOM      5  C   UNL     1      -3.358  13.361  23.612  0.00  0.00    +0.000 C 
ATOM      6  C   UNL     1      -4.695  13.675  20.867  0.00  0.00    +0.000 C 
ATOM      7  C   UNL     1      -5.512  12.405  20.812  0.00  0.00    +0.000 C 
ATOM      8  O   UNL     1      -5.538  11.764  19.765  0.00  0.00    +0.000 OA
ATOM      9  N   UNL     1      -6.283  12.052  21.884  0.00  0.00    +0.000 NA
ATOM     10  C   UNL     1      -6.273  12.901  22.856  0.00  0.00    +0.000 C 
ATOM     11  C   UNL     1      -7.415  12.849  23.827  0.00  0.00    +0.000 C 
ATOM     12  C   UNL     1      -7.802  14.031  24.336  0.00  0.00    +0.000 C 
ATOM     13  C   UNL     1      -7.113  15.258  23.972  0.00  0.00    +0.000 C 
ATOM     14  C   UNL     1      -5.912  15.178  23.356  0.00  0.00    +0.000 C 
ATOM     15  N   UNL     1      -5.357  13.947  22.928  0.00  0.00    +0.000 N 
ENDBRANCH   2   4
BRANCH   1  16
ATOM     16  C   UNL     1      -1.548  14.666  19.820  0.00  0.00    +0.000 C 
ATOM     17  C   UNL     1      -1.260  15.846  20.772  0.00  0.00    +0.000 C 
ATOM     18  C   UNL     1      -0.782  16.962  19.856  0.00  0.00    +0.000 C 
ATOM     19  C   UNL     1       0.014  16.249  18.767  0.00  0.00    +0.000 C 
ATOM     20  C   UNL     1      -0.260  14.745  18.959  0.00  0.00    +0.000 C 
ENDBRANCH   1  16
BRANCH   1  21
ATOM     21  C   UNL     1      -0.988  12.199  20.038  0.00  0.00    +0.000 C 
BRANCH  21  23
ATOM     22  N   UNL     1      -2.626  11.747  18.245  0.00  0.00    +0.000 N 
ATOM     23  C   UNL     1      -1.448  11.335  18.829  0.00  0.00    +0.000 C 
ATOM     24  O   UNL     1      -0.749  10.422  18.386  0.00  0.00    +0.000 OA
ATOM     25  H   UNL     1      -3.051  12.574  18.647  0.00  0.00    +0.000 HD
BRANCH  22  27
ATOM     26  C   UNL     1      -2.510  10.946  15.893  0.00  0.00    +0.000 C 
ATOM     27  C   UNL     1      -3.362  11.050  17.171  0.00  0.00    +0.000 C 
ATOM     28  C   UNL     1      -4.697  11.735  16.828  0.00  0.00    +0.000 C 
ATOM     29  C   UNL     1      -3.663   9.625  17.669  0.00  0.00    +0.000 C 
ENDBRANCH  22  27
ENDBRANCH  21  23
ENDBRANCH   1  21
TORSDOF 5
ENDMDL
MODEL 7
REMARK VINA RESULT:      -6.3      8.548     11.621
REMARK  Name = 
REMARK  9 active torsions:
REMARK  status: ('A' for Active; 'I' for Inactive)
REMARK    1  A    between atoms: C_1  and  C_2
REMARK    2  A    between atoms: C_2  and  C_3
REMARK    3  A    between atoms: C_2  and  C_4
REMARK    4  A    between atoms: C_2  and  N_5
REMARK    5  A    between atoms: C_6  and  C_8
REMARK    6  A    between atoms: C_8  and  N_9
REMARK    7  A    between atoms: N_9  and  C_24
REMARK    8  A    between atoms: C_10  and  C_12
REMARK    9  A    between atoms: C_12  and  C_13
REMARK                            x       y       z     vdW  Elec       q    Type
REMARK                         _______ _______ _______ _____ _____    ______ ____
ROOT
ATOM      1  N   UNL     1      -0.878  11.422  19.390  0.00  0.00    +0.000 N 
ATOM      2  C   UNL     1      -0.373  12.728  19.181  0.00  0.00    +0.000 C 
ATOM      3  O   UNL     1      -0.635  13.208  18.046  0.00  0.00    +0.000 OA
ENDROOT
BRANCH   2   4
ATOM      4  C   UNL     1       0.523  13.774  20.049  0.00  0.00    +0.000 C 
ATOM      5  C   UNL     1      -0.580  14.833  19.620  0.00  0.00    +0.000 C 
ATOM      6  C   UNL     1       1.698  12.782  19.768  0.00  0.00    +0.000 C 
ATOM      7  C   UNL     1       2.471  13.140  18.519  0.00  0.00    +0.000 C 
ATOM      8  O   UNL     1       2.891  12.236  17.804  0.00  0.00    +0.000 OA
ATOM      9  N   UNL     1       2.777  14.449  18.268  0.00  0.00    +0.000 NA
ATOM     10  C   UNL     1       2.402  15.275  19.186  0.00  0.00    +0.000 C 
ATOM     11  C   UNL     1       3.090  16.606  19.237  0.00  0.00    +0.000 C 
ATOM     12  C   UNL     1       3.259  17.129  20.464  0.00  0.00    +0.000 C 
ATOM     13  C   UNL     1       2.762  16.437  21.641  0.00  0.00    +0.000 C 
ATOM     14  C   UNL     1       1.884  15.420  21.482  0.00  0.00    +0.000 C 
ATOM     15  N   UNL     1       1.530  14.913  20.209  0.00  0.00    +0.000 N 
ENDBRANCH   2   4
BRANCH   1  16
ATOM     16  C   UNL     1      -0.958  10.622  20.651  0.00  0.00    +0.000 C 
ATOM     17  C   UNL     1       0.301   9.782  20.949  0.00  0.00    +0.000 C 
ATOM     18  C   UNL     1       0.080   9.261  22.361  0.00  0.00    +0.000 C 
ATOM     19  C   UNL     1      -0.641  10.397  23.080  0.00  0.00    +0.000 C 
ATOM     20  C   UNL     1      -1.033  11.408  21.986  0.00  0.00    +0.000 C 
ENDBRANCH   1  16
BRANCH   1  21
ATOM     21  C   UNL     1      -1.449  10.732  18.162  0.00  0.00    +0.000 C 
BRANCH  21  23
ATOM     22  N   UNL     1      -3.677  11.776  18.382  0.00  0.00    +0.000 N 
ATOM     23  C   UNL     1      -2.987  10.672  17.933  0.00  0.00    +0.000 C 
ATOM     24  O   UNL     1      -3.510   9.746  17.310  0.00  0.00    +0.000 OA
ATOM     25  H   UNL     1      -3.113  12.513  18.788  0.00  0.00    +0.000 HD
BRANCH  22  27
ATOM     26  C   UNL     1      -5.563  13.011  19.434  0.00  0.00    +0.000 C 
ATOM     27  C   UNL     1      -5.145  11.939  18.413  0.00  0.00    +0.000 C 
ATOM     28  C   UNL     1      -5.879  10.626  18.736  0.00  0.00    +0.000 C 
ATOM     29  C   UNL     1      -5.584  12.408  17.013  0.00  0.00    +0.000 C 
ENDBRANCH  22  27
ENDBRANCH  21  23
ENDBRANCH   1  21
TORSDOF 5
ENDMDL
MODEL 8
REMARK VINA RESULT:      -6.2      9.037     11.286
REMARK  Name = 
REMARK  9 active torsions:
REMARK  status: ('A' for Active; 'I' for Inactive)
REMARK    1  A    between atoms: C_1  and  C_2
REMARK    2  A    between atoms: C_2  and  C_3
REMARK    3  A    between atoms: C_2  and  C_4
REMARK    4  A    between atoms: C_2  and  N_5
REMARK    5  A    between atoms: C_6  and  C_8
REMARK    6  A    between atoms: C_8  and  N_9
REMARK    7  A    between atoms: N_9  and  C_24
REMARK    8  A    between atoms: C_10  and  C_12
REMARK    9  A    between atoms: C_12  and  C_13
REMARK                            x       y       z     vdW  Elec       q    Type
REMARK                         _______ _______ _______ _____ _____    ______ ____
ROOT
ATOM      1  N   UNL     1       6.804  15.007  19.918  0.00  0.00    +0.000 N 
ATOM      2  C   UNL     1       7.311  15.075  21.238  0.00  0.00    +0.000 C 
ATOM      3  O   UNL     1       8.558  15.233  21.305  0.00  0.00    +0.000 OA
ENDROOT
BRANCH   2   4
ATOM      4  C   UNL     1       6.671  14.952  22.730  0.00  0.00    +0.000 C 
ATOM      5  C   UNL     1       7.431  16.321  22.999  0.00  0.00    +0.000 C 
ATOM      6  C   UNL     1       6.609  13.421  22.424  0.00  0.00    +0.000 C 
ATOM      7  C   UNL     1       7.847  12.687  22.884  0.00  0.00    +0.000 C 
ATOM      8  O   UNL     1       8.280  11.768  22.195  0.00  0.00    +0.000 OA
ATOM      9  N   UNL     1       8.397  12.988  24.099  0.00  0.00    +0.000 NA
ATOM     10  C   UNL     1       7.746  13.870  24.780  0.00  0.00    +0.000 C 
ATOM     11  C   UNL     1       7.981  13.908  26.261  0.00  0.00    +0.000 C 
ATOM     12  C   UNL     1       6.916  14.235  27.012  0.00  0.00    +0.000 C 
ATOM     13  C   UNL     1       5.642  14.560  26.394  0.00  0.00    +0.000 C 
ATOM     14  C   UNL     1       5.603  14.813  25.066  0.00  0.00    +0.000 C 
ATOM     15  N   UNL     1       6.730  14.645  24.226  0.00  0.00    +0.000 N 
ENDBRANCH   2   4
BRANCH   1  16
ATOM     16  C   UNL     1       5.388  15.040  19.439  0.00  0.00    +0.000 C 
ATOM     17  C   UNL     1       4.667  16.382  19.685  0.00  0.00    +0.000 C 
ATOM     18  C   UNL     1       3.360  16.253  18.919  0.00  0.00    +0.000 C 
ATOM     19  C   UNL     1       3.722  15.447  17.676  0.00  0.00    +0.000 C 
ATOM     20  C   UNL     1       5.153  14.929  17.909  0.00  0.00    +0.000 C 
ENDBRANCH   1  16
BRANCH   1  21
ATOM     21  C   UNL     1       7.847  14.912  18.816  0.00  0.00    +0.000 C 
BRANCH  21  23
ATOM     22  N   UNL     1       9.407  13.057  19.294  0.00  0.00    +0.000 N 
ATOM     23  C   UNL     1       8.456  13.536  18.420  0.00  0.00    +0.000 C 
ATOM     24  O   UNL     1       8.036  12.901  17.451  0.00  0.00    +0.000 OA
ATOM     25  H   UNL     1       9.588  13.634  20.107  0.00  0.00    +0.000 HD
BRANCH  22  27
ATOM     26  C   UNL     1       9.381  10.572  19.182  0.00  0.00    +0.000 C 
ATOM     27  C   UNL     1      10.236  11.849  19.110  0.00  0.00    +0.000 C 
ATOM     28  C   UNL     1      11.372  11.750  20.144  0.00  0.00    +0.000 C 
ATOM     29  C   UNL     1      10.865  11.933  17.707  0.00  0.00    +0.000 C 
ENDBRANCH  22  27
ENDBRANCH  21  23
ENDBRANCH   1  21
TORSDOF 5
ENDMDL
MODEL 9
REMARK VINA RESULT:      -6.1      9.616     12.117
REMARK  Name = 
REMARK  9 active torsions:
REMARK  status: ('A' for Active; 'I' for Inactive)
REMARK    1  A    between atoms: C_1  and  C_2
REMARK    2  A    between atoms: C_2  and  C_3
REMARK    3  A    between atoms: C_2  and  C_4
REMARK    4  A    between atoms: C_2  and  N_5
REMARK    5  A    between atoms: C_6  and  C_8
REMARK    6  A    between atoms: C_8  and  N_9
REMARK    7  A    between atoms: N_9  and  C_24
REMARK    8  A    between atoms: C_10  and  C_12
REMARK    9  A    between atoms: C_12  and  C_13
REMARK                            x       y       z     vdW  Elec       q    Type
REMARK                         _______ _______ _______ _____ _____    ______ ____
ROOT
ATOM      1  N   UNL     1      -0.913  12.647  20.548  0.00  0.00    +0.000 N 
ATOM      2  C   UNL     1      -1.240  13.885  21.152  0.00  0.00    +0.000 C 
ATOM      3  O   UNL     1      -1.521  14.800  20.335  0.00  0.00    +0.000 OA
ENDROOT
BRANCH   2   4
ATOM      4  C   UNL     1      -1.302  14.446  22.680  0.00  0.00    +0.000 C 
ATOM      5  C   UNL     1      -2.825  14.746  22.342  0.00  0.00    +0.000 C 
ATOM      6  C   UNL     1       0.238  14.656  22.515  0.00  0.00    +0.000 C 
ATOM      7  C   UNL     1       0.583  16.038  22.010  0.00  0.00    +0.000 C 
ATOM      8  O   UNL     1       1.514  16.164  21.221  0.00  0.00    +0.000 OA
ATOM      9  N   UNL     1      -0.075  17.125  22.517  0.00  0.00    +0.000 NA
ATOM     10  C   UNL     1      -0.923  16.852  23.450  0.00  0.00    +0.000 C 
ATOM     11  C   UNL     1      -1.319  17.969  24.369  0.00  0.00    +0.000 C 
ATOM     12  C   UNL     1      -1.567  17.618  25.642  0.00  0.00    +0.000 C 
ATOM     13  C   UNL     1      -1.481  16.229  26.059  0.00  0.00    +0.000 C 
ATOM     14  C   UNL     1      -1.436  15.261  25.115  0.00  0.00    +0.000 C 
ATOM     15  N   UNL     1      -1.335  15.552  23.733  0.00  0.00    +0.000 N 
ENDBRANCH   2   4
BRANCH   1  16
ATOM     16  C   UNL     1      -0.738  11.299  21.173  0.00  0.00    +0.000 C 
ATOM     17  C   UNL     1       0.724  10.809  21.224  0.00  0.00    +0.000 C 
ATOM     18  C   UNL     1       0.672   9.562  22.092  0.00  0.00    +0.000 C 
ATOM     19  C   UNL     1      -0.388   9.870  23.144  0.00  0.00    +0.000 C 
ATOM     20  C   UNL     1      -1.079  11.166  22.680  0.00  0.00    +0.000 C 
ENDBRANCH   1  16
BRANCH   1  21
ATOM     21  C   UNL     1      -0.738  12.676  19.039  0.00  0.00    +0.000 C 
BRANCH  21  23
ATOM     22  N   UNL     1      -2.619  11.918  17.628  0.00  0.00    +0.000 N 
ATOM     23  C   UNL     1      -1.388  11.580  18.146  0.00  0.00    +0.000 C 
ATOM     24  O   UNL     1      -0.788  10.542  17.861  0.00  0.00    +0.000 OA
ATOM     25  H   UNL     1      -2.955  12.845  17.861  0.00  0.00    +0.000 HD
BRANCH  22  27
ATOM     26  C   UNL     1      -3.636   9.650  17.518  0.00  0.00    +0.000 C 
ATOM     27  C   UNL     1      -3.517  11.035  16.857  0.00  0.00    +0.000 C 
ATOM     28  C   UNL     1      -3.061  10.856  15.398  0.00  0.00    +0.000 C 
ATOM     29  C   UNL     1      -4.911  11.689  16.851  0.00  0.00    +0.000 C 
ENDBRANCH  22  27
ENDBRANCH  21  23
ENDBRANCH   1  21
TORSDOF 5
ENDMDL
