MODEL 1
REMARK VINA RESULT:      -6.9      0.000      0.000
REMARK  Name = 
REMARK  7 active torsions:
REMARK  status: ('A' for Active; 'I' for Inactive)
REMARK    1  A    between atoms: C_1  and  C_2
REMARK    2  A    between atoms: C_8  and  C_9
REMARK    3  A    between atoms: C_16  and  C_17
REMARK    4  A    between atoms: N_19  and  S_20
REMARK    5  A    between atoms: S_20  and  C_23
REMARK    6  A    between atoms: N_26  and  C_27
REMARK    7  A    between atoms: C_27  and  C_28
REMARK                            x       y       z     vdW  Elec       q    Type
REMARK                         _______ _______ _______ _____ _____    ______ ____
ROOT
ATOM      1  C   UNL     1      -5.757  11.092  17.763  0.00  0.00    +0.000 C 
ATOM      2  C   UNL     1      -4.290  11.068  18.079  0.00  0.00    +0.000 A 
ATOM      3  C   UNL     1      -3.458  10.062  17.579  0.00  0.00    +0.000 A 
ATOM      4  C   UNL     1      -2.085  10.041  17.861  0.00  0.00    +0.000 A 
ATOM      5  C   UNL     1      -1.550  11.064  18.661  0.00  0.00    +0.000 A 
ATOM      6  C   UNL     1      -2.360  12.053  19.213  0.00  0.00    +0.000 A 
ATOM      7  C   UNL     1      -3.742  12.054  18.914  0.00  0.00    +0.000 A 
ATOM      8  C   UNL     1      -1.530  12.863  20.036  0.00  0.00    +0.000 A 
ATOM      9  C   UNL     1      -0.215  12.412  19.953  0.00  0.00    +0.000 A 
ATOM     10  N   UNL     1      -0.247  11.340  19.052  0.00  0.00    +0.000 N 
ENDROOT
BRANCH   8  11
ATOM     11  C   UNL     1      -2.022  13.919  20.868  0.00  0.00    +0.000 A 
ATOM     12  C   UNL     1      -2.722  13.698  21.994  0.00  0.00    +0.000 A 
ATOM     13  C   UNL     1      -3.251  14.785  22.785  0.00  0.00    +0.000 A 
ATOM     14  C   UNL     1      -3.029  16.049  22.409  0.00  0.00    +0.000 A 
ATOM     15  N   UNL     1      -2.301  16.315  21.282  0.00  0.00    +0.000 N 
ATOM     16  C   UNL     1      -1.760  15.348  20.468  0.00  0.00    +0.000 A 
ATOM     17  O   UNL     1      -1.042  15.639  19.517  0.00  0.00    +0.000 OA
ATOM     18  H   UNL     1      -2.102  17.274  21.018  0.00  0.00    +0.000 HD
ENDBRANCH   8  11
BRANCH   9  19
ATOM     19  C   UNL     1       0.981  12.842  20.658  0.00  0.00    +0.000 C 
ATOM     20  O   UNL     1       1.547  12.143  21.482  0.00  0.00    +0.000 OA
ATOM     21  N   UNL     1       1.465  14.104  20.324  0.00  0.00    +0.000 N 
ATOM     22  H   UNL     1       1.154  14.602  19.498  0.00  0.00    +0.000 HD
BRANCH  21  23
ATOM     23  S   UNL     1       2.734  14.847  21.107  0.00  0.00    +0.000 S 
ATOM     24  O   UNL     1       2.347  14.921  22.494  0.00  0.00    +0.000 OA
ATOM     25  O   UNL     1       3.950  14.163  20.715  0.00  0.00    +0.000 OA
BRANCH  23  26
ATOM     26  C   UNL     1       2.860  16.538  20.462  0.00  0.00    +0.000 C 
ATOM     27  C   UNL     1       3.559  17.466  21.426  0.00  0.00    +0.000 C 
ATOM     28  C   UNL     1       4.222  17.075  20.135  0.00  0.00    +0.000 C 
ENDBRANCH  23  26
ENDBRANCH  21  23
ENDBRANCH   9  19
BRANCH  10  29
ATOM     29  C   UNL     1       0.933  10.679  18.469  0.00  0.00    +0.000 C 
BRANCH  29  30
ATOM     30  C   UNL     1       1.278   9.327  19.043  0.00  0.00    +0.000 A 
ATOM     31  C   UNL     1       0.957   8.920  20.345  0.00  0.00    +0.000 A 
ATOM     32  C   UNL     1       1.466   7.723  20.859  0.00  0.00    +0.000 A 
ATOM     33  C   UNL     1       2.268   6.897  20.073  0.00  0.00    +0.000 A 
ATOM     34  C   UNL     1       2.530   7.249  18.751  0.00  0.00    +0.000 A 
ATOM     35  C   UNL     1       2.033   8.451  18.251  0.00  0.00    +0.000 A 
ATOM     36  F   UNL     1       2.315   8.780  16.981  0.00  0.00    +0.000 F 
ENDBRANCH  29  30
ENDBRANCH  10  29
TORSDOF 6
ENDMDL
MODEL 2
REMARK VINA RESULT:      -6.6      2.681      5.894
REMARK  Name = 
REMARK  7 active torsions:
REMARK  status: ('A' for Active; 'I' for Inactive)
REMARK    1  A    between atoms: C_1  and  C_2
REMARK    2  A    between atoms: C_8  and  C_9
REMARK    3  A    between atoms: C_16  and  C_17
REMARK    4  A    between atoms: N_19  and  S_20
REMARK    5  A    between atoms: S_20  and  C_23
REMARK    6  A    between atoms: N_26  and  C_27
REMARK    7  A    between atoms: C_27  and  C_28
REMARK                            x       y       z     vdW  Elec       q    Type
REMARK                         _______ _______ _______ _____ _____    ______ ____
ROOT
ATOM      1  C   UNL     1       2.119   8.520  17.658  0.00  0.00    +0.000 C 
ATOM      2  C   UNL     1       1.182   9.623  18.058  0.00  0.00    +0.000 A 
ATOM      3  C   UNL     1      -0.203   9.439  18.037  0.00  0.00    +0.000 A 
ATOM      4  C   UNL     1      -1.082  10.461  18.420  0.00  0.00    +0.000 A 
ATOM      5  C   UNL     1      -0.541  11.689  18.837  0.00  0.00    +0.000 A 
ATOM      6  C   UNL     1       0.832  11.918  18.823  0.00  0.00    +0.000 A 
ATOM      7  C   UNL     1       1.699  10.872  18.433  0.00  0.00    +0.000 A 
ATOM      8  C   UNL     1       1.034  13.273  19.205  0.00  0.00    +0.000 A 
ATOM      9  C   UNL     1      -0.196  13.858  19.500  0.00  0.00    +0.000 A 
ATOM     10  N   UNL     1      -1.142  12.841  19.322  0.00  0.00    +0.000 N 
ENDROOT
BRANCH   8  11
ATOM     11  C   UNL     1       2.309  13.922  19.196  0.00  0.00    +0.000 A 
ATOM     12  C   UNL     1       2.855  14.450  18.087  0.00  0.00    +0.000 A 
ATOM     13  C   UNL     1       4.169  15.051  18.100  0.00  0.00    +0.000 A 
ATOM     14  C   UNL     1       4.862  15.107  19.241  0.00  0.00    +0.000 A 
ATOM     15  N   UNL     1       4.332  14.601  20.395  0.00  0.00    +0.000 N 
ATOM     16  C   UNL     1       3.093  14.012  20.481  0.00  0.00    +0.000 A 
ATOM     17  O   UNL     1       2.627  13.651  21.556  0.00  0.00    +0.000 OA
ATOM     18  H   UNL     1       4.843  14.677  21.268  0.00  0.00    +0.000 HD
ENDBRANCH   8  11
BRANCH   9  19
ATOM     19  C   UNL     1      -0.535  15.227  19.852  0.00  0.00    +0.000 C 
ATOM     20  O   UNL     1      -0.684  16.104  19.018  0.00  0.00    +0.000 OA
ATOM     21  N   UNL     1      -0.701  15.484  21.210  0.00  0.00    +0.000 N 
ATOM     22  H   UNL     1      -0.805  14.742  21.893  0.00  0.00    +0.000 HD
BRANCH  21  23
ATOM     23  S   UNL     1      -0.951  17.005  21.842  0.00  0.00    +0.000 S 
ATOM     24  O   UNL     1       0.307  17.697  21.703  0.00  0.00    +0.000 OA
ATOM     25  O   UNL     1      -2.157  17.536  21.239  0.00  0.00    +0.000 OA
BRANCH  23  26
ATOM     26  C   UNL     1      -1.298  16.812  23.613  0.00  0.00    +0.000 C 
ATOM     27  C   UNL     1      -2.539  15.989  23.865  0.00  0.00    +0.000 C 
ATOM     28  C   UNL     1      -1.183  15.441  24.214  0.00  0.00    +0.000 C 
ENDBRANCH  23  26
ENDBRANCH  21  23
ENDBRANCH   9  19
BRANCH  10  29
ATOM     29  C   UNL     1      -2.557  12.910  19.728  0.00  0.00    +0.000 C 
BRANCH  29  30
ATOM     30  C   UNL     1      -2.823  12.762  21.206  0.00  0.00    +0.000 A 
ATOM     31  C   UNL     1      -1.941  12.155  22.108  0.00  0.00    +0.000 A 
ATOM     32  C   UNL     1      -2.337  11.899  23.425  0.00  0.00    +0.000 A 
ATOM     33  C   UNL     1      -3.601  12.280  23.872  0.00  0.00    +0.000 A 
ATOM     34  C   UNL     1      -4.460  12.957  23.010  0.00  0.00    +0.000 A 
ATOM     35  C   UNL     1      -4.065  13.194  21.695  0.00  0.00    +0.000 A 
ATOM     36  F   UNL     1      -4.916  13.829  20.875  0.00  0.00    +0.000 F 
ENDBRANCH  29  30
ENDBRANCH  10  29
TORSDOF 6
ENDMDL
MODEL 3
REMARK VINA RESULT:      -6.5      0.900      1.111
REMARK  Name = 
REMARK  7 active torsions:
REMARK  status: ('A' for Active; 'I' for Inactive)
REMARK    1  A    between atoms: C_1  and  C_2
REMARK    2  A    between atoms: C_8  and  C_9
REMARK    3  A    between atoms: C_16  and  C_17
REMARK    4  A    between atoms: N_19  and  S_20
REMARK    5  A    between atoms: S_20  and  C_23
REMARK    6  A    between atoms: N_26  and  C_27
REMARK    7  A    between atoms: C_27  and  C_28
REMARK                            x       y       z     vdW  Elec       q    Type
REMARK                         _______ _______ _______ _____ _____    ______ ____
ROOT
ATOM      1  C   UNL     1      -5.501  11.049  17.735  0.00  0.00    +0.000 C 
ATOM      2  C   UNL     1      -4.035  11.051  18.057  0.00  0.00    +0.000 A 
ATOM      3  C   UNL     1      -3.208   9.993  17.670  0.00  0.00    +0.000 A 
ATOM      4  C   UNL     1      -1.837   9.994  17.958  0.00  0.00    +0.000 A 
ATOM      5  C   UNL     1      -1.298  11.094  18.647  0.00  0.00    +0.000 A 
ATOM      6  C   UNL     1      -2.104  12.140  19.088  0.00  0.00    +0.000 A 
ATOM      7  C   UNL     1      -3.485  12.116  18.786  0.00  0.00    +0.000 A 
ATOM      8  C   UNL     1      -1.272  13.028  19.824  0.00  0.00    +0.000 A 
ATOM      9  C   UNL     1       0.041  12.563  19.795  0.00  0.00    +0.000 A 
ATOM     10  N   UNL     1       0.005  11.402  19.012  0.00  0.00    +0.000 N 
ENDROOT
BRANCH   8  11
ATOM     11  C   UNL     1      -1.760  14.168  20.539  0.00  0.00    +0.000 A 
ATOM     12  C   UNL     1      -2.471  14.071  21.676  0.00  0.00    +0.000 A 
ATOM     13  C   UNL     1      -2.995  15.239  22.345  0.00  0.00    +0.000 A 
ATOM     14  C   UNL     1      -2.759  16.455  21.841  0.00  0.00    +0.000 A 
ATOM     15  N   UNL     1      -2.020  16.596  20.699  0.00  0.00    +0.000 N 
ATOM     16  C   UNL     1      -1.482  15.546  19.995  0.00  0.00    +0.000 A 
ATOM     17  O   UNL     1      -0.755  15.730  19.024  0.00  0.00    +0.000 OA
ATOM     18  H   UNL     1      -1.811  17.521  20.338  0.00  0.00    +0.000 HD
ENDBRANCH   8  11
BRANCH   9  19
ATOM     19  C   UNL     1       1.237  13.058  20.455  0.00  0.00    +0.000 C 
ATOM     20  O   UNL     1       1.775  12.466  21.376  0.00  0.00    +0.000 OA
ATOM     21  N   UNL     1       1.756  14.252  19.961  0.00  0.00    +0.000 N 
ATOM     22  H   UNL     1       1.468  14.640  19.070  0.00  0.00    +0.000 HD
BRANCH  21  23
ATOM     23  S   UNL     1       3.032  15.067  20.657  0.00  0.00    +0.000 S 
ATOM     24  O   UNL     1       3.993  14.052  21.016  0.00  0.00    +0.000 OA
ATOM     25  O   UNL     1       3.399  16.148  19.766  0.00  0.00    +0.000 OA
BRANCH  23  26
ATOM     26  C   UNL     1       2.424  15.835  22.184  0.00  0.00    +0.000 C 
ATOM     27  C   UNL     1       1.488  16.988  21.909  0.00  0.00    +0.000 C 
ATOM     28  C   UNL     1       0.963  15.713  22.508  0.00  0.00    +0.000 C 
ENDBRANCH  23  26
ENDBRANCH  21  23
ENDBRANCH   9  19
BRANCH  10  29
ATOM     29  C   UNL     1       1.184  10.676  18.506  0.00  0.00    +0.000 C 
BRANCH  29  30
ATOM     30  C   UNL     1       1.409   9.304  19.092  0.00  0.00    +0.000 A 
ATOM     31  C   UNL     1       1.038   8.931  20.390  0.00  0.00    +0.000 A 
ATOM     32  C   UNL     1       1.440   7.700  20.917  0.00  0.00    +0.000 A 
ATOM     33  C   UNL     1       2.184   6.807  20.146  0.00  0.00    +0.000 A 
ATOM     34  C   UNL     1       2.492   7.129  18.826  0.00  0.00    +0.000 A 
ATOM     35  C   UNL     1       2.101   8.365  18.314  0.00  0.00    +0.000 A 
ATOM     36  F   UNL     1       2.427   8.664  17.047  0.00  0.00    +0.000 F 
ENDBRANCH  29  30
ENDBRANCH  10  29
TORSDOF 6
ENDMDL
MODEL 4
REMARK VINA RESULT:      -6.5      3.257      4.802
REMARK  Name = 
REMARK  7 active torsions:
REMARK  status: ('A' for Active; 'I' for Inactive)
REMARK    1  A    between atoms: C_1  and  C_2
REMARK    2  A    between atoms: C_8  and  C_9
REMARK    3  A    between atoms: C_16  and  C_17
REMARK    4  A    between atoms: N_19  and  S_20
REMARK    5  A    between atoms: S_20  and  C_23
REMARK    6  A    between atoms: N_26  and  C_27
REMARK    7  A    between atoms: C_27  and  C_28
REMARK                            x       y       z     vdW  Elec       q    Type
REMARK                         _______ _______ _______ _____ _____    ______ ____
ROOT
ATOM      1  C   UNL     1      -3.767  10.645  15.456  0.00  0.00    +0.000 C 
ATOM      2  C   UNL     1      -3.057  10.868  16.759  0.00  0.00    +0.000 A 
ATOM      3  C   UNL     1      -1.776  10.355  16.983  0.00  0.00    +0.000 A 
ATOM      4  C   UNL     1      -1.103  10.570  18.192  0.00  0.00    +0.000 A 
ATOM      5  C   UNL     1      -1.743  11.324  19.190  0.00  0.00    +0.000 A 
ATOM      6  C   UNL     1      -3.037  11.808  19.016  0.00  0.00    +0.000 A 
ATOM      7  C   UNL     1      -3.696  11.578  17.786  0.00  0.00    +0.000 A 
ATOM      8  C   UNL     1      -3.417  12.435  20.235  0.00  0.00    +0.000 A 
ATOM      9  C   UNL     1      -2.353  12.385  21.132  0.00  0.00    +0.000 A 
ATOM     10  N   UNL     1      -1.314  11.748  20.440  0.00  0.00    +0.000 N 
ENDROOT
BRANCH   8  11
ATOM     11  C   UNL     1      -4.727  12.953  20.489  0.00  0.00    +0.000 A 
ATOM     12  C   UNL     1      -5.805  12.169  20.659  0.00  0.00    +0.000 A 
ATOM     13  C   UNL     1      -7.123  12.724  20.860  0.00  0.00    +0.000 A 
ATOM     14  C   UNL     1      -7.286  14.050  20.901  0.00  0.00    +0.000 A 
ATOM     15  N   UNL     1      -6.210  14.882  20.756  0.00  0.00    +0.000 N 
ATOM     16  C   UNL     1      -4.921  14.447  20.560  0.00  0.00    +0.000 A 
ATOM     17  O   UNL     1      -3.979  15.230  20.521  0.00  0.00    +0.000 OA
ATOM     18  H   UNL     1      -6.329  15.887  20.823  0.00  0.00    +0.000 HD
ENDBRANCH   8  11
BRANCH   9  19
ATOM     19  C   UNL     1      -2.262  12.804  22.520  0.00  0.00    +0.000 C 
ATOM     20  O   UNL     1      -2.215  12.012  23.447  0.00  0.00    +0.000 OA
ATOM     21  N   UNL     1      -2.213  14.179  22.740  0.00  0.00    +0.000 N 
ATOM     22  H   UNL     1      -2.025  14.840  21.995  0.00  0.00    +0.000 HD
BRANCH  21  23
ATOM     23  S   UNL     1      -2.250  14.878  24.252  0.00  0.00    +0.000 S 
ATOM     24  O   UNL     1      -3.300  14.198  24.970  0.00  0.00    +0.000 OA
ATOM     25  O   UNL     1      -0.894  14.889  24.761  0.00  0.00    +0.000 OA
BRANCH  23  26
ATOM     26  C   UNL     1      -2.739  16.612  24.040  0.00  0.00    +0.000 C 
ATOM     27  C   UNL     1      -4.220  16.760  23.784  0.00  0.00    +0.000 C 
ATOM     28  C   UNL     1      -3.625  17.233  25.081  0.00  0.00    +0.000 C 
ENDBRANCH  23  26
ENDBRANCH  21  23
ENDBRANCH   9  19
BRANCH  10  29
ATOM     29  C   UNL     1       0.085  11.660  20.892  0.00  0.00    +0.000 C 
BRANCH  29  30
ATOM     30  C   UNL     1       1.041  12.642  20.260  0.00  0.00    +0.000 A 
ATOM     31  C   UNL     1       1.662  12.449  19.019  0.00  0.00    +0.000 A 
ATOM     32  C   UNL     1       2.667  13.320  18.586  0.00  0.00    +0.000 A 
ATOM     33  C   UNL     1       3.040  14.415  19.364  0.00  0.00    +0.000 A 
ATOM     34  C   UNL     1       2.376  14.666  20.562  0.00  0.00    +0.000 A 
ATOM     35  C   UNL     1       1.387  13.786  20.995  0.00  0.00    +0.000 A 
ATOM     36  F   UNL     1       0.775  14.034  22.162  0.00  0.00    +0.000 F 
ENDBRANCH  29  30
ENDBRANCH  10  29
TORSDOF 6
ENDMDL
MODEL 5
REMARK VINA RESULT:      -6.4      2.837      5.783
REMARK  Name = 
REMARK  7 active torsions:
REMARK  status: ('A' for Active; 'I' for Inactive)
REMARK    1  A    between atoms: C_1  and  C_2
REMARK    2  A    between atoms: C_8  and  C_9
REMARK    3  A    between atoms: C_16  and  C_17
REMARK    4  A    between atoms: N_19  and  S_20
REMARK    5  A    between atoms: S_20  and  C_23
REMARK    6  A    between atoms: N_26  and  C_27
REMARK    7  A    between atoms: C_27  and  C_28
REMARK                            x       y       z     vdW  Elec       q    Type
REMARK                         _______ _______ _______ _____ _____    ______ ____
ROOT
ATOM      1  C   UNL     1       3.040  15.991  22.628  0.00  0.00    +0.000 C 
ATOM      2  C   UNL     1       2.271  15.044  21.753  0.00  0.00    +0.000 A 
ATOM      3  C   UNL     1       2.924  14.207  20.844  0.00  0.00    +0.000 A 
ATOM      4  C   UNL     1       2.213  13.313  20.033  0.00  0.00    +0.000 A 
ATOM      5  C   UNL     1       0.814  13.266  20.153  0.00  0.00    +0.000 A 
ATOM      6  C   UNL     1       0.131  14.121  21.014  0.00  0.00    +0.000 A 
ATOM      7  C   UNL     1       0.870  15.015  21.823  0.00  0.00    +0.000 A 
ATOM      8  C   UNL     1      -1.258  13.884  20.824  0.00  0.00    +0.000 A 
ATOM      9  C   UNL     1      -1.430  12.861  19.894  0.00  0.00    +0.000 A 
ATOM     10  N   UNL     1      -0.135  12.458  19.543  0.00  0.00    +0.000 N 
ENDROOT
BRANCH   8  11
ATOM     11  C   UNL     1      -2.290  14.655  21.448  0.00  0.00    +0.000 A 
ATOM     12  C   UNL     1      -2.779  15.790  20.918  0.00  0.00    +0.000 A 
ATOM     13  C   UNL     1      -3.783  16.574  21.599  0.00  0.00    +0.000 A 
ATOM     14  C   UNL     1      -4.261  16.162  22.778  0.00  0.00    +0.000 A 
ATOM     15  N   UNL     1      -3.805  15.001  23.339  0.00  0.00    +0.000 N 
ATOM     16  C   UNL     1      -2.853  14.191  22.767  0.00  0.00    +0.000 A 
ATOM     17  O   UNL     1      -2.541  13.116  23.268  0.00  0.00    +0.000 OA
ATOM     18  H   UNL     1      -4.194  14.671  24.215  0.00  0.00    +0.000 HD
ENDBRANCH   8  11
BRANCH   9  19
ATOM     19  C   UNL     1      -2.638  12.311  19.302  0.00  0.00    +0.000 C 
ATOM     20  O   UNL     1      -3.655  12.112  19.944  0.00  0.00    +0.000 OA
ATOM     21  N   UNL     1      -2.577  12.037  17.938  0.00  0.00    +0.000 N 
ATOM     22  H   UNL     1      -1.837  12.396  17.346  0.00  0.00    +0.000 HD
BRANCH  21  23
ATOM     23  S   UNL     1      -3.793  11.276  17.090  0.00  0.00    +0.000 S 
ATOM     24  O   UNL     1      -3.919   9.966  17.680  0.00  0.00    +0.000 OA
ATOM     25  O   UNL     1      -4.925  12.178  17.046  0.00  0.00    +0.000 OA
BRANCH  23  26
ATOM     26  C   UNL     1      -3.223  11.074  15.379  0.00  0.00    +0.000 C 
ATOM     27  C   UNL     1      -2.578   9.729  15.147  0.00  0.00    +0.000 C 
ATOM     28  C   UNL     1      -3.906  10.051  14.519  0.00  0.00    +0.000 C 
ENDBRANCH  23  26
ENDBRANCH  21  23
ENDBRANCH   9  19
BRANCH  10  29
ATOM     29  C   UNL     1       0.203  11.257  18.759  0.00  0.00    +0.000 C 
BRANCH  29  30
ATOM     30  C   UNL     1       0.502  10.015  19.560  0.00  0.00    +0.000 A 
ATOM     31  C   UNL     1      -0.005   9.762  20.841  0.00  0.00    +0.000 A 
ATOM     32  C   UNL     1       0.460   8.674  21.586  0.00  0.00    +0.000 A 
ATOM     33  C   UNL     1       1.406   7.800  21.052  0.00  0.00    +0.000 A 
ATOM     34  C   UNL     1       1.861   7.991  19.750  0.00  0.00    +0.000 A 
ATOM     35  C   UNL     1       1.405   9.087  19.019  0.00  0.00    +0.000 A 
ATOM     36  F   UNL     1       1.872   9.265  17.774  0.00  0.00    +0.000 F 
ENDBRANCH  29  30
ENDBRANCH  10  29
TORSDOF 6
ENDMDL
MODEL 6
REMARK VINA RESULT:      -6.4      3.596      7.466
REMARK  Name = 
REMARK  7 active torsions:
REMARK  status: ('A' for Active; 'I' for Inactive)
REMARK    1  A    between atoms: C_1  and  C_2
REMARK    2  A    between atoms: C_8  and  C_9
REMARK    3  A    between atoms: C_16  and  C_17
REMARK    4  A    between atoms: N_19  and  S_20
REMARK    5  A    between atoms: S_20  and  C_23
REMARK    6  A    between atoms: N_26  and  C_27
REMARK    7  A    between atoms: C_27  and  C_28
REMARK                            x       y       z     vdW  Elec       q    Type
REMARK                         _______ _______ _______ _____ _____    ______ ____
ROOT
ATOM      1  C   UNL     1      -0.633  18.615  25.829  0.00  0.00    +0.000 C 
ATOM      2  C   UNL     1      -0.822  17.238  25.263  0.00  0.00    +0.000 A 
ATOM      3  C   UNL     1      -1.556  16.267  25.950  0.00  0.00    +0.000 A 
ATOM      4  C   UNL     1      -1.745  14.983  25.422  0.00  0.00    +0.000 A 
ATOM      5  C   UNL     1      -1.181  14.684  24.171  0.00  0.00    +0.000 A 
ATOM      6  C   UNL     1      -0.404  15.613  23.484  0.00  0.00    +0.000 A 
ATOM      7  C   UNL     1      -0.228  16.903  24.037  0.00  0.00    +0.000 A 
ATOM      8  C   UNL     1       0.086  14.967  22.316  0.00  0.00    +0.000 A 
ATOM      9  C   UNL     1      -0.423  13.672  22.256  0.00  0.00    +0.000 A 
ATOM     10  N   UNL     1      -1.248  13.545  23.380  0.00  0.00    +0.000 N 
ENDROOT
BRANCH   8  11
ATOM     11  C   UNL     1       1.021  15.562  21.410  0.00  0.00    +0.000 A 
ATOM     12  C   UNL     1       0.648  16.231  20.306  0.00  0.00    +0.000 A 
ATOM     13  C   UNL     1       1.618  16.774  19.384  0.00  0.00    +0.000 A 
ATOM     14  C   UNL     1       2.924  16.631  19.632  0.00  0.00    +0.000 A 
ATOM     15  N   UNL     1       3.343  15.977  20.757  0.00  0.00    +0.000 N 
ATOM     16  C   UNL     1       2.497  15.428  21.690  0.00  0.00    +0.000 A 
ATOM     17  O   UNL     1       2.922  14.926  22.726  0.00  0.00    +0.000 OA
ATOM     18  H   UNL     1       4.334  15.901  20.964  0.00  0.00    +0.000 HD
ENDBRANCH   8  11
BRANCH   9  19
ATOM     19  C   UNL     1      -0.160  12.593  21.319  0.00  0.00    +0.000 C 
ATOM     20  O   UNL     1       0.764  11.808  21.458  0.00  0.00    +0.000 OA
ATOM     21  N   UNL     1      -1.043  12.488  20.247  0.00  0.00    +0.000 N 
ATOM     22  H   UNL     1      -1.932  12.973  20.228  0.00  0.00    +0.000 HD
BRANCH  21  23
ATOM     23  S   UNL     1      -0.847  11.417  18.985  0.00  0.00    +0.000 S 
ATOM     24  O   UNL     1       0.336  11.853  18.284  0.00  0.00    +0.000 OA
ATOM     25  O   UNL     1      -0.929  10.078  19.532  0.00  0.00    +0.000 OA
BRANCH  23  26
ATOM     26  C   UNL     1      -2.268  11.613  17.875  0.00  0.00    +0.000 C 
ATOM     27  C   UNL     1      -2.241  10.627  16.733  0.00  0.00    +0.000 C 
ATOM     28  C   UNL     1      -3.280  10.507  17.813  0.00  0.00    +0.000 C 
ENDBRANCH  23  26
ENDBRANCH  21  23
ENDBRANCH   9  19
BRANCH  10  29
ATOM     29  C   UNL     1      -2.182  12.434  23.634  0.00  0.00    +0.000 C 
BRANCH  29  30
ATOM     30  C   UNL     1      -3.613  12.672  23.222  0.00  0.00    +0.000 A 
ATOM     31  C   UNL     1      -4.027  12.881  21.900  0.00  0.00    +0.000 A 
ATOM     32  C   UNL     1      -5.341  13.270  21.621  0.00  0.00    +0.000 A 
ATOM     33  C   UNL     1      -6.271  13.417  22.650  0.00  0.00    +0.000 A 
ATOM     34  C   UNL     1      -5.896  13.135  23.961  0.00  0.00    +0.000 A 
ATOM     35  C   UNL     1      -4.581  12.764  24.233  0.00  0.00    +0.000 A 
ATOM     36  F   UNL     1      -4.235  12.517  25.505  0.00  0.00    +0.000 F 
ENDBRANCH  29  30
ENDBRANCH  10  29
TORSDOF 6
ENDMDL
MODEL 7
REMARK VINA RESULT:      -6.4      3.641      7.302
REMARK  Name = 
REMARK  7 active torsions:
REMARK  status: ('A' for Active; 'I' for Inactive)
REMARK    1  A    between atoms: C_1  and  C_2
REMARK    2  A    between atoms: C_8  and  C_9
REMARK    3  A    between atoms: C_16  and  C_17
REMARK    4  A    between atoms: N_19  and  S_20
REMARK    5  A    between atoms: S_20  and  C_23
REMARK    6  A    between atoms: N_26  and  C_27
REMARK    7  A    between atoms: C_27  and  C_28
REMARK                            x       y       z     vdW  Elec       q    Type
REMARK                         _______ _______ _______ _____ _____    ______ ____
ROOT
ATOM      1  C   UNL     1       2.206   7.633  19.805  0.00  0.00    +0.000 C 
ATOM      2  C   UNL     1       1.280   8.616  20.459  0.00  0.00    +0.000 A 
ATOM      3  C   UNL     1       1.341   8.865  21.833  0.00  0.00    +0.000 A 
ATOM      4  C   UNL     1       0.486   9.789  22.448  0.00  0.00    +0.000 A 
ATOM      5  C   UNL     1      -0.443  10.477  21.648  0.00  0.00    +0.000 A 
ATOM      6  C   UNL     1      -0.561  10.216  20.286  0.00  0.00    +0.000 A 
ATOM      7  C   UNL     1       0.313   9.278  19.688  0.00  0.00    +0.000 A 
ATOM      8  C   UNL     1      -1.645  10.999  19.802  0.00  0.00    +0.000 A 
ATOM      9  C   UNL     1      -2.157  11.772  20.842  0.00  0.00    +0.000 A 
ATOM     10  N   UNL     1      -1.358  11.474  21.953  0.00  0.00    +0.000 N 
ENDROOT
BRANCH   8  11
ATOM     11  C   UNL     1      -2.153  10.917  18.467  0.00  0.00    +0.000 A 
ATOM     12  C   UNL     1      -3.055   9.997  18.081  0.00  0.00    +0.000 A 
ATOM     13  C   UNL     1      -3.508   9.906  16.713  0.00  0.00    +0.000 A 
ATOM     14  C   UNL     1      -3.042  10.765  15.800  0.00  0.00    +0.000 A 
ATOM     15  N   UNL     1      -2.141  11.729  16.158  0.00  0.00    +0.000 N 
ATOM     16  C   UNL     1      -1.653  11.893  17.433  0.00  0.00    +0.000 A 
ATOM     17  O   UNL     1      -0.912  12.827  17.721  0.00  0.00    +0.000 OA
ATOM     18  H   UNL     1      -1.816  12.403  15.473  0.00  0.00    +0.000 HD
ENDBRANCH   8  11
BRANCH   9  19
ATOM     19  C   UNL     1      -3.304  12.664  20.885  0.00  0.00    +0.000 C 
ATOM     20  O   UNL     1      -3.261  13.813  20.478  0.00  0.00    +0.000 OA
ATOM     21  N   UNL     1      -4.477  12.123  21.405  0.00  0.00    +0.000 N 
ATOM     22  H   UNL     1      -4.602  11.126  21.536  0.00  0.00    +0.000 HD
BRANCH  21  23
ATOM     23  S   UNL     1      -5.864  13.005  21.675  0.00  0.00    +0.000 S 
ATOM     24  O   UNL     1      -6.549  12.333  22.753  0.00  0.00    +0.000 OA
ATOM     25  O   UNL     1      -5.481  14.396  21.798  0.00  0.00    +0.000 OA
BRANCH  23  26
ATOM     26  C   UNL     1      -6.892  12.879  20.186  0.00  0.00    +0.000 C 
ATOM     27  C   UNL     1      -6.304  13.638  19.020  0.00  0.00    +0.000 C 
ATOM     28  C   UNL     1      -6.342  12.135  19.004  0.00  0.00    +0.000 C 
ENDBRANCH  23  26
ENDBRANCH  21  23
ENDBRANCH   9  19
BRANCH  10  29
ATOM     29  C   UNL     1      -1.366  12.206  23.232  0.00  0.00    +0.000 C 
BRANCH  29  30
ATOM     30  C   UNL     1      -1.112  13.690  23.140  0.00  0.00    +0.000 A 
ATOM     31  C   UNL     1      -0.033  14.262  22.454  0.00  0.00    +0.000 A 
ATOM     32  C   UNL     1       0.232  15.631  22.564  0.00  0.00    +0.000 A 
ATOM     33  C   UNL     1      -0.595  16.455  23.326  0.00  0.00    +0.000 A 
ATOM     34  C   UNL     1      -1.718  15.915  23.949  0.00  0.00    +0.000 A 
ATOM     35  C   UNL     1      -1.966  14.548  23.848  0.00  0.00    +0.000 A 
ATOM     36  F   UNL     1      -3.041  14.045  24.473  0.00  0.00    +0.000 F 
ENDBRANCH  29  30
ENDBRANCH  10  29
TORSDOF 6
ENDMDL
MODEL 8
REMARK VINA RESULT:      -6.3      0.982      1.248
REMARK  Name = 
REMARK  7 active torsions:
REMARK  status: ('A' for Active; 'I' for Inactive)
REMARK    1  A    between atoms: C_1  and  C_2
REMARK    2  A    between atoms: C_8  and  C_9
REMARK    3  A    between atoms: C_16  and  C_17
REMARK    4  A    between atoms: N_19  and  S_20
REMARK    5  A    between atoms: S_20  and  C_23
REMARK    6  A    between atoms: N_26  and  C_27
REMARK    7  A    between atoms: C_27  and  C_28
REMARK                            x       y       z     vdW  Elec       q    Type
REMARK                         _______ _______ _______ _____ _____    ______ ____
ROOT
ATOM      1  C   UNL     1      -5.459  10.992  17.552  0.00  0.00    +0.000 C 
ATOM      2  C   UNL     1      -4.005  11.001  17.925  0.00  0.00    +0.000 A 
ATOM      3  C   UNL     1      -3.152   9.964  17.536  0.00  0.00    +0.000 A 
ATOM      4  C   UNL     1      -1.792   9.973  17.871  0.00  0.00    +0.000 A 
ATOM      5  C   UNL     1      -1.290  11.057  18.610  0.00  0.00    +0.000 A 
ATOM      6  C   UNL     1      -2.124  12.080  19.053  0.00  0.00    +0.000 A 
ATOM      7  C   UNL     1      -3.494  12.050  18.702  0.00  0.00    +0.000 A 
ATOM      8  C   UNL     1      -1.329  12.956  19.842  0.00  0.00    +0.000 A 
ATOM      9  C   UNL     1      -0.010  12.508  19.845  0.00  0.00    +0.000 A 
ATOM     10  N   UNL     1      -0.004  11.370  19.027  0.00  0.00    +0.000 N 
ENDROOT
BRANCH   8  11
ATOM     11  C   UNL     1      -1.855  14.069  20.572  0.00  0.00    +0.000 A 
ATOM     12  C   UNL     1      -1.707  15.344  20.173  0.00  0.00    +0.000 A 
ATOM     13  C   UNL     1      -2.204  16.449  20.960  0.00  0.00    +0.000 A 
ATOM     14  C   UNL     1      -2.846  16.210  22.108  0.00  0.00    +0.000 A 
ATOM     15  N   UNL     1      -3.038  14.926  22.536  0.00  0.00    +0.000 N 
ATOM     16  C   UNL     1      -2.601  13.813  21.857  0.00  0.00    +0.000 A 
ATOM     17  O   UNL     1      -2.873  12.681  22.240  0.00  0.00    +0.000 OA
ATOM     18  H   UNL     1      -3.557  14.745  23.389  0.00  0.00    +0.000 HD
ENDBRANCH   8  11
BRANCH   9  19
ATOM     19  C   UNL     1       1.157  12.997  20.560  0.00  0.00    +0.000 C 
ATOM     20  O   UNL     1       1.578  12.466  21.574  0.00  0.00    +0.000 OA
ATOM     21  N   UNL     1       1.789  14.108  20.007  0.00  0.00    +0.000 N 
ATOM     22  H   UNL     1       1.601  14.424  19.063  0.00  0.00    +0.000 HD
BRANCH  21  23
ATOM     23  S   UNL     1       3.053  14.913  20.735  0.00  0.00    +0.000 S 
ATOM     24  O   UNL     1       2.453  15.734  21.759  0.00  0.00    +0.000 OA
ATOM     25  O   UNL     1       4.061  13.930  21.074  0.00  0.00    +0.000 OA
BRANCH  23  26
ATOM     26  C   UNL     1       3.792  16.008  19.493  0.00  0.00    +0.000 C 
ATOM     27  C   UNL     1       4.347  17.273  20.103  0.00  0.00    +0.000 C 
ATOM     28  C   UNL     1       5.275  16.235  19.537  0.00  0.00    +0.000 C 
ENDBRANCH  23  26
ENDBRANCH  21  23
ENDBRANCH   9  19
BRANCH  10  29
ATOM     29  C   UNL     1       1.199  10.672  18.542  0.00  0.00    +0.000 C 
BRANCH  29  30
ATOM     30  C   UNL     1       1.436   9.297  19.115  0.00  0.00    +0.000 A 
ATOM     31  C   UNL     1       1.111   8.923  20.425  0.00  0.00    +0.000 A 
ATOM     32  C   UNL     1       1.523   7.687  20.933  0.00  0.00    +0.000 A 
ATOM     33  C   UNL     1       2.230   6.791  20.132  0.00  0.00    +0.000 A 
ATOM     34  C   UNL     1       2.491   7.114  18.803  0.00  0.00    +0.000 A 
ATOM     35  C   UNL     1       2.091   8.355  18.309  0.00  0.00    +0.000 A 
ATOM     36  F   UNL     1       2.371   8.655  17.031  0.00  0.00    +0.000 F 
ENDBRANCH  29  30
ENDBRANCH  10  29
TORSDOF 6
ENDMDL
MODEL 9
REMARK VINA RESULT:      -6.2      3.251      6.213
REMARK  Name = 
REMARK  7 active torsions:
REMARK  status: ('A' for Active; 'I' for Inactive)
REMARK    1  A    between atoms: C_1  and  C_2
REMARK    2  A    between atoms: C_8  and  C_9
REMARK    3  A    between atoms: C_16  and  C_17
REMARK    4  A    between atoms: N_19  and  S_20
REMARK    5  A    between atoms: S_20  and  C_23
REMARK    6  A    between atoms: N_26  and  C_27
REMARK    7  A    between atoms: C_27  and  C_28
REMARK                            x       y       z     vdW  Elec       q    Type
REMARK                         _______ _______ _______ _____ _____    ______ ____
ROOT
ATOM      1  C   UNL     1      -3.743  10.420  14.992  0.00  0.00    +0.000 C 
ATOM      2  C   UNL     1      -3.725  10.978  16.386  0.00  0.00    +0.000 A 
ATOM      3  C   UNL     1      -4.912  11.255  17.069  0.00  0.00    +0.000 A 
ATOM      4  C   UNL     1      -4.903  11.765  18.374  0.00  0.00    +0.000 A 
ATOM      5  C   UNL     1      -3.663  11.992  18.996  0.00  0.00    +0.000 A 
ATOM      6  C   UNL     1      -2.464  11.772  18.324  0.00  0.00    +0.000 A 
ATOM      7  C   UNL     1      -2.499  11.256  17.007  0.00  0.00    +0.000 A 
ATOM      8  C   UNL     1      -1.416  12.187  19.191  0.00  0.00    +0.000 A 
ATOM      9  C   UNL     1      -1.958  12.610  20.402  0.00  0.00    +0.000 A 
ATOM     10  N   UNL     1      -3.341  12.422  20.275  0.00  0.00    +0.000 N 
ENDROOT
BRANCH   8  11
ATOM     11  C   UNL     1      -0.036  12.225  18.812  0.00  0.00    +0.000 A 
ATOM     12  C   UNL     1       0.709  11.119  18.645  0.00  0.00    +0.000 A 
ATOM     13  C   UNL     1       2.113  11.193  18.314  0.00  0.00    +0.000 A 
ATOM     14  C   UNL     1       2.694  12.385  18.146  0.00  0.00    +0.000 A 
ATOM     15  N   UNL     1       1.964  13.533  18.284  0.00  0.00    +0.000 N 
ATOM     16  C   UNL     1       0.626  13.562  18.598  0.00  0.00    +0.000 A 
ATOM     17  O   UNL     1      -0.003  14.615  18.626  0.00  0.00    +0.000 OA
ATOM     18  H   UNL     1       2.397  14.436  18.122  0.00  0.00    +0.000 HD
ENDBRANCH   8  11
BRANCH   9  19
ATOM     19  C   UNL     1      -1.325  13.199  21.571  0.00  0.00    +0.000 C 
ATOM     20  O   UNL     1      -0.808  12.528  22.448  0.00  0.00    +0.000 OA
ATOM     21  N   UNL     1      -1.324  14.590  21.627  0.00  0.00    +0.000 N 
ATOM     22  H   UNL     1      -1.540  15.165  20.820  0.00  0.00    +0.000 HD
BRANCH  21  23
ATOM     23  S   UNL     1      -0.781  15.465  22.937  0.00  0.00    +0.000 S 
ATOM     24  O   UNL     1      -1.553  15.000  24.063  0.00  0.00    +0.000 OA
ATOM     25  O   UNL     1       0.665  15.381  22.949  0.00  0.00    +0.000 OA
BRANCH  23  26
ATOM     26  C   UNL     1      -1.199  17.206  22.644  0.00  0.00    +0.000 C 
ATOM     27  C   UNL     1      -1.670  17.450  21.230  0.00  0.00    +0.000 C 
ATOM     28  C   UNL     1      -2.633  17.557  22.380  0.00  0.00    +0.000 C 
ENDBRANCH  23  26
ENDBRANCH  21  23
ENDBRANCH   9  19
BRANCH  10  29
ATOM     29  C   UNL     1      -4.320  12.516  21.371  0.00  0.00    +0.000 C 
BRANCH  29  30
ATOM     30  C   UNL     1      -5.325  13.635  21.259  0.00  0.00    +0.000 A 
ATOM     31  C   UNL     1      -4.986  14.987  21.117  0.00  0.00    +0.000 A 
ATOM     32  C   UNL     1      -5.971  15.978  21.197  0.00  0.00    +0.000 A 
ATOM     33  C   UNL     1      -7.310  15.634  21.380  0.00  0.00    +0.000 A 
ATOM     34  C   UNL     1      -7.673  14.291  21.441  0.00  0.00    +0.000 A 
ATOM     35  C   UNL     1      -6.685  13.310  21.377  0.00  0.00    +0.000 A 
ATOM     36  F   UNL     1      -7.054  12.023  21.459  0.00  0.00    +0.000 F 
ENDBRANCH  29  30
ENDBRANCH  10  29
TORSDOF 6
ENDMDL
