MODEL 1
REMARK VINA RESULT:      -8.3      0.000      0.000
REMARK  Name = 
REMARK  4 active torsions:
REMARK  status: ('A' for Active; 'I' for Inactive)
REMARK    1  A    between atoms: N_4  and  C_5
REMARK    2  A    between atoms: C_5  and  C_6
REMARK    3  A    between atoms: C_11  and  N_12
REMARK    4  A    between atoms: N_19  and  C_20
REMARK                            x       y       z     vdW  Elec       q    Type
REMARK                         _______ _______ _______ _____ _____    ______ ____
ROOT
ATOM      1  C   UNL     1       3.090   6.350  18.086  0.00  0.00    +0.000 A 
ATOM      2  N   UNL     1       2.818   7.623  18.061  0.00  0.00    +0.000 NA
ATOM      3  C   UNL     1       2.089   8.187  19.113  0.00  0.00    +0.000 A 
ATOM      4  C   UNL     1       1.799   9.555  19.083  0.00  0.00    +0.000 A 
ATOM      5  C   UNL     1       1.105  10.171  20.131  0.00  0.00    +0.000 A 
ATOM      6  C   UNL     1       0.688   9.401  21.227  0.00  0.00    +0.000 A 
ATOM      7  C   UNL     1       0.958   8.030  21.272  0.00  0.00    +0.000 A 
ATOM      8  C   UNL     1       1.657   7.442  20.208  0.00  0.00    +0.000 A 
ATOM      9  C   UNL     1       1.987   6.011  20.232  0.00  0.00    +0.000 A 
ATOM     10  O   UNL     1       1.687   5.363  21.234  0.00  0.00    +0.000 OA
ATOM     11  N   UNL     1       2.693   5.516  19.132  0.00  0.00    +0.000 N 
ENDROOT
BRANCH  11  12
ATOM     12  C   UNL     1       2.977   4.120  19.156  0.00  0.00    +0.000 A 
ATOM     13  C   UNL     1       4.097   3.613  19.833  0.00  0.00    +0.000 A 
ATOM     14  C   UNL     1       4.384   2.246  19.785  0.00  0.00    +0.000 A 
ATOM     15  C   UNL     1       3.539   1.375  19.093  0.00  0.00    +0.000 A 
ATOM     16  C   UNL     1       2.396   1.866  18.462  0.00  0.00    +0.000 A 
ATOM     17  C   UNL     1       2.120   3.227  18.502  0.00  0.00    +0.000 A 
ATOM     18  F   UNL     1       1.044   3.689  17.846  0.00  0.00    +0.000 F 
ENDBRANCH  11  12
BRANCH   6  19
ATOM     19  N   UNL     1      -0.029  10.041  22.340  0.00  0.00    +0.000 N 
ATOM     20  O   UNL     1       0.340   9.777  23.491  0.00  0.00    +0.000 OA
ATOM     21  O   UNL     1      -0.954  10.814  22.055  0.00  0.00    +0.000 OA
ENDBRANCH   6  19
BRANCH   1  22
ATOM     22  C   UNL     1       3.927   5.762  16.928  0.00  0.00    +0.000 C 
BRANCH  22  26
ATOM     23  O   UNL     1       6.952   4.380  14.147  0.00  0.00    +0.000 OA
ATOM     24  C   UNL     1       6.539   4.840  15.212  0.00  0.00    +0.000 C 
ATOM     25  C   UNL     1       5.744   6.156  15.276  0.00  0.00    +0.000 C 
ATOM     26  N   UNL     1       5.169   6.497  16.603  0.00  0.00    +0.000 NA
ATOM     27  C   UNL     1       6.196   6.228  17.637  0.00  0.00    +0.000 C 
ATOM     28  C   UNL     1       6.625   4.751  17.691  0.00  0.00    +0.000 C 
ATOM     29  N   UNL     1       6.847   4.192  16.377  0.00  0.00    +0.000 N 
ATOM     30  H   UNL     1       7.363   3.328  16.266  0.00  0.00    +0.000 HD
ENDBRANCH  22  26
ENDBRANCH   1  22
TORSDOF 4
ENDMDL
MODEL 2
REMARK VINA RESULT:      -7.9      1.481      1.834
REMARK  Name = 
REMARK  4 active torsions:
REMARK  status: ('A' for Active; 'I' for Inactive)
REMARK    1  A    between atoms: N_4  and  C_5
REMARK    2  A    between atoms: C_5  and  C_6
REMARK    3  A    between atoms: C_11  and  N_12
REMARK    4  A    between atoms: N_19  and  C_20
REMARK                            x       y       z     vdW  Elec       q    Type
REMARK                         _______ _______ _______ _____ _____    ______ ____
ROOT
ATOM      1  C   UNL     1       3.369   6.393  17.771  0.00  0.00    +0.000 A 
ATOM      2  N   UNL     1       3.285   7.662  17.491  0.00  0.00    +0.000 NA
ATOM      3  C   UNL     1       2.492   8.489  18.293  0.00  0.00    +0.000 A 
ATOM      4  C   UNL     1       2.405   9.851  17.988  0.00  0.00    +0.000 A 
ATOM      5  C   UNL     1       1.654  10.724  18.785  0.00  0.00    +0.000 A 
ATOM      6  C   UNL     1       0.973  10.221  19.904  0.00  0.00    +0.000 A 
ATOM      7  C   UNL     1       1.038   8.861  20.220  0.00  0.00    +0.000 A 
ATOM      8  C   UNL     1       1.800   8.012  19.404  0.00  0.00    +0.000 A 
ATOM      9  C   UNL     1       1.919   6.583  19.720  0.00  0.00    +0.000 A 
ATOM     10  O   UNL     1       1.383   6.169  20.748  0.00  0.00    +0.000 OA
ATOM     11  N   UNL     1       2.706   5.817  18.855  0.00  0.00    +0.000 N 
ENDROOT
BRANCH  11  12
ATOM     12  C   UNL     1       2.784   4.426  19.158  0.00  0.00    +0.000 A 
ATOM     13  C   UNL     1       3.715   3.931  20.084  0.00  0.00    +0.000 A 
ATOM     14  C   UNL     1       3.810   2.556  20.312  0.00  0.00    +0.000 A 
ATOM     15  C   UNL     1       2.957   1.673  19.646  0.00  0.00    +0.000 A 
ATOM     16  C   UNL     1       1.996   2.164  18.762  0.00  0.00    +0.000 A 
ATOM     17  C   UNL     1       1.911   3.531  18.529  0.00  0.00    +0.000 A 
ATOM     18  F   UNL     1       1.015   3.981  17.637  0.00  0.00    +0.000 F 
ENDBRANCH  11  12
BRANCH   6  19
ATOM     19  N   UNL     1       0.193  11.132  20.756  0.00  0.00    +0.000 N 
ATOM     20  O   UNL     1      -1.040  11.046  20.714  0.00  0.00    +0.000 OA
ATOM     21  O   UNL     1       0.822  11.924  21.472  0.00  0.00    +0.000 OA
ENDBRANCH   6  19
BRANCH   1  22
ATOM     22  C   UNL     1       4.279   5.511  16.888  0.00  0.00    +0.000 C 
BRANCH  22  26
ATOM     23  O   UNL     1       7.945   7.596  17.897  0.00  0.00    +0.000 OA
ATOM     24  C   UNL     1       7.276   6.670  17.437  0.00  0.00    +0.000 C 
ATOM     25  C   UNL     1       6.292   5.867  18.306  0.00  0.00    +0.000 C 
ATOM     26  N   UNL     1       5.434   4.896  17.579  0.00  0.00    +0.000 NA
ATOM     27  C   UNL     1       6.279   4.174  16.598  0.00  0.00    +0.000 C 
ATOM     28  C   UNL     1       6.910   5.104  15.546  0.00  0.00    +0.000 C 
ATOM     29  N   UNL     1       7.456   6.309  16.129  0.00  0.00    +0.000 N 
ATOM     30  H   UNL     1       8.109   6.882  15.610  0.00  0.00    +0.000 HD
ENDBRANCH  22  26
ENDBRANCH   1  22
TORSDOF 4
ENDMDL
MODEL 3
REMARK VINA RESULT:      -7.9      2.448      4.687
REMARK  Name = 
REMARK  4 active torsions:
REMARK  status: ('A' for Active; 'I' for Inactive)
REMARK    1  A    between atoms: N_4  and  C_5
REMARK    2  A    between atoms: C_5  and  C_6
REMARK    3  A    between atoms: C_11  and  N_12
REMARK    4  A    between atoms: N_19  and  C_20
REMARK                            x       y       z     vdW  Elec       q    Type
REMARK                         _______ _______ _______ _____ _____    ______ ____
ROOT
ATOM      1  C   UNL     1       3.951   5.574  19.089  0.00  0.00    +0.000 A 
ATOM      2  N   UNL     1       3.117   6.063  19.961  0.00  0.00    +0.000 NA
ATOM      3  C   UNL     1       2.423   7.239  19.658  0.00  0.00    +0.000 A 
ATOM      4  C   UNL     1       1.528   7.762  20.598  0.00  0.00    +0.000 A 
ATOM      5  C   UNL     1       0.784   8.916  20.324  0.00  0.00    +0.000 A 
ATOM      6  C   UNL     1       0.944   9.561  19.089  0.00  0.00    +0.000 A 
ATOM      7  C   UNL     1       1.842   9.062  18.141  0.00  0.00    +0.000 A 
ATOM      8  C   UNL     1       2.572   7.903  18.443  0.00  0.00    +0.000 A 
ATOM      9  C   UNL     1       3.501   7.330  17.462  0.00  0.00    +0.000 A 
ATOM     10  O   UNL     1       3.574   7.858  16.352  0.00  0.00    +0.000 OA
ATOM     11  N   UNL     1       4.177   6.170  17.848  0.00  0.00    +0.000 N 
ENDROOT
BRANCH  11  12
ATOM     12  C   UNL     1       5.099   5.644  16.896  0.00  0.00    +0.000 A 
ATOM     13  C   UNL     1       4.691   4.738  15.907  0.00  0.00    +0.000 A 
ATOM     14  C   UNL     1       5.630   4.192  15.027  0.00  0.00    +0.000 A 
ATOM     15  C   UNL     1       6.972   4.572  15.109  0.00  0.00    +0.000 A 
ATOM     16  C   UNL     1       7.374   5.512  16.058  0.00  0.00    +0.000 A 
ATOM     17  C   UNL     1       6.440   6.044  16.938  0.00  0.00    +0.000 A 
ATOM     18  F   UNL     1       6.855   6.909  17.877  0.00  0.00    +0.000 F 
ENDBRANCH  11  12
BRANCH   6  19
ATOM     19  N   UNL     1       0.157  10.766  18.786  0.00  0.00    +0.000 N 
ATOM     20  O   UNL     1      -0.969  10.611  18.297  0.00  0.00    +0.000 OA
ATOM     21  O   UNL     1       0.666  11.864  19.051  0.00  0.00    +0.000 OA
ENDBRANCH   6  19
BRANCH   1  22
ATOM     22  C   UNL     1       4.676   4.255  19.436  0.00  0.00    +0.000 C 
BRANCH  22  26
ATOM     23  O   UNL     1       0.428   3.416  19.664  0.00  0.00    +0.000 OA
ATOM     24  C   UNL     1       1.626   3.162  19.793  0.00  0.00    +0.000 C 
ATOM     25  C   UNL     1       2.594   3.182  18.597  0.00  0.00    +0.000 C 
ATOM     26  N   UNL     1       4.033   3.022  18.930  0.00  0.00    +0.000 NA
ATOM     27  C   UNL     1       4.158   1.941  19.937  0.00  0.00    +0.000 C 
ATOM     28  C   UNL     1       3.417   2.252  21.250  0.00  0.00    +0.000 C 
ATOM     29  N   UNL     1       2.097   2.795  21.024  0.00  0.00    +0.000 N 
ATOM     30  H   UNL     1       1.412   2.812  21.770  0.00  0.00    +0.000 HD
ENDBRANCH  22  26
ENDBRANCH   1  22
TORSDOF 4
ENDMDL
MODEL 4
REMARK VINA RESULT:      -7.8      1.299      1.585
REMARK  Name = 
REMARK  4 active torsions:
REMARK  status: ('A' for Active; 'I' for Inactive)
REMARK    1  A    between atoms: N_4  and  C_5
REMARK    2  A    between atoms: C_5  and  C_6
REMARK    3  A    between atoms: C_11  and  N_12
REMARK    4  A    between atoms: N_19  and  C_20
REMARK                            x       y       z     vdW  Elec       q    Type
REMARK                         _______ _______ _______ _____ _____    ______ ____
ROOT
ATOM      1  C   UNL     1       3.036   6.807  18.074  0.00  0.00    +0.000 A 
ATOM      2  N   UNL     1       3.061   8.057  17.713  0.00  0.00    +0.000 NA
ATOM      3  C   UNL     1       2.289   8.988  18.417  0.00  0.00    +0.000 A 
ATOM      4  C   UNL     1       2.318  10.330  18.026  0.00  0.00    +0.000 A 
ATOM      5  C   UNL     1       1.591  11.303  18.723  0.00  0.00    +0.000 A 
ATOM      6  C   UNL     1       0.816  10.922  19.828  0.00  0.00    +0.000 A 
ATOM      7  C   UNL     1       0.763   9.584  20.229  0.00  0.00    +0.000 A 
ATOM      8  C   UNL     1       1.504   8.632  19.512  0.00  0.00    +0.000 A 
ATOM      9  C   UNL     1       1.500   7.222  19.919  0.00  0.00    +0.000 A 
ATOM     10  O   UNL     1       0.881   6.913  20.937  0.00  0.00    +0.000 OA
ATOM     11  N   UNL     1       2.275   6.349  19.150  0.00  0.00    +0.000 N 
ENDROOT
BRANCH  11  12
ATOM     12  C   UNL     1       2.235   4.979  19.540  0.00  0.00    +0.000 A 
ATOM     13  C   UNL     1       2.863   4.534  20.713  0.00  0.00    +0.000 A 
ATOM     14  C   UNL     1       2.859   3.174  21.035  0.00  0.00    +0.000 A 
ATOM     15  C   UNL     1       2.203   2.258  20.209  0.00  0.00    +0.000 A 
ATOM     16  C   UNL     1       1.533   2.702  19.069  0.00  0.00    +0.000 A 
ATOM     17  C   UNL     1       1.548   4.053  18.745  0.00  0.00    +0.000 A 
ATOM     18  F   UNL     1       0.941   4.455  17.618  0.00  0.00    +0.000 F 
ENDBRANCH  11  12
BRANCH   6  19
ATOM     19  N   UNL     1       0.060  11.938  20.576  0.00  0.00    +0.000 N 
ATOM     20  O   UNL     1      -0.807  12.577  19.967  0.00  0.00    +0.000 OA
ATOM     21  O   UNL     1       0.331  12.083  21.777  0.00  0.00    +0.000 OA
ENDBRANCH   6  19
BRANCH   1  22
ATOM     22  C   UNL     1       3.926   5.809  17.301  0.00  0.00    +0.000 C 
BRANCH  22  26
ATOM     23  O   UNL     1       6.417   3.726  14.428  0.00  0.00    +0.000 OA
ATOM     24  C   UNL     1       6.197   4.418  15.422  0.00  0.00    +0.000 C 
ATOM     25  C   UNL     1       5.444   5.757  15.330  0.00  0.00    +0.000 C 
ATOM     26  N   UNL     1       5.106   6.396  16.629  0.00  0.00    +0.000 NA
ATOM     27  C   UNL     1       6.289   6.298  17.516  0.00  0.00    +0.000 C 
ATOM     28  C   UNL     1       6.699   4.845  17.815  0.00  0.00    +0.000 C 
ATOM     29  N   UNL     1       6.688   4.013  16.634  0.00  0.00    +0.000 N 
ATOM     30  H   UNL     1       7.165   3.119  16.628  0.00  0.00    +0.000 HD
ENDBRANCH  22  26
ENDBRANCH   1  22
TORSDOF 4
ENDMDL
MODEL 5
REMARK VINA RESULT:      -7.8      0.995      1.275
REMARK  Name = 
REMARK  4 active torsions:
REMARK  status: ('A' for Active; 'I' for Inactive)
REMARK    1  A    between atoms: N_4  and  C_5
REMARK    2  A    between atoms: C_5  and  C_6
REMARK    3  A    between atoms: C_11  and  N_12
REMARK    4  A    between atoms: N_19  and  C_20
REMARK                            x       y       z     vdW  Elec       q    Type
REMARK                         _______ _______ _______ _____ _____    ______ ____
ROOT
ATOM      1  C   UNL     1       2.949   6.562  18.179  0.00  0.00    +0.000 A 
ATOM      2  N   UNL     1       2.696   7.839  18.200  0.00  0.00    +0.000 NA
ATOM      3  C   UNL     1       1.957   8.372  19.262  0.00  0.00    +0.000 A 
ATOM      4  C   UNL     1       1.687   9.745  19.281  0.00  0.00    +0.000 A 
ATOM      5  C   UNL     1       0.983  10.328  20.341  0.00  0.00    +0.000 A 
ATOM      6  C   UNL     1       0.538   9.522  21.399  0.00  0.00    +0.000 A 
ATOM      7  C   UNL     1       0.787   8.146  21.394  0.00  0.00    +0.000 A 
ATOM      8  C   UNL     1       1.496   7.591  20.319  0.00  0.00    +0.000 A 
ATOM      9  C   UNL     1       1.806   6.156  20.291  0.00  0.00    +0.000 A 
ATOM     10  O   UNL     1       1.480   5.472  21.262  0.00  0.00    +0.000 OA
ATOM     11  N   UNL     1       2.523   5.694  19.184  0.00  0.00    +0.000 N 
ENDROOT
BRANCH  11  12
ATOM     12  C   UNL     1       2.788   4.294  19.158  0.00  0.00    +0.000 A 
ATOM     13  C   UNL     1       3.837   3.734  19.902  0.00  0.00    +0.000 A 
ATOM     14  C   UNL     1       4.111   2.367  19.806  0.00  0.00    +0.000 A 
ATOM     15  C   UNL     1       3.320   1.548  18.997  0.00  0.00    +0.000 A 
ATOM     16  C   UNL     1       2.243   2.090  18.295  0.00  0.00    +0.000 A 
ATOM     17  C   UNL     1       1.981   3.452  18.384  0.00  0.00    +0.000 A 
ATOM     18  F   UNL     1       0.973   3.965  17.662  0.00  0.00    +0.000 F 
ENDBRANCH  11  12
BRANCH   6  19
ATOM     19  N   UNL     1      -0.190  10.128  22.525  0.00  0.00    +0.000 N 
ATOM     20  O   UNL     1       0.154   9.812  23.670  0.00  0.00    +0.000 OA
ATOM     21  O   UNL     1      -1.096  10.928  22.255  0.00  0.00    +0.000 OA
ENDBRANCH   6  19
BRANCH   1  22
ATOM     22  C   UNL     1       3.797   6.009  17.013  0.00  0.00    +0.000 C 
BRANCH  22  26
ATOM     23  O   UNL     1       7.974   7.056  16.506  0.00  0.00    +0.000 OA
ATOM     24  C   UNL     1       6.988   6.323  16.426  0.00  0.00    +0.000 C 
ATOM     25  C   UNL     1       6.193   5.890  17.671  0.00  0.00    +0.000 C 
ATOM     26  N   UNL     1       4.935   5.147  17.405  0.00  0.00    +0.000 NA
ATOM     27  C   UNL     1       5.200   4.151  16.339  0.00  0.00    +0.000 C 
ATOM     28  C   UNL     1       5.641   4.792  15.011  0.00  0.00    +0.000 C 
ATOM     29  N   UNL     1       6.624   5.835  15.201  0.00  0.00    +0.000 N 
ATOM     30  H   UNL     1       7.180   6.166  14.422  0.00  0.00    +0.000 HD
ENDBRANCH  22  26
ENDBRANCH   1  22
TORSDOF 4
ENDMDL
MODEL 6
REMARK VINA RESULT:      -7.7      0.908      1.272
REMARK  Name = 
REMARK  4 active torsions:
REMARK  status: ('A' for Active; 'I' for Inactive)
REMARK    1  A    between atoms: N_4  and  C_5
REMARK    2  A    between atoms: C_5  and  C_6
REMARK    3  A    between atoms: C_11  and  N_12
REMARK    4  A    between atoms: N_19  and  C_20
REMARK                            x       y       z     vdW  Elec       q    Type
REMARK                         _______ _______ _______ _____ _____    ______ ____
ROOT
ATOM      1  C   UNL     1       3.124   6.356  18.001  0.00  0.00    +0.000 A 
ATOM      2  N   UNL     1       2.851   7.628  17.966  0.00  0.00    +0.000 NA
ATOM      3  C   UNL     1       2.123   8.202  19.014  0.00  0.00    +0.000 A 
ATOM      4  C   UNL     1       1.833   9.569  18.971  0.00  0.00    +0.000 A 
ATOM      5  C   UNL     1       1.139  10.193  20.015  0.00  0.00    +0.000 A 
ATOM      6  C   UNL     1       0.725   9.433  21.119  0.00  0.00    +0.000 A 
ATOM      7  C   UNL     1       0.995   8.062  21.175  0.00  0.00    +0.000 A 
ATOM      8  C   UNL     1       1.693   7.465  20.115  0.00  0.00    +0.000 A 
ATOM      9  C   UNL     1       2.024   6.035  20.151  0.00  0.00    +0.000 A 
ATOM     10  O   UNL     1       1.726   5.395  21.160  0.00  0.00    +0.000 OA
ATOM     11  N   UNL     1       2.729   5.531  19.055  0.00  0.00    +0.000 N 
ENDROOT
BRANCH  11  12
ATOM     12  C   UNL     1       3.014   4.135  19.091  0.00  0.00    +0.000 A 
ATOM     13  C   UNL     1       2.087   3.187  18.633  0.00  0.00    +0.000 A 
ATOM     14  C   UNL     1       2.370   1.823  18.740  0.00  0.00    +0.000 A 
ATOM     15  C   UNL     1       3.591   1.399  19.270  0.00  0.00    +0.000 A 
ATOM     16  C   UNL     1       4.538   2.338  19.679  0.00  0.00    +0.000 A 
ATOM     17  C   UNL     1       4.248   3.693  19.582  0.00  0.00    +0.000 A 
ATOM     18  F   UNL     1       5.151   4.581  20.027  0.00  0.00    +0.000 F 
ENDBRANCH  11  12
BRANCH   6  19
ATOM     19  N   UNL     1       0.008  10.082  22.227  0.00  0.00    +0.000 N 
ATOM     20  O   UNL     1       0.384   9.834  23.380  0.00  0.00    +0.000 OA
ATOM     21  O   UNL     1      -0.921  10.847  21.937  0.00  0.00    +0.000 OA
ENDBRANCH   6  19
BRANCH   1  22
ATOM     22  C   UNL     1       3.959   5.758  16.847  0.00  0.00    +0.000 C 
BRANCH  22  26
ATOM     23  O   UNL     1       6.827   4.559  13.825  0.00  0.00    +0.000 OA
ATOM     24  C   UNL     1       6.474   5.023  14.910  0.00  0.00    +0.000 C 
ATOM     25  C   UNL     1       5.558   6.255  15.007  0.00  0.00    +0.000 C 
ATOM     26  N   UNL     1       5.082   6.597  16.373  0.00  0.00    +0.000 NA
ATOM     27  C   UNL     1       6.227   6.478  17.307  0.00  0.00    +0.000 C 
ATOM     28  C   UNL     1       6.809   5.055  17.369  0.00  0.00    +0.000 C 
ATOM     29  N   UNL     1       6.959   4.462  16.059  0.00  0.00    +0.000 N 
ATOM     30  H   UNL     1       7.548   3.649  15.927  0.00  0.00    +0.000 HD
ENDBRANCH  22  26
ENDBRANCH   1  22
TORSDOF 4
ENDMDL
MODEL 7
REMARK VINA RESULT:      -7.7      1.318      1.729
REMARK  Name = 
REMARK  4 active torsions:
REMARK  status: ('A' for Active; 'I' for Inactive)
REMARK    1  A    between atoms: N_4  and  C_5
REMARK    2  A    between atoms: C_5  and  C_6
REMARK    3  A    between atoms: C_11  and  N_12
REMARK    4  A    between atoms: N_19  and  C_20
REMARK                            x       y       z     vdW  Elec       q    Type
REMARK                         _______ _______ _______ _____ _____    ______ ____
ROOT
ATOM      1  C   UNL     1       3.232   6.494  17.804  0.00  0.00    +0.000 A 
ATOM      2  N   UNL     1       3.074   7.742  17.471  0.00  0.00    +0.000 NA
ATOM      3  C   UNL     1       2.310   8.579  18.291  0.00  0.00    +0.000 A 
ATOM      4  C   UNL     1       2.143   9.919  17.929  0.00  0.00    +0.000 A 
ATOM      5  C   UNL     1       1.418  10.802  18.739  0.00  0.00    +0.000 A 
ATOM      6  C   UNL     1       0.845  10.331  19.930  0.00  0.00    +0.000 A 
ATOM      7  C   UNL     1       0.991   8.992  20.304  0.00  0.00    +0.000 A 
ATOM      8  C   UNL     1       1.724   8.132  19.474  0.00  0.00    +0.000 A 
ATOM      9  C   UNL     1       1.926   6.727  19.847  0.00  0.00    +0.000 A 
ATOM     10  O   UNL     1       1.488   6.346  20.932  0.00  0.00    +0.000 OA
ATOM     11  N   UNL     1       2.677   5.949  18.962  0.00  0.00    +0.000 N 
ENDROOT
BRANCH  11  12
ATOM     12  C   UNL     1       2.837   4.579  19.324  0.00  0.00    +0.000 A 
ATOM     13  C   UNL     1       1.784   3.662  19.194  0.00  0.00    +0.000 A 
ATOM     14  C   UNL     1       1.952   2.340  19.616  0.00  0.00    +0.000 A 
ATOM     15  C   UNL     1       3.179   1.920  20.136  0.00  0.00    +0.000 A 
ATOM     16  C   UNL     1       4.245   2.815  20.220  0.00  0.00    +0.000 A 
ATOM     17  C   UNL     1       4.071   4.132  19.810  0.00  0.00    +0.000 A 
ATOM     18  F   UNL     1       5.092   4.992  19.946  0.00  0.00    +0.000 F 
ENDBRANCH  11  12
BRANCH   6  19
ATOM     19  N   UNL     1       0.094  11.254  20.795  0.00  0.00    +0.000 N 
ATOM     20  O   UNL     1      -0.985  11.688  20.374  0.00  0.00    +0.000 OA
ATOM     21  O   UNL     1       0.585  11.530  21.898  0.00  0.00    +0.000 OA
ENDBRANCH   6  19
BRANCH   1  22
ATOM     22  C   UNL     1       4.110   5.604  16.897  0.00  0.00    +0.000 C 
BRANCH  22  26
ATOM     23  O   UNL     1       6.608   3.846  13.819  0.00  0.00    +0.000 OA
ATOM     24  C   UNL     1       6.386   4.450  14.870  0.00  0.00    +0.000 C 
ATOM     25  C   UNL     1       5.584   5.763  14.899  0.00  0.00    +0.000 C 
ATOM     26  N   UNL     1       5.253   6.285  16.250  0.00  0.00    +0.000 NA
ATOM     27  C   UNL     1       6.459   6.161  17.103  0.00  0.00    +0.000 C 
ATOM     28  C   UNL     1       6.926   4.705  17.279  0.00  0.00    +0.000 C 
ATOM     29  N   UNL     1       6.918   3.969  16.035  0.00  0.00    +0.000 N 
ATOM     30  H   UNL     1       7.426   3.097  15.949  0.00  0.00    +0.000 HD
ENDBRANCH  22  26
ENDBRANCH   1  22
TORSDOF 4
ENDMDL
MODEL 8
REMARK VINA RESULT:      -7.7      2.671      4.522
REMARK  Name = 
REMARK  4 active torsions:
REMARK  status: ('A' for Active; 'I' for Inactive)
REMARK    1  A    between atoms: N_4  and  C_5
REMARK    2  A    between atoms: C_5  and  C_6
REMARK    3  A    between atoms: C_11  and  N_12
REMARK    4  A    between atoms: N_19  and  C_20
REMARK                            x       y       z     vdW  Elec       q    Type
REMARK                         _______ _______ _______ _____ _____    ______ ____
ROOT
ATOM      1  C   UNL     1       3.722   5.576  19.141  0.00  0.00    +0.000 A 
ATOM      2  N   UNL     1       2.894   6.075  20.013  0.00  0.00    +0.000 NA
ATOM      3  C   UNL     1       2.259   7.290  19.736  0.00  0.00    +0.000 A 
ATOM      4  C   UNL     1       1.370   7.822  20.675  0.00  0.00    +0.000 A 
ATOM      5  C   UNL     1       0.684   9.017  20.425  0.00  0.00    +0.000 A 
ATOM      6  C   UNL     1       0.897   9.693  19.214  0.00  0.00    +0.000 A 
ATOM      7  C   UNL     1       1.790   9.183  18.267  0.00  0.00    +0.000 A 
ATOM      8  C   UNL     1       2.461   7.984  18.545  0.00  0.00    +0.000 A 
ATOM      9  C   UNL     1       3.384   7.400  17.563  0.00  0.00    +0.000 A 
ATOM     10  O   UNL     1       3.501   7.959  16.473  0.00  0.00    +0.000 OA
ATOM     11  N   UNL     1       4.000   6.199  17.924  0.00  0.00    +0.000 N 
ENDROOT
BRANCH  11  12
ATOM     12  C   UNL     1       4.916   5.662  16.973  0.00  0.00    +0.000 A 
ATOM     13  C   UNL     1       4.516   4.698  16.037  0.00  0.00    +0.000 A 
ATOM     14  C   UNL     1       5.452   4.144  15.158  0.00  0.00    +0.000 A 
ATOM     15  C   UNL     1       6.781   4.575  15.187  0.00  0.00    +0.000 A 
ATOM     16  C   UNL     1       7.173   5.571  16.081  0.00  0.00    +0.000 A 
ATOM     17  C   UNL     1       6.242   6.110  16.961  0.00  0.00    +0.000 A 
ATOM     18  F   UNL     1       6.649   7.031  17.848  0.00  0.00    +0.000 F 
ENDBRANCH  11  12
BRANCH   6  19
ATOM     19  N   UNL     1       0.170  10.941  18.935  0.00  0.00    +0.000 N 
ATOM     20  O   UNL     1      -0.832  10.875  18.212  0.00  0.00    +0.000 OA
ATOM     21  O   UNL     1       0.600  11.981  19.453  0.00  0.00    +0.000 OA
ENDBRANCH   6  19
BRANCH   1  22
ATOM     22  C   UNL     1       4.381   4.215  19.459  0.00  0.00    +0.000 C 
BRANCH  22  26
ATOM     23  O   UNL     1       5.550   0.159  20.450  0.00  0.00    +0.000 OA
ATOM     24  C   UNL     1       4.802   1.029  20.002  0.00  0.00    +0.000 C 
ATOM     25  C   UNL     1       4.272   2.176  20.880  0.00  0.00    +0.000 C 
ATOM     26  N   UNL     1       3.520   3.240  20.165  0.00  0.00    +0.000 NA
ATOM     27  C   UNL     1       2.602   2.591  19.199  0.00  0.00    +0.000 C 
ATOM     28  C   UNL     1       3.338   1.757  18.135  0.00  0.00    +0.000 C 
ATOM     29  N   UNL     1       4.387   0.940  18.701  0.00  0.00    +0.000 N 
ATOM     30  H   UNL     1       4.780   0.169  18.175  0.00  0.00    +0.000 HD
ENDBRANCH  22  26
ENDBRANCH   1  22
TORSDOF 4
ENDMDL
MODEL 9
REMARK VINA RESULT:      -7.6      2.561      4.810
REMARK  Name = 
REMARK  4 active torsions:
REMARK  status: ('A' for Active; 'I' for Inactive)
REMARK    1  A    between atoms: N_4  and  C_5
REMARK    2  A    between atoms: C_5  and  C_6
REMARK    3  A    between atoms: C_11  and  N_12
REMARK    4  A    between atoms: N_19  and  C_20
REMARK                            x       y       z     vdW  Elec       q    Type
REMARK                         _______ _______ _______ _____ _____    ______ ____
ROOT
ATOM      1  C   UNL     1       3.588   5.775  19.129  0.00  0.00    +0.000 A 
ATOM      2  N   UNL     1       2.744   6.328  19.952  0.00  0.00    +0.000 NA
ATOM      3  C   UNL     1       2.172   7.560  19.619  0.00  0.00    +0.000 A 
ATOM      4  C   UNL     1       1.265   8.151  20.505  0.00  0.00    +0.000 A 
ATOM      5  C   UNL     1       0.640   9.365  20.197  0.00  0.00    +0.000 A 
ATOM      6  C   UNL     1       0.933  10.002  18.982  0.00  0.00    +0.000 A 
ATOM      7  C   UNL     1       1.845   9.434  18.087  0.00  0.00    +0.000 A 
ATOM      8  C   UNL     1       2.454   8.216  18.422  0.00  0.00    +0.000 A 
ATOM      9  C   UNL     1       3.393   7.572  17.496  0.00  0.00    +0.000 A 
ATOM     10  O   UNL     1       3.582   8.098  16.400  0.00  0.00    +0.000 OA
ATOM     11  N   UNL     1       3.944   6.356  17.912  0.00  0.00    +0.000 N 
ENDROOT
BRANCH  11  12
ATOM     12  C   UNL     1       4.878   5.760  17.016  0.00  0.00    +0.000 A 
ATOM     13  C   UNL     1       4.488   4.761  16.112  0.00  0.00    +0.000 A 
ATOM     14  C   UNL     1       5.439   4.151  15.289  0.00  0.00    +0.000 A 
ATOM     15  C   UNL     1       6.775   4.558  15.340  0.00  0.00    +0.000 A 
ATOM     16  C   UNL     1       7.158   5.587  16.201  0.00  0.00    +0.000 A 
ATOM     17  C   UNL     1       6.212   6.183  17.025  0.00  0.00    +0.000 A 
ATOM     18  F   UNL     1       6.609   7.135  17.883  0.00  0.00    +0.000 F 
ENDBRANCH  11  12
BRANCH   6  19
ATOM     19  N   UNL     1       0.270  11.271  18.642  0.00  0.00    +0.000 N 
ATOM     20  O   UNL     1       0.949  12.304  18.680  0.00  0.00    +0.000 OA
ATOM     21  O   UNL     1      -0.927  11.224  18.327  0.00  0.00    +0.000 OA
ENDBRANCH   6  19
BRANCH   1  22
ATOM     22  C   UNL     1       4.176   4.397  19.508  0.00  0.00    +0.000 C 
BRANCH  22  26
ATOM     23  O   UNL     1       1.276   2.528  22.134  0.00  0.00    +0.000 OA
ATOM     24  C   UNL     1       2.221   2.546  21.344  0.00  0.00    +0.000 C 
ATOM     25  C   UNL     1       2.082   3.120  19.923  0.00  0.00    +0.000 C 
ATOM     26  N   UNL     1       3.344   3.228  19.147  0.00  0.00    +0.000 NA
ATOM     27  C   UNL     1       4.119   1.980  19.345  0.00  0.00    +0.000 C 
ATOM     28  C   UNL     1       4.507   1.738  20.814  0.00  0.00    +0.000 C 
ATOM     29  N   UNL     1       3.411   1.987  21.723  0.00  0.00    +0.000 N 
ATOM     30  H   UNL     1       3.440   1.637  22.673  0.00  0.00    +0.000 HD
ENDBRANCH  22  26
ENDBRANCH   1  22
TORSDOF 4
ENDMDL
