MODEL 1
REMARK VINA RESULT:      -6.8      0.000      0.000
REMARK  Name = 
REMARK  1 active torsions:
REMARK  status: ('A' for Active; 'I' for Inactive)
REMARK    1  A    between atoms: C_1  and  N_2
REMARK                            x       y       z     vdW  Elec       q    Type
REMARK                         _______ _______ _______ _____ _____    ______ ____
ROOT
ATOM      1  C   UNL     1       6.310   4.207  14.795  0.00  0.00    +0.000 C 
ATOM      2  N   UNL     1       5.721   4.595  16.091  0.00  0.00    +0.000 N 
ATOM      3  C   UNL     1       6.296   5.629  16.731  0.00  0.00    +0.000 A 
ATOM      4  C   UNL     1       5.874   6.048  17.977  0.00  0.00    +0.000 A 
ATOM      5  C   UNL     1       4.778   5.371  18.485  0.00  0.00    +0.000 A 
ATOM      6  N   UNL     1       4.112   5.547  19.671  0.00  0.00    +0.000 N 
ATOM      7  C   UNL     1       3.026   4.712  19.752  0.00  0.00    +0.000 A 
ATOM      8  C   UNL     1       2.084   4.575  20.778  0.00  0.00    +0.000 A 
ATOM      9  C   UNL     1       1.020   3.699  20.562  0.00  0.00    +0.000 A 
ATOM     10  C   UNL     1       0.907   2.995  19.364  0.00  0.00    +0.000 A 
ATOM     11  C   UNL     1       1.874   3.130  18.358  0.00  0.00    +0.000 A 
ATOM     12  C   UNL     1       2.970   4.000  18.556  0.00  0.00    +0.000 A 
ATOM     13  C   UNL     1       4.115   4.376  17.767  0.00  0.00    +0.000 A 
ATOM     14  C   UNL     1       4.605   3.971  16.526  0.00  0.00    +0.000 A 
ATOM     15  H   UNL     1       4.355   6.230  20.374  0.00  0.00    +0.000 HD
ENDROOT
TORSDOF 0
ENDMDL
MODEL 2
REMARK VINA RESULT:      -6.8      1.156      1.193
REMARK  Name = 
REMARK  1 active torsions:
REMARK  status: ('A' for Active; 'I' for Inactive)
REMARK    1  A    between atoms: C_1  and  N_2
REMARK                            x       y       z     vdW  Elec       q    Type
REMARK                         _______ _______ _______ _____ _____    ______ ____
ROOT
ATOM      1  C   UNL     1       6.715   4.403  14.100  0.00  0.00    +0.000 C 
ATOM      2  N   UNL     1       6.320   4.376  15.521  0.00  0.00    +0.000 N 
ATOM      3  C   UNL     1       7.276   4.672  16.420  0.00  0.00    +0.000 A 
ATOM      4  C   UNL     1       7.045   4.622  17.780  0.00  0.00    +0.000 A 
ATOM      5  C   UNL     1       5.746   4.311  18.146  0.00  0.00    +0.000 A 
ATOM      6  N   UNL     1       5.191   4.196  19.395  0.00  0.00    +0.000 N 
ATOM      7  C   UNL     1       3.845   3.946  19.311  0.00  0.00    +0.000 A 
ATOM      8  C   UNL     1       2.908   3.768  20.336  0.00  0.00    +0.000 A 
ATOM      9  C   UNL     1       1.572   3.611  19.966  0.00  0.00    +0.000 A 
ATOM     10  C   UNL     1       1.194   3.635  18.625  0.00  0.00    +0.000 A 
ATOM     11  C   UNL     1       2.153   3.792  17.612  0.00  0.00    +0.000 A 
ATOM     12  C   UNL     1       3.514   3.940  17.958  0.00  0.00    +0.000 A 
ATOM     13  C   UNL     1       4.732   4.117  17.209  0.00  0.00    +0.000 A 
ATOM     14  C   UNL     1       5.029   4.148  15.846  0.00  0.00    +0.000 A 
ATOM     15  H   UNL     1       5.691   4.322  20.263  0.00  0.00    +0.000 HD
ENDROOT
TORSDOF 0
ENDMDL
MODEL 3
REMARK VINA RESULT:      -6.8      1.756      4.958
REMARK  Name = 
REMARK  1 active torsions:
REMARK  status: ('A' for Active; 'I' for Inactive)
REMARK    1  A    between atoms: C_1  and  N_2
REMARK                            x       y       z     vdW  Elec       q    Type
REMARK                         _______ _______ _______ _____ _____    ______ ____
ROOT
ATOM      1  C   UNL     1       0.605   2.437  18.762  0.00  0.00    +0.000 C 
ATOM      2  N   UNL     1       2.038   2.787  18.786  0.00  0.00    +0.000 N 
ATOM      3  C   UNL     1       2.703   2.536  19.928  0.00  0.00    +0.000 A 
ATOM      4  C   UNL     1       4.031   2.874  20.094  0.00  0.00    +0.000 A 
ATOM      5  C   UNL     1       4.642   3.426  18.980  0.00  0.00    +0.000 A 
ATOM      6  N   UNL     1       5.935   3.852  18.810  0.00  0.00    +0.000 N 
ATOM      7  C   UNL     1       6.148   4.267  17.520  0.00  0.00    +0.000 A 
ATOM      8  C   UNL     1       7.314   4.764  16.926  0.00  0.00    +0.000 A 
ATOM      9  C   UNL     1       7.275   5.034  15.558  0.00  0.00    +0.000 A 
ATOM     10  C   UNL     1       6.115   4.810  14.819  0.00  0.00    +0.000 A 
ATOM     11  C   UNL     1       4.950   4.332  15.437  0.00  0.00    +0.000 A 
ATOM     12  C   UNL     1       4.958   4.063  16.824  0.00  0.00    +0.000 A 
ATOM     13  C   UNL     1       3.979   3.579  17.763  0.00  0.00    +0.000 A 
ATOM     14  C   UNL     1       2.627   3.250  17.661  0.00  0.00    +0.000 A 
ATOM     15  H   UNL     1       6.650   3.823  19.521  0.00  0.00    +0.000 HD
ENDROOT
TORSDOF 0
ENDMDL
MODEL 4
REMARK VINA RESULT:      -6.7      1.385      2.449
REMARK  Name = 
REMARK  1 active torsions:
REMARK  status: ('A' for Active; 'I' for Inactive)
REMARK    1  A    between atoms: C_1  and  N_2
REMARK                            x       y       z     vdW  Elec       q    Type
REMARK                         _______ _______ _______ _____ _____    ______ ____
ROOT
ATOM      1  C   UNL     1       7.821   6.058  18.821  0.00  0.00    +0.000 C 
ATOM      2  N   UNL     1       6.614   5.334  18.375  0.00  0.00    +0.000 N 
ATOM      3  C   UNL     1       6.648   4.808  17.137  0.00  0.00    +0.000 A 
ATOM      4  C   UNL     1       5.560   4.162  16.584  0.00  0.00    +0.000 A 
ATOM      5  C   UNL     1       4.463   4.037  17.419  0.00  0.00    +0.000 A 
ATOM      6  N   UNL     1       3.247   3.445  17.187  0.00  0.00    +0.000 N 
ATOM      7  C   UNL     1       2.465   3.474  18.314  0.00  0.00    +0.000 A 
ATOM      8  C   UNL     1       1.170   2.980  18.511  0.00  0.00    +0.000 A 
ATOM      9  C   UNL     1       0.636   3.070  19.796  0.00  0.00    +0.000 A 
ATOM     10  C   UNL     1       1.373   3.628  20.839  0.00  0.00    +0.000 A 
ATOM     11  C   UNL     1       2.660   4.139  20.615  0.00  0.00    +0.000 A 
ATOM     12  C   UNL     1       3.220   4.073  19.320  0.00  0.00    +0.000 A 
ATOM     13  C   UNL     1       4.474   4.483  18.741  0.00  0.00    +0.000 A 
ATOM     14  C   UNL     1       5.590   5.158  19.237  0.00  0.00    +0.000 A 
ATOM     15  H   UNL     1       2.976   3.004  16.321  0.00  0.00    +0.000 HD
ENDROOT
TORSDOF 0
ENDMDL
MODEL 5
REMARK VINA RESULT:      -6.7      1.744      5.834
REMARK  Name = 
REMARK  1 active torsions:
REMARK  status: ('A' for Active; 'I' for Inactive)
REMARK    1  A    between atoms: C_1  and  N_2
REMARK                            x       y       z     vdW  Elec       q    Type
REMARK                         _______ _______ _______ _____ _____    ______ ____
ROOT
ATOM      1  C   UNL     1       3.496   3.917  18.803  0.00  0.00    +0.000 C 
ATOM      2  N   UNL     1       4.599   4.336  17.917  0.00  0.00    +0.000 N 
ATOM      3  C   UNL     1       5.621   4.995  18.494  0.00  0.00    +0.000 A 
ATOM      4  C   UNL     1       6.682   5.490  17.762  0.00  0.00    +0.000 A 
ATOM      5  C   UNL     1       6.648   5.201  16.408  0.00  0.00    +0.000 A 
ATOM      6  N   UNL     1       7.541   5.528  15.419  0.00  0.00    +0.000 N 
ATOM      7  C   UNL     1       7.167   4.979  14.219  0.00  0.00    +0.000 A 
ATOM      8  C   UNL     1       7.793   5.059  12.970  0.00  0.00    +0.000 A 
ATOM      9  C   UNL     1       7.236   4.326  11.922  0.00  0.00    +0.000 A 
ATOM     10  C   UNL     1       6.101   3.542  12.124  0.00  0.00    +0.000 A 
ATOM     11  C   UNL     1       5.476   3.494  13.378  0.00  0.00    +0.000 A 
ATOM     12  C   UNL     1       6.011   4.237  14.453  0.00  0.00    +0.000 A 
ATOM     13  C   UNL     1       5.645   4.420  15.835  0.00  0.00    +0.000 A 
ATOM     14  C   UNL     1       4.580   3.972  16.616  0.00  0.00    +0.000 A 
ATOM     15  H   UNL     1       8.386   6.063  15.559  0.00  0.00    +0.000 HD
ENDROOT
TORSDOF 0
ENDMDL
MODEL 6
REMARK VINA RESULT:      -6.5      1.883      5.047
REMARK  Name = 
REMARK  1 active torsions:
REMARK  status: ('A' for Active; 'I' for Inactive)
REMARK    1  A    between atoms: C_1  and  N_2
REMARK                            x       y       z     vdW  Elec       q    Type
REMARK                         _______ _______ _______ _____ _____    ______ ____
ROOT
ATOM      1  C   UNL     1       1.868   2.464  20.523  0.00  0.00    +0.000 C 
ATOM      2  N   UNL     1       2.440   3.499  19.641  0.00  0.00    +0.000 N 
ATOM      3  C   UNL     1       1.586   4.125  18.811  0.00  0.00    +0.000 A 
ATOM      4  C   UNL     1       2.010   5.068  17.896  0.00  0.00    +0.000 A 
ATOM      5  C   UNL     1       3.361   5.368  17.943  0.00  0.00    +0.000 A 
ATOM      6  N   UNL     1       4.088   6.257  17.193  0.00  0.00    +0.000 N 
ATOM      7  C   UNL     1       5.393   6.301  17.614  0.00  0.00    +0.000 A 
ATOM      8  C   UNL     1       6.458   7.070  17.131  0.00  0.00    +0.000 A 
ATOM      9  C   UNL     1       7.675   6.981  17.808  0.00  0.00    +0.000 A 
ATOM     10  C   UNL     1       7.813   6.157  18.923  0.00  0.00    +0.000 A 
ATOM     11  C   UNL     1       6.739   5.377  19.377  0.00  0.00    +0.000 A 
ATOM     12  C   UNL     1       5.500   5.438  18.703  0.00  0.00    +0.000 A 
ATOM     13  C   UNL     1       4.221   4.799  18.882  0.00  0.00    +0.000 A 
ATOM     14  C   UNL     1       3.745   3.827  19.762  0.00  0.00    +0.000 A 
ATOM     15  H   UNL     1       3.710   6.836  16.457  0.00  0.00    +0.000 HD
ENDROOT
TORSDOF 0
ENDMDL
MODEL 7
REMARK VINA RESULT:      -6.5      1.584      4.834
REMARK  Name = 
REMARK  1 active torsions:
REMARK  status: ('A' for Active; 'I' for Inactive)
REMARK    1  A    between atoms: C_1  and  N_2
REMARK                            x       y       z     vdW  Elec       q    Type
REMARK                         _______ _______ _______ _____ _____    ______ ____
ROOT
ATOM      1  C   UNL     1       1.458   2.798  21.240  0.00  0.00    +0.000 C 
ATOM      2  N   UNL     1       2.061   3.848  20.396  0.00  0.00    +0.000 N 
ATOM      3  C   UNL     1       1.859   5.122  20.779  0.00  0.00    +0.000 A 
ATOM      4  C   UNL     1       2.320   6.192  20.040  0.00  0.00    +0.000 A 
ATOM      5  C   UNL     1       3.060   5.858  18.918  0.00  0.00    +0.000 A 
ATOM      6  N   UNL     1       3.664   6.671  17.993  0.00  0.00    +0.000 N 
ATOM      7  C   UNL     1       4.365   5.930  17.074  0.00  0.00    +0.000 A 
ATOM      8  C   UNL     1       5.123   6.359  15.978  0.00  0.00    +0.000 A 
ATOM      9  C   UNL     1       5.809   5.386  15.250  0.00  0.00    +0.000 A 
ATOM     10  C   UNL     1       5.739   4.042  15.612  0.00  0.00    +0.000 A 
ATOM     11  C   UNL     1       4.955   3.631  16.700  0.00  0.00    +0.000 A 
ATOM     12  C   UNL     1       4.239   4.594  17.446  0.00  0.00    +0.000 A 
ATOM     13  C   UNL     1       3.363   4.538  18.589  0.00  0.00    +0.000 A 
ATOM     14  C   UNL     1       2.844   3.493  19.353  0.00  0.00    +0.000 A 
ATOM     15  H   UNL     1       3.639   7.680  18.006  0.00  0.00    +0.000 HD
ENDROOT
TORSDOF 0
ENDMDL
MODEL 8
REMARK VINA RESULT:      -6.5      1.659      5.263
REMARK  Name = 
REMARK  1 active torsions:
REMARK  status: ('A' for Active; 'I' for Inactive)
REMARK    1  A    between atoms: C_1  and  N_2
REMARK                            x       y       z     vdW  Elec       q    Type
REMARK                         _______ _______ _______ _____ _____    ______ ____
ROOT
ATOM      1  C   UNL     1       1.468   2.621  21.460  0.00  0.00    +0.000 C 
ATOM      2  N   UNL     1       2.272   2.794  20.234  0.00  0.00    +0.000 N 
ATOM      3  C   UNL     1       1.801   2.212  19.116  0.00  0.00    +0.000 A 
ATOM      4  C   UNL     1       2.492   2.250  17.922  0.00  0.00    +0.000 A 
ATOM      5  C   UNL     1       3.665   2.986  17.944  0.00  0.00    +0.000 A 
ATOM      6  N   UNL     1       4.564   3.232  16.938  0.00  0.00    +0.000 N 
ATOM      7  C   UNL     1       5.558   4.076  17.365  0.00  0.00    +0.000 A 
ATOM      8  C   UNL     1       6.659   4.581  16.663  0.00  0.00    +0.000 A 
ATOM      9  C   UNL     1       7.477   5.499  17.322  0.00  0.00    +0.000 A 
ATOM     10  C   UNL     1       7.197   5.894  18.629  0.00  0.00    +0.000 A 
ATOM     11  C   UNL     1       6.102   5.358  19.323  0.00  0.00    +0.000 A 
ATOM     12  C   UNL     1       5.265   4.417  18.684  0.00  0.00    +0.000 A 
ATOM     13  C   UNL     1       4.089   3.682  19.075  0.00  0.00    +0.000 A 
ATOM     14  C   UNL     1       3.369   3.581  20.266  0.00  0.00    +0.000 A 
ATOM     15  H   UNL     1       4.487   2.879  15.995  0.00  0.00    +0.000 HD
ENDROOT
TORSDOF 0
ENDMDL
MODEL 9
REMARK VINA RESULT:      -6.4      1.104      1.104
REMARK  Name = 
REMARK  1 active torsions:
REMARK  status: ('A' for Active; 'I' for Inactive)
REMARK    1  A    between atoms: C_1  and  N_2
REMARK                            x       y       z     vdW  Elec       q    Type
REMARK                         _______ _______ _______ _____ _____    ______ ____
ROOT
ATOM      1  C   UNL     1       6.921   4.691  15.689  0.00  0.00    +0.000 C 
ATOM      2  N   UNL     1       5.789   5.099  16.544  0.00  0.00    +0.000 N 
ATOM      3  C   UNL     1       5.436   6.397  16.501  0.00  0.00    +0.000 A 
ATOM      4  C   UNL     1       4.434   6.912  17.298  0.00  0.00    +0.000 A 
ATOM      5  C   UNL     1       3.777   5.986  18.090  0.00  0.00    +0.000 A 
ATOM      6  N   UNL     1       2.741   6.164  18.972  0.00  0.00    +0.000 N 
ATOM      7  C   UNL     1       2.335   4.964  19.498  0.00  0.00    +0.000 A 
ATOM      8  C   UNL     1       1.316   4.697  20.420  0.00  0.00    +0.000 A 
ATOM      9  C   UNL     1       1.057   3.359  20.723  0.00  0.00    +0.000 A 
ATOM     10  C   UNL     1       1.787   2.336  20.122  0.00  0.00    +0.000 A 
ATOM     11  C   UNL     1       2.820   2.627  19.218  0.00  0.00    +0.000 A 
ATOM     12  C   UNL     1       3.113   3.972  18.904  0.00  0.00    +0.000 A 
ATOM     13  C   UNL     1       4.070   4.623  18.046  0.00  0.00    +0.000 A 
ATOM     14  C   UNL     1       5.116   4.162  17.246  0.00  0.00    +0.000 A 
ATOM     15  H   UNL     1       2.302   7.049  19.175  0.00  0.00    +0.000 HD
ENDROOT
TORSDOF 0
ENDMDL
