MODEL 1
REMARK VINA RESULT:      -8.7      0.000      0.000
REMARK  Name = 
REMARK  4 active torsions:
REMARK  status: ('A' for Active; 'I' for Inactive)
REMARK    1  A    between atoms: C_1  and  C_2
REMARK    2  A    between atoms: C_6  and  N_7
REMARK    3  A    between atoms: N_7  and  S_8
REMARK    4  A    between atoms: S_8  and  C_11
REMARK                            x       y       z     vdW  Elec       q    Type
REMARK                         _______ _______ _______ _____ _____    ______ ____
ROOT
ATOM      1  S   UNL     1       7.102   6.104  17.913  0.00  0.00    +0.000 S 
ATOM      2  O   UNL     1       7.858   6.075  19.151  0.00  0.00    +0.000 OA
ATOM      3  O   UNL     1       7.086   7.296  17.091  0.00  0.00    +0.000 OA
ENDROOT
BRANCH   1   4
ATOM      4  C   UNL     1       5.411   5.726  18.335  0.00  0.00    +0.000 A 
ATOM      5  C   UNL     1       4.363   6.436  17.741  0.00  0.00    +0.000 A 
ATOM      6  C   UNL     1       3.035   6.080  18.014  0.00  0.00    +0.000 A 
ATOM      7  C   UNL     1       2.751   5.022  18.883  0.00  0.00    +0.000 A 
ATOM      8  C   UNL     1       3.805   4.275  19.430  0.00  0.00    +0.000 A 
ATOM      9  C   UNL     1       5.128   4.627  19.155  0.00  0.00    +0.000 A 
ATOM     10  O   UNL     1       3.666   3.186  20.253  0.00  0.00    +0.000 OA
ATOM     11  C   UNL     1       2.583   2.336  19.878  0.00  0.00    +0.000 C 
ATOM     12  C   UNL     1       1.280   2.801  20.502  0.00  0.00    +0.000 C 
ATOM     13  C   UNL     1       1.110   4.309  20.406  0.00  0.00    +0.000 C 
ATOM     14  O   UNL     1       1.415   4.790  19.096  0.00  0.00    +0.000 OA
ENDBRANCH   1   4
BRANCH   1  15
ATOM     15  N   UNL     1       7.681   4.808  17.012  0.00  0.00    +0.000 N 
ATOM     16  H   UNL     1       7.786   3.967  17.571  0.00  0.00    +0.000 HD
BRANCH  15  22
ATOM     17  C   UNL     1       8.015   5.544  12.343  0.00  0.00    +0.000 C 
ATOM     18  C   UNL     1       7.255   4.948  13.487  0.00  0.00    +0.000 A 
ATOM     19  C   UNL     1       6.120   4.170  13.249  0.00  0.00    +0.000 A 
ATOM     20  C   UNL     1       5.474   3.580  14.333  0.00  0.00    +0.000 A 
ATOM     21  C   UNL     1       5.988   3.759  15.614  0.00  0.00    +0.000 A 
ATOM     22  C   UNL     1       7.106   4.564  15.754  0.00  0.00    +0.000 A 
ATOM     23  N   UNL     1       7.743   5.165  14.736  0.00  0.00    +0.000 NA
ENDBRANCH  15  22
ENDBRANCH   1  15
TORSDOF 3
ENDMDL
MODEL 2
REMARK VINA RESULT:      -8.4      2.509      3.413
REMARK  Name = 
REMARK  4 active torsions:
REMARK  status: ('A' for Active; 'I' for Inactive)
REMARK    1  A    between atoms: C_1  and  C_2
REMARK    2  A    between atoms: C_6  and  N_7
REMARK    3  A    between atoms: N_7  and  S_8
REMARK    4  A    between atoms: S_8  and  C_11
REMARK                            x       y       z     vdW  Elec       q    Type
REMARK                         _______ _______ _______ _____ _____    ______ ____
ROOT
ATOM      1  S   UNL     1       5.389   5.272  15.320  0.00  0.00    +0.000 S 
ATOM      2  O   UNL     1       5.289   6.624  14.806  0.00  0.00    +0.000 OA
ATOM      3  O   UNL     1       4.982   4.146  14.506  0.00  0.00    +0.000 OA
ENDROOT
BRANCH   1   4
ATOM      4  C   UNL     1       4.426   5.220  16.821  0.00  0.00    +0.000 A 
ATOM      5  C   UNL     1       4.077   6.407  17.472  0.00  0.00    +0.000 A 
ATOM      6  C   UNL     1       3.251   6.366  18.604  0.00  0.00    +0.000 A 
ATOM      7  C   UNL     1       2.779   5.142  19.090  0.00  0.00    +0.000 A 
ATOM      8  C   UNL     1       3.083   3.959  18.399  0.00  0.00    +0.000 A 
ATOM      9  C   UNL     1       3.903   4.002  17.269  0.00  0.00    +0.000 A 
ATOM     10  O   UNL     1       2.645   2.705  18.737  0.00  0.00    +0.000 OA
ATOM     11  C   UNL     1       1.295   2.689  19.199  0.00  0.00    +0.000 C 
ATOM     12  C   UNL     1       1.223   2.966  20.690  0.00  0.00    +0.000 C 
ATOM     13  C   UNL     1       2.137   4.109  21.100  0.00  0.00    +0.000 C 
ATOM     14  O   UNL     1       2.006   5.227  20.222  0.00  0.00    +0.000 OA
ENDBRANCH   1   4
BRANCH   1  15
ATOM     15  N   UNL     1       7.000   5.088  15.767  0.00  0.00    +0.000 N 
ATOM     16  H   UNL     1       7.635   5.249  14.991  0.00  0.00    +0.000 HD
BRANCH  15  22
ATOM     17  C   UNL     1       8.164   9.149  17.913  0.00  0.00    +0.000 C 
ATOM     18  C   UNL     1       8.024   7.660  17.994  0.00  0.00    +0.000 A 
ATOM     19  C   UNL     1       8.249   6.997  19.202  0.00  0.00    +0.000 A 
ATOM     20  C   UNL     1       8.049   5.620  19.256  0.00  0.00    +0.000 A 
ATOM     21  C   UNL     1       7.607   4.949  18.119  0.00  0.00    +0.000 A 
ATOM     22  C   UNL     1       7.430   5.687  16.963  0.00  0.00    +0.000 A 
ATOM     23  N   UNL     1       7.632   7.012  16.866  0.00  0.00    +0.000 NA
ENDBRANCH  15  22
ENDBRANCH   1  15
TORSDOF 3
ENDMDL
MODEL 3
REMARK VINA RESULT:      -8.2      1.389      1.977
REMARK  Name = 
REMARK  4 active torsions:
REMARK  status: ('A' for Active; 'I' for Inactive)
REMARK    1  A    between atoms: C_1  and  C_2
REMARK    2  A    between atoms: C_6  and  N_7
REMARK    3  A    between atoms: N_7  and  S_8
REMARK    4  A    between atoms: S_8  and  C_11
REMARK                            x       y       z     vdW  Elec       q    Type
REMARK                         _______ _______ _______ _____ _____    ______ ____
ROOT
ATOM      1  S   UNL     1       5.744   6.227  16.285  0.00  0.00    +0.000 S 
ATOM      2  O   UNL     1       6.821   6.925  16.961  0.00  0.00    +0.000 OA
ATOM      3  O   UNL     1       5.041   6.854  15.186  0.00  0.00    +0.000 OA
ENDROOT
BRANCH   1   4
ATOM      4  C   UNL     1       4.533   5.823  17.531  0.00  0.00    +0.000 A 
ATOM      5  C   UNL     1       3.593   6.777  17.932  0.00  0.00    +0.000 A 
ATOM      6  C   UNL     1       2.592   6.430  18.850  0.00  0.00    +0.000 A 
ATOM      7  C   UNL     1       2.533   5.133  19.373  0.00  0.00    +0.000 A 
ATOM      8  C   UNL     1       3.441   4.164  18.923  0.00  0.00    +0.000 A 
ATOM      9  C   UNL     1       4.435   4.510  18.006  0.00  0.00    +0.000 A 
ATOM     10  O   UNL     1       3.461   2.849  19.314  0.00  0.00    +0.000 OA
ATOM     11  C   UNL     1       2.157   2.291  19.466  0.00  0.00    +0.000 C 
ATOM     12  C   UNL     1       1.607   2.553  20.856  0.00  0.00    +0.000 C 
ATOM     13  C   UNL     1       1.862   3.981  21.308  0.00  0.00    +0.000 C 
ATOM     14  O   UNL     1       1.530   4.923  20.287  0.00  0.00    +0.000 OA
ENDBRANCH   1   4
BRANCH   1  15
ATOM     15  N   UNL     1       6.415   4.776  15.768  0.00  0.00    +0.000 N 
ATOM     16  H   UNL     1       5.933   3.969  16.153  0.00  0.00    +0.000 HD
BRANCH  15  22
ATOM     17  C   UNL     1       5.344   2.539  11.730  0.00  0.00    +0.000 C 
ATOM     18  C   UNL     1       6.215   3.522  12.449  0.00  0.00    +0.000 A 
ATOM     19  C   UNL     1       7.179   4.252  11.749  0.00  0.00    +0.000 A 
ATOM     20  C   UNL     1       7.928   5.202  12.438  0.00  0.00    +0.000 A 
ATOM     21  C   UNL     1       7.680   5.418  13.790  0.00  0.00    +0.000 A 
ATOM     22  C   UNL     1       6.719   4.633  14.403  0.00  0.00    +0.000 A 
ATOM     23  N   UNL     1       5.991   3.694  13.778  0.00  0.00    +0.000 NA
ENDBRANCH  15  22
ENDBRANCH   1  15
TORSDOF 3
ENDMDL
MODEL 4
REMARK VINA RESULT:      -8.0      2.401      3.697
REMARK  Name = 
REMARK  4 active torsions:
REMARK  status: ('A' for Active; 'I' for Inactive)
REMARK    1  A    between atoms: C_1  and  C_2
REMARK    2  A    between atoms: C_6  and  N_7
REMARK    3  A    between atoms: N_7  and  S_8
REMARK    4  A    between atoms: S_8  and  C_11
REMARK                            x       y       z     vdW  Elec       q    Type
REMARK                         _______ _______ _______ _____ _____    ______ ____
ROOT
ATOM      1  S   UNL     1       5.475   5.132  15.176  0.00  0.00    +0.000 S 
ATOM      2  O   UNL     1       5.176   6.551  15.185  0.00  0.00    +0.000 OA
ATOM      3  O   UNL     1       5.280   4.349  13.973  0.00  0.00    +0.000 OA
ENDROOT
BRANCH   1   4
ATOM      4  C   UNL     1       4.485   4.390  16.461  0.00  0.00    +0.000 A 
ATOM      5  C   UNL     1       4.603   3.025  16.738  0.00  0.00    +0.000 A 
ATOM      6  C   UNL     1       3.885   2.463  17.803  0.00  0.00    +0.000 A 
ATOM      7  C   UNL     1       3.044   3.261  18.587  0.00  0.00    +0.000 A 
ATOM      8  C   UNL     1       2.975   4.641  18.342  0.00  0.00    +0.000 A 
ATOM      9  C   UNL     1       3.694   5.200  17.284  0.00  0.00    +0.000 A 
ATOM     10  O   UNL     1       2.234   5.541  19.065  0.00  0.00    +0.000 OA
ATOM     11  C   UNL     1       2.239   5.274  20.466  0.00  0.00    +0.000 C 
ATOM     12  C   UNL     1       1.149   4.285  20.839  0.00  0.00    +0.000 C 
ATOM     13  C   UNL     1       1.075   3.125  19.861  0.00  0.00    +0.000 C 
ATOM     14  O   UNL     1       2.370   2.592  19.578  0.00  0.00    +0.000 OA
ENDBRANCH   1   4
BRANCH   1  15
ATOM     15  N   UNL     1       7.079   5.016  15.666  0.00  0.00    +0.000 N 
ATOM     16  H   UNL     1       7.728   5.214  14.910  0.00  0.00    +0.000 HD
BRANCH  15  22
ATOM     17  C   UNL     1       8.067   9.096  17.864  0.00  0.00    +0.000 C 
ATOM     18  C   UNL     1       7.957   7.605  17.937  0.00  0.00    +0.000 A 
ATOM     19  C   UNL     1       8.148   6.943  19.152  0.00  0.00    +0.000 A 
ATOM     20  C   UNL     1       7.976   5.562  19.195  0.00  0.00    +0.000 A 
ATOM     21  C   UNL     1       7.595   4.885  18.041  0.00  0.00    +0.000 A 
ATOM     22  C   UNL     1       7.448   5.622  16.879  0.00  0.00    +0.000 A 
ATOM     23  N   UNL     1       7.625   6.950  16.793  0.00  0.00    +0.000 NA
ENDBRANCH  15  22
ENDBRANCH   1  15
TORSDOF 3
ENDMDL
MODEL 5
REMARK VINA RESULT:      -7.8      1.613      2.260
REMARK  Name = 
REMARK  4 active torsions:
REMARK  status: ('A' for Active; 'I' for Inactive)
REMARK    1  A    between atoms: C_1  and  C_2
REMARK    2  A    between atoms: C_6  and  N_7
REMARK    3  A    between atoms: N_7  and  S_8
REMARK    4  A    between atoms: S_8  and  C_11
REMARK                            x       y       z     vdW  Elec       q    Type
REMARK                         _______ _______ _______ _____ _____    ______ ____
ROOT
ATOM      1  S   UNL     1       5.930   5.916  16.525  0.00  0.00    +0.000 S 
ATOM      2  O   UNL     1       6.628   6.590  17.603  0.00  0.00    +0.000 OA
ATOM      3  O   UNL     1       5.297   6.681  15.470  0.00  0.00    +0.000 OA
ENDROOT
BRANCH   1   4
ATOM      4  C   UNL     1       4.668   4.908  17.282  0.00  0.00    +0.000 A 
ATOM      5  C   UNL     1       4.295   3.694  16.698  0.00  0.00    +0.000 A 
ATOM      6  C   UNL     1       3.364   2.866  17.339  0.00  0.00    +0.000 A 
ATOM      7  C   UNL     1       2.798   3.252  18.560  0.00  0.00    +0.000 A 
ATOM      8  C   UNL     1       3.219   4.443  19.171  0.00  0.00    +0.000 A 
ATOM      9  C   UNL     1       4.150   5.265  18.533  0.00  0.00    +0.000 A 
ATOM     10  O   UNL     1       2.785   4.910  20.385  0.00  0.00    +0.000 OA
ATOM     11  C   UNL     1       2.612   3.878  21.353  0.00  0.00    +0.000 C 
ATOM     12  C   UNL     1       1.229   3.259  21.253  0.00  0.00    +0.000 C 
ATOM     13  C   UNL     1       0.825   3.003  19.810  0.00  0.00    +0.000 C 
ATOM     14  O   UNL     1       1.875   2.375  19.073  0.00  0.00    +0.000 OA
ENDBRANCH   1   4
BRANCH   1  15
ATOM     15  N   UNL     1       7.059   4.866  15.857  0.00  0.00    +0.000 N 
ATOM     16  H   UNL     1       7.060   3.959  16.315  0.00  0.00    +0.000 HD
BRANCH  15  22
ATOM     17  C   UNL     1       5.398   2.707  11.980  0.00  0.00    +0.000 C 
ATOM     18  C   UNL     1       6.345   3.701  12.577  0.00  0.00    +0.000 A 
ATOM     19  C   UNL     1       7.155   4.485  11.752  0.00  0.00    +0.000 A 
ATOM     20  C   UNL     1       7.978   5.443  12.338  0.00  0.00    +0.000 A 
ATOM     21  C   UNL     1       7.954   5.610  13.720  0.00  0.00    +0.000 A 
ATOM     22  C   UNL     1       7.135   4.774  14.457  0.00  0.00    +0.000 A 
ATOM     23  N   UNL     1       6.342   3.826  13.930  0.00  0.00    +0.000 NA
ENDBRANCH  15  22
ENDBRANCH   1  15
TORSDOF 3
ENDMDL
MODEL 6
REMARK VINA RESULT:      -7.8      1.192      1.266
REMARK  Name = 
REMARK  4 active torsions:
REMARK  status: ('A' for Active; 'I' for Inactive)
REMARK    1  A    between atoms: C_1  and  C_2
REMARK    2  A    between atoms: C_6  and  N_7
REMARK    3  A    between atoms: N_7  and  S_8
REMARK    4  A    between atoms: S_8  and  C_11
REMARK                            x       y       z     vdW  Elec       q    Type
REMARK                         _______ _______ _______ _____ _____    ______ ____
ROOT
ATOM      1  S   UNL     1       6.300   5.863  17.363  0.00  0.00    +0.000 S 
ATOM      2  O   UNL     1       7.033   6.172  18.576  0.00  0.00    +0.000 OA
ATOM      3  O   UNL     1       5.920   6.917  16.447  0.00  0.00    +0.000 OA
ENDROOT
BRANCH   1   4
ATOM      4  C   UNL     1       4.806   5.029  17.866  0.00  0.00    +0.000 A 
ATOM      5  C   UNL     1       4.000   4.398  16.914  0.00  0.00    +0.000 A 
ATOM      6  C   UNL     1       2.871   3.674  17.322  0.00  0.00    +0.000 A 
ATOM      7  C   UNL     1       2.542   3.585  18.680  0.00  0.00    +0.000 A 
ATOM      8  C   UNL     1       3.387   4.170  19.635  0.00  0.00    +0.000 A 
ATOM      9  C   UNL     1       4.513   4.887  19.227  0.00  0.00    +0.000 A 
ATOM     10  O   UNL     1       3.209   4.114  20.994  0.00  0.00    +0.000 OA
ATOM     11  C   UNL     1       2.734   2.847  21.445  0.00  0.00    +0.000 C 
ATOM     12  C   UNL     1       1.219   2.776  21.383  0.00  0.00    +0.000 C 
ATOM     13  C   UNL     1       0.675   3.357  20.087  0.00  0.00    +0.000 C 
ATOM     14  O   UNL     1       1.398   2.877  18.953  0.00  0.00    +0.000 OA
ENDBRANCH   1   4
BRANCH   1  15
ATOM     15  N   UNL     1       7.244   4.730  16.555  0.00  0.00    +0.000 N 
ATOM     16  H   UNL     1       7.274   3.838  17.040  0.00  0.00    +0.000 HD
BRANCH  15  22
ATOM     17  C   UNL     1       8.693   6.164  12.278  0.00  0.00    +0.000 C 
ATOM     18  C   UNL     1       7.763   5.316  13.089  0.00  0.00    +0.000 A 
ATOM     19  C   UNL     1       6.880   4.437  12.458  0.00  0.00    +0.000 A 
ATOM     20  C   UNL     1       6.074   3.619  13.246  0.00  0.00    +0.000 A 
ATOM     21  C   UNL     1       6.188   3.679  14.632  0.00  0.00    +0.000 A 
ATOM     22  C   UNL     1       7.076   4.594  15.167  0.00  0.00    +0.000 A 
ATOM     23  N   UNL     1       7.855   5.414  14.441  0.00  0.00    +0.000 NA
ENDBRANCH  15  22
ENDBRANCH   1  15
TORSDOF 3
ENDMDL
MODEL 7
REMARK VINA RESULT:      -7.7      1.216      1.443
REMARK  Name = 
REMARK  4 active torsions:
REMARK  status: ('A' for Active; 'I' for Inactive)
REMARK    1  A    between atoms: C_1  and  C_2
REMARK    2  A    between atoms: C_6  and  N_7
REMARK    3  A    between atoms: N_7  and  S_8
REMARK    4  A    between atoms: S_8  and  C_11
REMARK                            x       y       z     vdW  Elec       q    Type
REMARK                         _______ _______ _______ _____ _____    ______ ____
ROOT
ATOM      1  S   UNL     1       5.722   6.072  16.519  0.00  0.00    +0.000 S 
ATOM      2  O   UNL     1       6.840   6.675  17.219  0.00  0.00    +0.000 OA
ATOM      3  O   UNL     1       5.055   6.786  15.450  0.00  0.00    +0.000 OA
ENDROOT
BRANCH   1   4
ATOM      4  C   UNL     1       4.492   5.688  17.752  0.00  0.00    +0.000 A 
ATOM      5  C   UNL     1       3.578   6.664  18.161  0.00  0.00    +0.000 A 
ATOM      6  C   UNL     1       2.562   6.334  19.068  0.00  0.00    +0.000 A 
ATOM      7  C   UNL     1       2.461   5.034  19.574  0.00  0.00    +0.000 A 
ATOM      8  C   UNL     1       3.343   4.043  19.115  0.00  0.00    +0.000 A 
ATOM      9  C   UNL     1       4.352   4.372  18.209  0.00  0.00    +0.000 A 
ATOM     10  O   UNL     1       3.321   2.724  19.489  0.00  0.00    +0.000 OA
ATOM     11  C   UNL     1       2.000   2.203  19.626  0.00  0.00    +0.000 C 
ATOM     12  C   UNL     1       1.450   2.463  21.016  0.00  0.00    +0.000 C 
ATOM     13  C   UNL     1       1.744   3.877  21.489  0.00  0.00    +0.000 C 
ATOM     14  O   UNL     1       1.446   4.842  20.478  0.00  0.00    +0.000 OA
ENDBRANCH   1   4
BRANCH   1  15
ATOM     15  N   UNL     1       6.304   4.606  15.937  0.00  0.00    +0.000 N 
ATOM     16  H   UNL     1       5.781   3.814  16.296  0.00  0.00    +0.000 HD
BRANCH  15  22
ATOM     17  C   UNL     1       8.990   6.168  12.359  0.00  0.00    +0.000 C 
ATOM     18  C   UNL     1       7.873   5.284  12.821  0.00  0.00    +0.000 A 
ATOM     19  C   UNL     1       7.255   4.405  11.929  0.00  0.00    +0.000 A 
ATOM     20  C   UNL     1       6.263   3.554  12.409  0.00  0.00    +0.000 A 
ATOM     21  C   UNL     1       5.933   3.582  13.760  0.00  0.00    +0.000 A 
ATOM     22  C   UNL     1       6.585   4.501  14.564  0.00  0.00    +0.000 A 
ATOM     23  N   UNL     1       7.532   5.351  14.135  0.00  0.00    +0.000 NA
ENDBRANCH  15  22
ENDBRANCH   1  15
TORSDOF 3
ENDMDL
MODEL 8
REMARK VINA RESULT:      -7.3      4.398      6.556
REMARK  Name = 
REMARK  4 active torsions:
REMARK  status: ('A' for Active; 'I' for Inactive)
REMARK    1  A    between atoms: C_1  and  C_2
REMARK    2  A    between atoms: C_6  and  N_7
REMARK    3  A    between atoms: N_7  and  S_8
REMARK    4  A    between atoms: S_8  and  C_11
REMARK                            x       y       z     vdW  Elec       q    Type
REMARK                         _______ _______ _______ _____ _____    ______ ____
ROOT
ATOM      1  S   UNL     1       2.876   6.868  18.391  0.00  0.00    +0.000 S 
ATOM      2  O   UNL     1       4.039   7.464  17.761  0.00  0.00    +0.000 OA
ATOM      3  O   UNL     1       1.979   6.026  17.628  0.00  0.00    +0.000 OA
ENDROOT
BRANCH   1   4
ATOM      4  C   UNL     1       1.908   8.211  19.057  0.00  0.00    +0.000 A 
ATOM      5  C   UNL     1       1.292   9.126  18.198  0.00  0.00    +0.000 A 
ATOM      6  C   UNL     1       0.466  10.129  18.722  0.00  0.00    +0.000 A 
ATOM      7  C   UNL     1       0.260  10.226  20.103  0.00  0.00    +0.000 A 
ATOM      8  C   UNL     1       0.832   9.270  20.955  0.00  0.00    +0.000 A 
ATOM      9  C   UNL     1       1.652   8.268  20.432  0.00  0.00    +0.000 A 
ATOM     10  O   UNL     1       0.669   9.219  22.316  0.00  0.00    +0.000 OA
ATOM     11  C   UNL     1      -0.656   9.541  22.734  0.00  0.00    +0.000 C 
ATOM     12  C   UNL     1      -0.825  11.040  22.909  0.00  0.00    +0.000 C 
ATOM     13  C   UNL     1      -0.193  11.820  21.768  0.00  0.00    +0.000 C 
ATOM     14  O   UNL     1      -0.542  11.268  20.497  0.00  0.00    +0.000 OA
ENDBRANCH   1   4
BRANCH   1  15
ATOM     15  N   UNL     1       3.478   6.004  19.701  0.00  0.00    +0.000 N 
ATOM     16  H   UNL     1       3.570   6.579  20.533  0.00  0.00    +0.000 HD
BRANCH  15  22
ATOM     17  C   UNL     1       3.546   1.398  18.589  0.00  0.00    +0.000 C 
ATOM     18  C   UNL     1       2.948   2.503  19.404  0.00  0.00    +0.000 A 
ATOM     19  C   UNL     1       1.987   2.219  20.377  0.00  0.00    +0.000 A 
ATOM     20  C   UNL     1       1.498   3.263  21.159  0.00  0.00    +0.000 A 
ATOM     21  C   UNL     1       1.996   4.549  20.970  0.00  0.00    +0.000 A 
ATOM     22  C   UNL     1       2.933   4.736  19.969  0.00  0.00    +0.000 A 
ATOM     23  N   UNL     1       3.413   3.760  19.182  0.00  0.00    +0.000 NA
ENDBRANCH  15  22
ENDBRANCH   1  15
TORSDOF 3
ENDMDL
MODEL 9
REMARK VINA RESULT:      -7.2      3.972      5.054
REMARK  Name = 
REMARK  4 active torsions:
REMARK  status: ('A' for Active; 'I' for Inactive)
REMARK    1  A    between atoms: C_1  and  C_2
REMARK    2  A    between atoms: C_6  and  N_7
REMARK    3  A    between atoms: N_7  and  S_8
REMARK    4  A    between atoms: S_8  and  C_11
REMARK                            x       y       z     vdW  Elec       q    Type
REMARK                         _______ _______ _______ _____ _____    ______ ____
ROOT
ATOM      1  S   UNL     1       3.128   6.322  18.566  0.00  0.00    +0.000 S 
ATOM      2  O   UNL     1       2.236   5.515  17.755  0.00  0.00    +0.000 OA
ATOM      3  O   UNL     1       3.777   5.754  19.730  0.00  0.00    +0.000 OA
ENDROOT
BRANCH   1   4
ATOM      4  C   UNL     1       2.186   7.733  19.117  0.00  0.00    +0.000 A 
ATOM      5  C   UNL     1       1.699   8.658  18.189  0.00  0.00    +0.000 A 
ATOM      6  C   UNL     1       0.890   9.719  18.619  0.00  0.00    +0.000 A 
ATOM      7  C   UNL     1       0.572   9.862  19.974  0.00  0.00    +0.000 A 
ATOM      8  C   UNL     1       1.014   8.898  20.893  0.00  0.00    +0.000 A 
ATOM      9  C   UNL     1       1.816   7.839  20.463  0.00  0.00    +0.000 A 
ATOM     10  O   UNL     1       0.732   8.890  22.235  0.00  0.00    +0.000 OA
ATOM     11  C   UNL     1      -0.604   9.296  22.529  0.00  0.00    +0.000 C 
ATOM     12  C   UNL     1      -0.701  10.806  22.657  0.00  0.00    +0.000 C 
ATOM     13  C   UNL     1       0.070  11.521  21.560  0.00  0.00    +0.000 C 
ATOM     14  O   UNL     1      -0.199  10.956  20.275  0.00  0.00    +0.000 OA
ENDBRANCH   1   4
BRANCH   1  15
ATOM     15  N   UNL     1       4.293   6.898  17.500  0.00  0.00    +0.000 N 
ATOM     16  H   UNL     1       4.621   7.826  17.752  0.00  0.00    +0.000 HD
BRANCH  15  22
ATOM     17  C   UNL     1       5.949   4.008  14.130  0.00  0.00    +0.000 C 
ATOM     18  C   UNL     1       6.120   4.606  15.492  0.00  0.00    +0.000 A 
ATOM     19  C   UNL     1       7.271   4.340  16.238  0.00  0.00    +0.000 A 
ATOM     20  C   UNL     1       7.425   4.963  17.474  0.00  0.00    +0.000 A 
ATOM     21  C   UNL     1       6.447   5.848  17.919  0.00  0.00    +0.000 A 
ATOM     22  C   UNL     1       5.333   6.033  17.120  0.00  0.00    +0.000 A 
ATOM     23  N   UNL     1       5.139   5.436  15.933  0.00  0.00    +0.000 NA
ENDBRANCH  15  22
ENDBRANCH   1  15
TORSDOF 3
ENDMDL
