MODEL 1
REMARK VINA RESULT:      -9.0      0.000      0.000
REMARK  Name = 
REMARK  9 active torsions:
REMARK  status: ('A' for Active; 'I' for Inactive)
REMARK    1  A    between atoms: C_1  and  O_2
REMARK    2  A    between atoms: O_2  and  C_3
REMARK    3  A    between atoms: C_3  and  C_4
REMARK    4  A    between atoms: C_4  and  N_5
REMARK    5  A    between atoms: C_13  and  C_14
REMARK    6  A    between atoms: C_20  and  C_21
REMARK    7  A    between atoms: C_24  and  C_25
REMARK    8  A    between atoms: C_25  and  O_27
REMARK    9  A    between atoms: O_27  and  C_28
REMARK                            x       y       z     vdW  Elec       q    Type
REMARK                         _______ _______ _______ _____ _____    ______ ____
ROOT
ATOM      1  N   UNL     1       3.383   4.572  19.579  0.00  0.00    +0.000 N 
ATOM      2  C   UNL     1       2.463   4.879  20.570  0.00  0.00    +0.000 C 
ATOM      3  O   UNL     1       2.096   4.203  21.511  0.00  0.00    +0.000 OA
ATOM      4  C   UNL     1       1.998   6.233  20.325  0.00  0.00    +0.000 A 
ATOM      5  O   UNL     1       1.075   6.803  21.133  0.00  0.00    +0.000 OA
ATOM      6  C   UNL     1       0.942   8.148  21.008  0.00  0.00    +0.000 A 
ATOM      7  C   UNL     1       0.313   8.789  22.073  0.00  0.00    +0.000 A 
ATOM      8  C   UNL     1      -0.037  10.122  21.956  0.00  0.00    +0.000 A 
ATOM      9  C   UNL     1       0.191  10.798  20.750  0.00  0.00    +0.000 A 
ATOM     10  C   UNL     1      -0.405  12.171  20.601  0.00  0.00    +0.000 C 
ATOM     11  C   UNL     1       0.896  10.155  19.700  0.00  0.00    +0.000 A 
ATOM     12  C   UNL     1       1.344   8.834  19.860  0.00  0.00    +0.000 A 
ATOM     13  C   UNL     1       2.272   8.111  18.908  0.00  0.00    +0.000 A 
ATOM     14  O   UNL     1       2.625   8.624  17.856  0.00  0.00    +0.000 OA
ATOM     15  C   UNL     1       2.719   6.762  19.327  0.00  0.00    +0.000 A 
ATOM     16  C   UNL     1       3.913   5.862  19.094  0.00  0.00    +0.000 C 
ENDROOT
BRANCH  16  17
ATOM     17  C   UNL     1       4.958   5.920  17.979  0.00  0.00    +0.000 A 
ATOM     18  C   UNL     1       4.482   6.244  16.682  0.00  0.00    +0.000 A 
ATOM     19  C   UNL     1       5.208   5.964  15.517  0.00  0.00    +0.000 A 
ATOM     20  C   UNL     1       6.461   5.355  15.594  0.00  0.00    +0.000 A 
ATOM     21  C   UNL     1       7.025   5.180  16.867  0.00  0.00    +0.000 A 
ATOM     22  C   UNL     1       6.284   5.468  18.048  0.00  0.00    +0.000 A 
BRANCH  20  23
ATOM     23  C   UNL     1       7.043   4.838  14.312  0.00  0.00    +0.000 C 
ATOM     24  O   UNL     1       7.917   5.443  13.702  0.00  0.00    +0.000 OA
BRANCH  23  25
ATOM     25  O   UNL     1       6.410   3.722  13.869  0.00  0.00    +0.000 OA
ATOM     26  C   UNL     1       6.436   3.575  12.439  0.00  0.00    +0.000 C 
ENDBRANCH  23  25
ENDBRANCH  20  23
ENDBRANCH  16  17
BRANCH   1  27
ATOM     27  C   UNL     1       4.117   3.324  19.771  0.00  0.00    +0.000 C 
BRANCH  27  28
ATOM     28  C   UNL     1       3.384   2.087  19.180  0.00  0.00    +0.000 C 
BRANCH  28  30
ATOM     29  C   UNL     1       1.110   2.199  18.568  0.00  0.00    +0.000 C 
ATOM     30  O   UNL     1       2.448   2.499  18.179  0.00  0.00    +0.000 OA
ENDBRANCH  28  30
ENDBRANCH  27  28
ENDBRANCH   1  27
TORSDOF 6
ENDMDL
MODEL 2
REMARK VINA RESULT:      -8.1      1.071      1.291
REMARK  Name = 
REMARK  9 active torsions:
REMARK  status: ('A' for Active; 'I' for Inactive)
REMARK    1  A    between atoms: C_1  and  O_2
REMARK    2  A    between atoms: O_2  and  C_3
REMARK    3  A    between atoms: C_3  and  C_4
REMARK    4  A    between atoms: C_4  and  N_5
REMARK    5  A    between atoms: C_13  and  C_14
REMARK    6  A    between atoms: C_20  and  C_21
REMARK    7  A    between atoms: C_24  and  C_25
REMARK    8  A    between atoms: C_25  and  O_27
REMARK    9  A    between atoms: O_27  and  C_28
REMARK                            x       y       z     vdW  Elec       q    Type
REMARK                         _______ _______ _______ _____ _____    ______ ____
ROOT
ATOM      1  N   UNL     1       3.276   4.236  19.722  0.00  0.00    +0.000 N 
ATOM      2  C   UNL     1       2.443   4.942  20.577  0.00  0.00    +0.000 C 
ATOM      3  O   UNL     1       1.997   4.611  21.659  0.00  0.00    +0.000 OA
ATOM      4  C   UNL     1       2.194   6.237  19.969  0.00  0.00    +0.000 A 
ATOM      5  O   UNL     1       1.395   7.143  20.577  0.00  0.00    +0.000 OA
ATOM      6  C   UNL     1       1.475   8.409  20.094  0.00  0.00    +0.000 A 
ATOM      7  C   UNL     1       0.984   9.404  20.935  0.00  0.00    +0.000 A 
ATOM      8  C   UNL     1       0.849  10.695  20.458  0.00  0.00    +0.000 A 
ATOM      9  C   UNL     1       1.150  10.977  19.119  0.00  0.00    +0.000 A 
ATOM     10  C   UNL     1       0.778  12.337  18.597  0.00  0.00    +0.000 C 
ATOM     11  C   UNL     1       1.717   9.971  18.294  0.00  0.00    +0.000 A 
ATOM     12  C   UNL     1       1.952   8.688  18.811  0.00  0.00    +0.000 A 
ATOM     13  C   UNL     1       2.728   7.597  18.105  0.00  0.00    +0.000 A 
ATOM     14  O   UNL     1       3.131   7.745  16.960  0.00  0.00    +0.000 OA
ATOM     15  C   UNL     1       2.963   6.355  18.879  0.00  0.00    +0.000 A 
ATOM     16  C   UNL     1       3.992   5.246  18.918  0.00  0.00    +0.000 C 
ENDROOT
BRANCH  16  17
ATOM     17  C   UNL     1       5.004   4.835  17.848  0.00  0.00    +0.000 A 
ATOM     18  C   UNL     1       6.026   5.772  17.549  0.00  0.00    +0.000 A 
ATOM     19  C   UNL     1       6.772   5.726  16.364  0.00  0.00    +0.000 A 
ATOM     20  C   UNL     1       6.540   4.726  15.420  0.00  0.00    +0.000 A 
ATOM     21  C   UNL     1       5.656   3.693  15.767  0.00  0.00    +0.000 A 
ATOM     22  C   UNL     1       4.901   3.742  16.974  0.00  0.00    +0.000 A 
BRANCH  20  23
ATOM     23  C   UNL     1       7.172   4.907  14.072  0.00  0.00    +0.000 C 
ATOM     24  O   UNL     1       8.080   5.707  13.879  0.00  0.00    +0.000 OA
BRANCH  23  25
ATOM     25  O   UNL     1       6.546   4.188  13.106  0.00  0.00    +0.000 OA
ATOM     26  C   UNL     1       7.264   4.148  11.861  0.00  0.00    +0.000 C 
ENDBRANCH  23  25
ENDBRANCH  20  23
ENDBRANCH  16  17
BRANCH   1  27
ATOM     27  C   UNL     1       3.805   2.984  20.256  0.00  0.00    +0.000 C 
BRANCH  27  28
ATOM     28  C   UNL     1       3.333   1.733  19.463  0.00  0.00    +0.000 C 
BRANCH  28  30
ATOM     29  C   UNL     1       1.391   2.312  18.258  0.00  0.00    +0.000 C 
ATOM     30  O   UNL     1       1.903   1.681  19.428  0.00  0.00    +0.000 OA
ENDBRANCH  28  30
ENDBRANCH  27  28
ENDBRANCH   1  27
TORSDOF 6
ENDMDL
MODEL 3
REMARK VINA RESULT:      -7.8      1.851      7.776
REMARK  Name = 
REMARK  9 active torsions:
REMARK  status: ('A' for Active; 'I' for Inactive)
REMARK    1  A    between atoms: C_1  and  O_2
REMARK    2  A    between atoms: O_2  and  C_3
REMARK    3  A    between atoms: C_3  and  C_4
REMARK    4  A    between atoms: C_4  and  N_5
REMARK    5  A    between atoms: C_13  and  C_14
REMARK    6  A    between atoms: C_20  and  C_21
REMARK    7  A    between atoms: C_24  and  C_25
REMARK    8  A    between atoms: C_25  and  O_27
REMARK    9  A    between atoms: O_27  and  C_28
REMARK                            x       y       z     vdW  Elec       q    Type
REMARK                         _______ _______ _______ _____ _____    ______ ____
ROOT
ATOM      1  N   UNL     1       2.270   4.582  18.720  0.00  0.00    +0.000 N 
ATOM      2  C   UNL     1       2.732   3.596  17.861  0.00  0.00    +0.000 C 
ATOM      3  O   UNL     1       2.309   2.470  17.690  0.00  0.00    +0.000 OA
ATOM      4  C   UNL     1       3.849   4.156  17.120  0.00  0.00    +0.000 A 
ATOM      5  O   UNL     1       4.514   3.411  16.208  0.00  0.00    +0.000 OA
ATOM      6  C   UNL     1       5.320   4.105  15.364  0.00  0.00    +0.000 A 
ATOM      7  C   UNL     1       5.688   3.434  14.200  0.00  0.00    +0.000 A 
ATOM      8  C   UNL     1       6.653   3.982  13.374  0.00  0.00    +0.000 A 
ATOM      9  C   UNL     1       7.292   5.173  13.744  0.00  0.00    +0.000 A 
ATOM     10  C   UNL     1       8.479   5.605  12.928  0.00  0.00    +0.000 C 
ATOM     11  C   UNL     1       6.857   5.882  14.894  0.00  0.00    +0.000 A 
ATOM     12  C   UNL     1       5.805   5.378  15.674  0.00  0.00    +0.000 A 
ATOM     13  C   UNL     1       5.119   6.128  16.795  0.00  0.00    +0.000 A 
ATOM     14  O   UNL     1       5.519   7.224  17.161  0.00  0.00    +0.000 OA
ATOM     15  C   UNL     1       3.949   5.459  17.412  0.00  0.00    +0.000 A 
ATOM     16  C   UNL     1       2.681   5.871  18.127  0.00  0.00    +0.000 C 
ENDROOT
BRANCH  16  17
ATOM     17  C   UNL     1       2.349   7.198  18.810  0.00  0.00    +0.000 A 
ATOM     18  C   UNL     1       2.102   7.146  20.206  0.00  0.00    +0.000 A 
ATOM     19  C   UNL     1       1.424   8.161  20.893  0.00  0.00    +0.000 A 
ATOM     20  C   UNL     1       0.968   9.292  20.215  0.00  0.00    +0.000 A 
ATOM     21  C   UNL     1       1.346   9.445  18.872  0.00  0.00    +0.000 A 
ATOM     22  C   UNL     1       2.038   8.411  18.179  0.00  0.00    +0.000 A 
BRANCH  20  23
ATOM     23  C   UNL     1       0.017  10.187  20.952  0.00  0.00    +0.000 C 
ATOM     24  O   UNL     1      -0.882  10.794  20.382  0.00  0.00    +0.000 OA
BRANCH  23  25
ATOM     25  O   UNL     1       0.348  10.330  22.260  0.00  0.00    +0.000 OA
ATOM     26  C   UNL     1      -0.777  10.254  23.151  0.00  0.00    +0.000 C 
ENDBRANCH  23  25
ENDBRANCH  20  23
ENDBRANCH  16  17
BRANCH   1  27
ATOM     27  C   UNL     1       1.019   4.277  19.408  0.00  0.00    +0.000 C 
BRANCH  27  28
ATOM     28  C   UNL     1       1.231   3.666  20.821  0.00  0.00    +0.000 C 
BRANCH  28  30
ATOM     29  C   UNL     1       3.129   2.370  21.348  0.00  0.00    +0.000 C 
ATOM     30  O   UNL     1       2.620   3.688  21.166  0.00  0.00    +0.000 OA
ENDBRANCH  28  30
ENDBRANCH  27  28
ENDBRANCH   1  27
TORSDOF 6
ENDMDL
MODEL 4
REMARK VINA RESULT:      -7.8      1.549      1.923
REMARK  Name = 
REMARK  9 active torsions:
REMARK  status: ('A' for Active; 'I' for Inactive)
REMARK    1  A    between atoms: C_1  and  O_2
REMARK    2  A    between atoms: O_2  and  C_3
REMARK    3  A    between atoms: C_3  and  C_4
REMARK    4  A    between atoms: C_4  and  N_5
REMARK    5  A    between atoms: C_13  and  C_14
REMARK    6  A    between atoms: C_20  and  C_21
REMARK    7  A    between atoms: C_24  and  C_25
REMARK    8  A    between atoms: C_25  and  O_27
REMARK    9  A    between atoms: O_27  and  C_28
REMARK                            x       y       z     vdW  Elec       q    Type
REMARK                         _______ _______ _______ _____ _____    ______ ____
ROOT
ATOM      1  N   UNL     1       3.021   3.550  19.622  0.00  0.00    +0.000 N 
ATOM      2  C   UNL     1       2.196   4.169  20.548  0.00  0.00    +0.000 C 
ATOM      3  O   UNL     1       1.702   3.713  21.561  0.00  0.00    +0.000 OA
ATOM      4  C   UNL     1       2.024   5.547  20.123  0.00  0.00    +0.000 A 
ATOM      5  O   UNL     1       1.249   6.398  20.833  0.00  0.00    +0.000 OA
ATOM      6  C   UNL     1       1.401   7.713  20.535  0.00  0.00    +0.000 A 
ATOM      7  C   UNL     1       0.930   8.604  21.497  0.00  0.00    +0.000 A 
ATOM      8  C   UNL     1       0.868   9.954  21.204  0.00  0.00    +0.000 A 
ATOM      9  C   UNL     1       1.223  10.406  19.926  0.00  0.00    +0.000 A 
ATOM     10  C   UNL     1       0.929  11.842  19.592  0.00  0.00    +0.000 C 
ATOM     11  C   UNL     1       1.768   9.498  18.980  0.00  0.00    +0.000 A 
ATOM     12  C   UNL     1       1.929   8.145  19.316  0.00  0.00    +0.000 A 
ATOM     13  C   UNL     1       2.675   7.127  18.483  0.00  0.00    +0.000 A 
ATOM     14  O   UNL     1       3.120   7.414  17.380  0.00  0.00    +0.000 OA
ATOM     15  C   UNL     1       2.831   5.779  19.079  0.00  0.00    +0.000 A 
ATOM     16  C   UNL     1       3.807   4.627  18.986  0.00  0.00    +0.000 C 
ENDROOT
BRANCH  16  17
ATOM     17  C   UNL     1       4.831   4.319  17.893  0.00  0.00    +0.000 A 
ATOM     18  C   UNL     1       5.934   5.206  17.791  0.00  0.00    +0.000 A 
ATOM     19  C   UNL     1       6.727   5.299  16.640  0.00  0.00    +0.000 A 
ATOM     20  C   UNL     1       6.462   4.495  15.531  0.00  0.00    +0.000 A 
ATOM     21  C   UNL     1       5.487   3.495  15.668  0.00  0.00    +0.000 A 
ATOM     22  C   UNL     1       4.685   3.402  16.841  0.00  0.00    +0.000 A 
BRANCH  20  23
ATOM     23  C   UNL     1       7.165   4.848  14.254  0.00  0.00    +0.000 C 
ATOM     24  O   UNL     1       8.082   5.661  14.218  0.00  0.00    +0.000 OA
BRANCH  23  25
ATOM     25  O   UNL     1       6.592   4.268  13.170  0.00  0.00    +0.000 OA
ATOM     26  C   UNL     1       7.328   4.472  11.951  0.00  0.00    +0.000 C 
ENDBRANCH  23  25
ENDBRANCH  20  23
ENDBRANCH  16  17
BRANCH   1  27
ATOM     27  C   UNL     1       3.477   2.211  19.986  0.00  0.00    +0.000 C 
BRANCH  27  28
ATOM     28  C   UNL     1       4.736   2.220  20.897  0.00  0.00    +0.000 C 
BRANCH  28  30
ATOM     29  C   UNL     1       5.917   0.493  21.985  0.00  0.00    +0.000 C 
ATOM     30  O   UNL     1       5.474   1.004  20.731  0.00  0.00    +0.000 OA
ENDBRANCH  28  30
ENDBRANCH  27  28
ENDBRANCH   1  27
TORSDOF 6
ENDMDL
MODEL 5
REMARK VINA RESULT:      -7.6      0.968      1.325
REMARK  Name = 
REMARK  9 active torsions:
REMARK  status: ('A' for Active; 'I' for Inactive)
REMARK    1  A    between atoms: C_1  and  O_2
REMARK    2  A    between atoms: O_2  and  C_3
REMARK    3  A    between atoms: C_3  and  C_4
REMARK    4  A    between atoms: C_4  and  N_5
REMARK    5  A    between atoms: C_13  and  C_14
REMARK    6  A    between atoms: C_20  and  C_21
REMARK    7  A    between atoms: C_24  and  C_25
REMARK    8  A    between atoms: C_25  and  O_27
REMARK    9  A    between atoms: O_27  and  C_28
REMARK                            x       y       z     vdW  Elec       q    Type
REMARK                         _______ _______ _______ _____ _____    ______ ____
ROOT
ATOM      1  N   UNL     1       3.080   4.236  19.217  0.00  0.00    +0.000 N 
ATOM      2  C   UNL     1       2.135   4.508  20.194  0.00  0.00    +0.000 C 
ATOM      3  O   UNL     1       1.643   3.758  21.014  0.00  0.00    +0.000 OA
ATOM      4  C   UNL     1       1.824   5.924  20.114  0.00  0.00    +0.000 A 
ATOM      5  O   UNL     1       0.913   6.479  20.946  0.00  0.00    +0.000 OA
ATOM      6  C   UNL     1       0.922   7.835  21.000  0.00  0.00    +0.000 A 
ATOM      7  C   UNL     1       0.294   8.395  22.110  0.00  0.00    +0.000 A 
ATOM      8  C   UNL     1       0.087   9.761  22.159  0.00  0.00    +0.000 A 
ATOM      9  C   UNL     1       0.458  10.561  21.070  0.00  0.00    +0.000 A 
ATOM     10  C   UNL     1       0.013  11.998  21.082  0.00  0.00    +0.000 C 
ATOM     11  C   UNL     1       1.161   9.989  19.978  0.00  0.00    +0.000 A 
ATOM     12  C   UNL     1       1.463   8.619  19.978  0.00  0.00    +0.000 A 
ATOM     13  C   UNL     1       2.373   7.931  18.984  0.00  0.00    +0.000 A 
ATOM     14  O   UNL     1       2.842   8.536  18.030  0.00  0.00    +0.000 OA
ATOM     15  C   UNL     1       2.655   6.498  19.235  0.00  0.00    +0.000 A 
ATOM     16  C   UNL     1       3.766   5.514  18.940  0.00  0.00    +0.000 C 
ENDROOT
BRANCH  16  17
ATOM     17  C   UNL     1       4.880   5.605  17.897  0.00  0.00    +0.000 A 
ATOM     18  C   UNL     1       4.516   6.118  16.625  0.00  0.00    +0.000 A 
ATOM     19  C   UNL     1       5.288   5.910  15.475  0.00  0.00    +0.000 A 
ATOM     20  C   UNL     1       6.477   5.185  15.543  0.00  0.00    +0.000 A 
ATOM     21  C   UNL     1       6.944   4.813  16.814  0.00  0.00    +0.000 A 
ATOM     22  C   UNL     1       6.156   5.029  17.981  0.00  0.00    +0.000 A 
BRANCH  20  23
ATOM     23  C   UNL     1       7.093   4.768  14.241  0.00  0.00    +0.000 C 
ATOM     24  O   UNL     1       7.940   5.448  13.673  0.00  0.00    +0.000 OA
BRANCH  23  25
ATOM     25  O   UNL     1       6.520   3.649  13.731  0.00  0.00    +0.000 OA
ATOM     26  C   UNL     1       6.398   3.665  12.299  0.00  0.00    +0.000 C 
ENDBRANCH  23  25
ENDBRANCH  20  23
ENDBRANCH  16  17
BRANCH   1  27
ATOM     27  C   UNL     1       3.672   2.901  19.272  0.00  0.00    +0.000 C 
BRANCH  27  28
ATOM     28  C   UNL     1       4.813   2.781  20.320  0.00  0.00    +0.000 C 
BRANCH  28  30
ATOM     29  C   UNL     1       5.512   0.865  21.502  0.00  0.00    +0.000 C 
ATOM     30  O   UNL     1       4.467   1.815  21.319  0.00  0.00    +0.000 OA
ENDBRANCH  28  30
ENDBRANCH  27  28
ENDBRANCH   1  27
TORSDOF 6
ENDMDL
MODEL 6
REMARK VINA RESULT:      -7.3      4.287      7.348
REMARK  Name = 
REMARK  9 active torsions:
REMARK  status: ('A' for Active; 'I' for Inactive)
REMARK    1  A    between atoms: C_1  and  O_2
REMARK    2  A    between atoms: O_2  and  C_3
REMARK    3  A    between atoms: C_3  and  C_4
REMARK    4  A    between atoms: C_4  and  N_5
REMARK    5  A    between atoms: C_13  and  C_14
REMARK    6  A    between atoms: C_20  and  C_21
REMARK    7  A    between atoms: C_24  and  C_25
REMARK    8  A    between atoms: C_25  and  O_27
REMARK    9  A    between atoms: O_27  and  C_28
REMARK                            x       y       z     vdW  Elec       q    Type
REMARK                         _______ _______ _______ _____ _____    ______ ____
ROOT
ATOM      1  N   UNL     1      -1.877  10.957  18.496  0.00  0.00    +0.000 N 
ATOM      2  C   UNL     1      -2.938  11.719  18.961  0.00  0.00    +0.000 C 
ATOM      3  O   UNL     1      -4.066  11.811  18.518  0.00  0.00    +0.000 OA
ATOM      4  C   UNL     1      -2.485  12.410  20.155  0.00  0.00    +0.000 A 
ATOM      5  O   UNL     1      -3.312  13.246  20.824  0.00  0.00    +0.000 OA
ATOM      6  C   UNL     1      -2.907  13.591  22.073  0.00  0.00    +0.000 A 
ATOM      7  C   UNL     1      -3.899  14.105  22.904  0.00  0.00    +0.000 A 
ATOM      8  C   UNL     1      -3.549  14.658  24.122  0.00  0.00    +0.000 A 
ATOM      9  C   UNL     1      -2.198  14.749  24.483  0.00  0.00    +0.000 A 
ATOM     10  C   UNL     1      -1.860  15.552  25.709  0.00  0.00    +0.000 C 
ATOM     11  C   UNL     1      -1.204  14.157  23.661  0.00  0.00    +0.000 A 
ATOM     12  C   UNL     1      -1.572  13.503  22.474  0.00  0.00    +0.000 A 
ATOM     13  C   UNL     1      -0.643  12.666  21.622  0.00  0.00    +0.000 A 
ATOM     14  O   UNL     1       0.550  12.585  21.877  0.00  0.00    +0.000 OA
ATOM     15  C   UNL     1      -1.263  11.963  20.474  0.00  0.00    +0.000 A 
ATOM     16  C   UNL     1      -1.003  10.713  19.662  0.00  0.00    +0.000 C 
ENDROOT
BRANCH  16  17
ATOM     17  C   UNL     1       0.287   9.904  19.529  0.00  0.00    +0.000 A 
ATOM     18  C   UNL     1       0.841   9.806  18.226  0.00  0.00    +0.000 A 
ATOM     19  C   UNL     1       1.765   8.816  17.868  0.00  0.00    +0.000 A 
ATOM     20  C   UNL     1       2.194   7.877  18.807  0.00  0.00    +0.000 A 
ATOM     21  C   UNL     1       1.792   8.055  20.140  0.00  0.00    +0.000 A 
ATOM     22  C   UNL     1       0.855   9.064  20.499  0.00  0.00    +0.000 A 
BRANCH  20  23
ATOM     23  C   UNL     1       2.954   6.694  18.284  0.00  0.00    +0.000 C 
ATOM     24  O   UNL     1       3.802   6.801  17.405  0.00  0.00    +0.000 OA
BRANCH  23  25
ATOM     25  O   UNL     1       2.507   5.521  18.800  0.00  0.00    +0.000 OA
ATOM     26  C   UNL     1       1.876   4.668  17.830  0.00  0.00    +0.000 C 
ENDBRANCH  23  25
ENDBRANCH  20  23
ENDBRANCH  16  17
BRANCH   1  27
ATOM     27  C   UNL     1      -2.198  10.029  17.415  0.00  0.00    +0.000 C 
BRANCH  27  28
ATOM     28  C   UNL     1      -2.391  10.733  16.042  0.00  0.00    +0.000 C 
BRANCH  28  30
ATOM     29  C   UNL     1      -3.563  10.047  14.115  0.00  0.00    +0.000 C 
ATOM     30  O   UNL     1      -3.669  10.399  15.492  0.00  0.00    +0.000 OA
ENDBRANCH  28  30
ENDBRANCH  27  28
ENDBRANCH   1  27
TORSDOF 6
ENDMDL
MODEL 7
REMARK VINA RESULT:      -7.2      1.220      1.796
REMARK  Name = 
REMARK  9 active torsions:
REMARK  status: ('A' for Active; 'I' for Inactive)
REMARK    1  A    between atoms: C_1  and  O_2
REMARK    2  A    between atoms: O_2  and  C_3
REMARK    3  A    between atoms: C_3  and  C_4
REMARK    4  A    between atoms: C_4  and  N_5
REMARK    5  A    between atoms: C_13  and  C_14
REMARK    6  A    between atoms: C_20  and  C_21
REMARK    7  A    between atoms: C_24  and  C_25
REMARK    8  A    between atoms: C_25  and  O_27
REMARK    9  A    between atoms: O_27  and  C_28
REMARK                            x       y       z     vdW  Elec       q    Type
REMARK                         _______ _______ _______ _____ _____    ______ ____
ROOT
ATOM      1  N   UNL     1       3.173   4.922  19.279  0.00  0.00    +0.000 N 
ATOM      2  C   UNL     1       2.506   5.298  20.434  0.00  0.00    +0.000 C 
ATOM      3  O   UNL     1       2.399   4.700  21.487  0.00  0.00    +0.000 OA
ATOM      4  C   UNL     1       1.947   6.618  20.202  0.00  0.00    +0.000 A 
ATOM      5  O   UNL     1       1.224   7.241  21.160  0.00  0.00    +0.000 OA
ATOM      6  C   UNL     1       1.016   8.568  20.965  0.00  0.00    +0.000 A 
ATOM      7  C   UNL     1       0.636   9.288  22.095  0.00  0.00    +0.000 A 
ATOM      8  C   UNL     1       0.220  10.600  21.960  0.00  0.00    +0.000 A 
ATOM      9  C   UNL     1       0.129  11.173  20.685  0.00  0.00    +0.000 A 
ATOM     10  C   UNL     1      -0.534  12.519  20.575  0.00  0.00    +0.000 C 
ATOM     11  C   UNL     1       0.587  10.453  19.550  0.00  0.00    +0.000 A 
ATOM     12  C   UNL     1       1.107   9.159  19.702  0.00  0.00    +0.000 A 
ATOM     13  C   UNL     1       1.807   8.372  18.616  0.00  0.00    +0.000 A 
ATOM     14  O   UNL     1       1.879   8.798  17.472  0.00  0.00    +0.000 OA
ATOM     15  C   UNL     1       2.389   7.071  19.020  0.00  0.00    +0.000 A 
ATOM     16  C   UNL     1       3.525   6.174  18.579  0.00  0.00    +0.000 C 
ENDROOT
BRANCH  16  17
ATOM     17  C   UNL     1       4.270   6.152  17.244  0.00  0.00    +0.000 A 
ATOM     18  C   UNL     1       4.017   5.043  16.396  0.00  0.00    +0.000 A 
ATOM     19  C   UNL     1       4.877   4.676  15.353  0.00  0.00    +0.000 A 
ATOM     20  C   UNL     1       6.033   5.414  15.096  0.00  0.00    +0.000 A 
ATOM     21  C   UNL     1       6.217   6.609  15.809  0.00  0.00    +0.000 A 
ATOM     22  C   UNL     1       5.339   6.979  16.867  0.00  0.00    +0.000 A 
BRANCH  20  23
ATOM     23  C   UNL     1       7.034   4.802  14.161  0.00  0.00    +0.000 C 
ATOM     24  O   UNL     1       8.052   5.392  13.819  0.00  0.00    +0.000 OA
BRANCH  23  25
ATOM     25  O   UNL     1       6.618   3.610  13.665  0.00  0.00    +0.000 OA
ATOM     26  C   UNL     1       6.573   3.568  12.228  0.00  0.00    +0.000 C 
ENDBRANCH  23  25
ENDBRANCH  20  23
ENDBRANCH  16  17
BRANCH   1  27
ATOM     27  C   UNL     1       3.976   3.706  19.387  0.00  0.00    +0.000 C 
BRANCH  27  28
ATOM     28  C   UNL     1       5.474   3.930  19.037  0.00  0.00    +0.000 C 
BRANCH  28  30
ATOM     29  C   UNL     1       7.188   5.498  19.438  0.00  0.00    +0.000 C 
ATOM     30  O   UNL     1       6.082   4.798  19.999  0.00  0.00    +0.000 OA
ENDBRANCH  28  30
ENDBRANCH  27  28
ENDBRANCH   1  27
TORSDOF 6
ENDMDL
MODEL 8
REMARK VINA RESULT:      -7.2      1.059      1.412
REMARK  Name = 
REMARK  9 active torsions:
REMARK  status: ('A' for Active; 'I' for Inactive)
REMARK    1  A    between atoms: C_1  and  O_2
REMARK    2  A    between atoms: O_2  and  C_3
REMARK    3  A    between atoms: C_3  and  C_4
REMARK    4  A    between atoms: C_4  and  N_5
REMARK    5  A    between atoms: C_13  and  C_14
REMARK    6  A    between atoms: C_20  and  C_21
REMARK    7  A    between atoms: C_24  and  C_25
REMARK    8  A    between atoms: C_25  and  O_27
REMARK    9  A    between atoms: O_27  and  C_28
REMARK                            x       y       z     vdW  Elec       q    Type
REMARK                         _______ _______ _______ _____ _____    ______ ____
ROOT
ATOM      1  N   UNL     1       2.953   5.407  19.479  0.00  0.00    +0.000 N 
ATOM      2  C   UNL     1       2.002   5.881  20.370  0.00  0.00    +0.000 C 
ATOM      3  O   UNL     1       1.534   5.339  21.352  0.00  0.00    +0.000 OA
ATOM      4  C   UNL     1       1.650   7.227  19.953  0.00  0.00    +0.000 A 
ATOM      5  O   UNL     1       0.725   7.941  20.633  0.00  0.00    +0.000 OA
ATOM      6  C   UNL     1       0.695   9.270  20.358  0.00  0.00    +0.000 A 
ATOM      7  C   UNL     1       0.054  10.064  21.305  0.00  0.00    +0.000 A 
ATOM      8  C   UNL     1      -0.192  11.396  21.025  0.00  0.00    +0.000 A 
ATOM      9  C   UNL     1       0.152  11.918  19.771  0.00  0.00    +0.000 A 
ATOM     10  C   UNL     1      -0.334  13.302  19.439  0.00  0.00    +0.000 C 
ATOM     11  C   UNL     1       0.869  11.118  18.843  0.00  0.00    +0.000 A 
ATOM     12  C   UNL     1       1.211   9.797  19.172  0.00  0.00    +0.000 A 
ATOM     13  C   UNL     1       2.138   8.915  18.365  0.00  0.00    +0.000 A 
ATOM     14  O   UNL     1       2.587   9.284  17.289  0.00  0.00    +0.000 OA
ATOM     15  C   UNL     1       2.462   7.594  18.953  0.00  0.00    +0.000 A 
ATOM     16  C   UNL     1       3.601   6.599  18.895  0.00  0.00    +0.000 C 
ENDROOT
BRANCH  16  17
ATOM     17  C   UNL     1       4.709   6.465  17.850  0.00  0.00    +0.000 A 
ATOM     18  C   UNL     1       4.330   6.659  16.497  0.00  0.00    +0.000 A 
ATOM     19  C   UNL     1       5.102   6.202  15.421  0.00  0.00    +0.000 A 
ATOM     20  C   UNL     1       6.308   5.537  15.648  0.00  0.00    +0.000 A 
ATOM     21  C   UNL     1       6.786   5.483  16.966  0.00  0.00    +0.000 A 
ATOM     22  C   UNL     1       5.998   5.950  18.056  0.00  0.00    +0.000 A 
BRANCH  20  23
ATOM     23  C   UNL     1       6.928   4.840  14.474  0.00  0.00    +0.000 C 
ATOM     24  O   UNL     1       6.517   3.759  14.065  0.00  0.00    +0.000 OA
BRANCH  23  25
ATOM     25  O   UNL     1       8.038   5.475  14.021  0.00  0.00    +0.000 OA
ATOM     26  C   UNL     1       8.139   5.508  12.587  0.00  0.00    +0.000 C 
ENDBRANCH  23  25
ENDBRANCH  20  23
ENDBRANCH  16  17
BRANCH   1  27
ATOM     27  C   UNL     1       3.583   4.143  19.850  0.00  0.00    +0.000 C 
BRANCH  27  28
ATOM     28  C   UNL     1       2.924   2.909  19.173  0.00  0.00    +0.000 C 
BRANCH  28  30
ATOM     29  C   UNL     1       2.706   2.347  21.452  0.00  0.00    +0.000 C 
ATOM     30  O   UNL     1       2.191   2.148  20.139  0.00  0.00    +0.000 OA
ENDBRANCH  28  30
ENDBRANCH  27  28
ENDBRANCH   1  27
TORSDOF 6
ENDMDL
MODEL 9
REMARK VINA RESULT:      -7.0      0.988      1.385
REMARK  Name = 
REMARK  9 active torsions:
REMARK  status: ('A' for Active; 'I' for Inactive)
REMARK    1  A    between atoms: C_1  and  O_2
REMARK    2  A    between atoms: O_2  and  C_3
REMARK    3  A    between atoms: C_3  and  C_4
REMARK    4  A    between atoms: C_4  and  N_5
REMARK    5  A    between atoms: C_13  and  C_14
REMARK    6  A    between atoms: C_20  and  C_21
REMARK    7  A    between atoms: C_24  and  C_25
REMARK    8  A    between atoms: C_25  and  O_27
REMARK    9  A    between atoms: O_27  and  C_28
REMARK                            x       y       z     vdW  Elec       q    Type
REMARK                         _______ _______ _______ _____ _____    ______ ____
ROOT
ATOM      1  N   UNL     1       2.831   4.776  19.410  0.00  0.00    +0.000 N 
ATOM      2  C   UNL     1       2.230   5.185  20.590  0.00  0.00    +0.000 C 
ATOM      3  O   UNL     1       2.104   4.579  21.637  0.00  0.00    +0.000 OA
ATOM      4  C   UNL     1       1.773   6.549  20.394  0.00  0.00    +0.000 A 
ATOM      5  O   UNL     1       1.130   7.211  21.383  0.00  0.00    +0.000 OA
ATOM      6  C   UNL     1       1.024   8.554  21.214  0.00  0.00    +0.000 A 
ATOM      7  C   UNL     1       0.736   9.282  22.365  0.00  0.00    +0.000 A 
ATOM      8  C   UNL     1       0.424  10.626  22.262  0.00  0.00    +0.000 A 
ATOM      9  C   UNL     1       0.343  11.227  20.999  0.00  0.00    +0.000 A 
ATOM     10  C   UNL     1      -0.212  12.622  20.929  0.00  0.00    +0.000 C 
ATOM     11  C   UNL     1       0.708  10.492  19.840  0.00  0.00    +0.000 A 
ATOM     12  C   UNL     1       1.127   9.157  19.958  0.00  0.00    +0.000 A 
ATOM     13  C   UNL     1       1.729   8.336  18.839  0.00  0.00    +0.000 A 
ATOM     14  O   UNL     1       1.803   8.774  17.700  0.00  0.00    +0.000 OA
ATOM     15  C   UNL     1       2.215   6.985  19.207  0.00  0.00    +0.000 A 
ATOM     16  C   UNL     1       3.262   6.007  18.719  0.00  0.00    +0.000 C 
ENDROOT
BRANCH  16  17
ATOM     17  C   UNL     1       3.965   5.949  17.362  0.00  0.00    +0.000 A 
ATOM     18  C   UNL     1       3.910   4.709  16.674  0.00  0.00    +0.000 A 
ATOM     19  C   UNL     1       4.799   4.375  15.644  0.00  0.00    +0.000 A 
ATOM     20  C   UNL     1       5.784   5.276  15.240  0.00  0.00    +0.000 A 
ATOM     21  C   UNL     1       5.752   6.568  15.786  0.00  0.00    +0.000 A 
ATOM     22  C   UNL     1       4.845   6.904  16.832  0.00  0.00    +0.000 A 
BRANCH  20  23
ATOM     23  C   UNL     1       6.861   4.744  14.341  0.00  0.00    +0.000 C 
ATOM     24  O   UNL     1       6.803   3.624  13.846  0.00  0.00    +0.000 OA
BRANCH  23  25
ATOM     25  O   UNL     1       7.924   5.583  14.253  0.00  0.00    +0.000 OA
ATOM     26  C   UNL     1       8.384   5.790  12.907  0.00  0.00    +0.000 C 
ENDBRANCH  23  25
ENDBRANCH  20  23
ENDBRANCH  16  17
BRANCH   1  27
ATOM     27  C   UNL     1       3.536   3.498  19.476  0.00  0.00    +0.000 C 
BRANCH  27  28
ATOM     28  C   UNL     1       2.633   2.283  19.125  0.00  0.00    +0.000 C 
BRANCH  28  30
ATOM     29  C   UNL     1       4.380   0.828  18.500  0.00  0.00    +0.000 C 
ATOM     30  O   UNL     1       3.218   1.525  18.061  0.00  0.00    +0.000 OA
ENDBRANCH  28  30
ENDBRANCH  27  28
ENDBRANCH   1  27
TORSDOF 6
ENDMDL
