MODEL 1
REMARK VINA RESULT:      -6.8      0.000      0.000
REMARK  Name = 
REMARK  6 active torsions:
REMARK  status: ('A' for Active; 'I' for Inactive)
REMARK    1  A    between atoms: C_1  and  C_2
REMARK    2  A    between atoms: C_3  and  C_4
REMARK    3  A    between atoms: C_4  and  N_5
REMARK    4  A    between atoms: N_5  and  C_6
REMARK    5  A    between atoms: N_5  and  C_7
REMARK    6  A    between atoms: N_10  and  C_11
REMARK                            x       y       z     vdW  Elec       q    Type
REMARK                         _______ _______ _______ _____ _____    ______ ____
ROOT
ATOM      1  C   UNL     1       4.412   2.460  19.577  0.00  0.00    +0.000 C 
ATOM      2  C   UNL     1       4.021   3.871  19.291  0.00  0.00    +0.000 A 
ATOM      3  C   UNL     1       3.185   4.729  20.023  0.00  0.00    +0.000 A 
ATOM      4  C   UNL     1       3.108   5.903  19.260  0.00  0.00    +0.000 A 
ATOM      5  C   UNL     1       3.897   5.777  18.144  0.00  0.00    +0.000 A 
ATOM      6  N   UNL     1       4.489   4.556  18.170  0.00  0.00    +0.000 N 
ATOM      7  C   UNL     1       5.456   4.059  17.217  0.00  0.00    +0.000 C 
ATOM      8  C   UNL     1       3.861   6.946  17.305  0.00  0.00    +0.000 C 
ATOM      9  O   UNL     1       4.437   7.178  16.255  0.00  0.00    +0.000 OA
ATOM     10  C   UNL     1       2.913   7.854  18.031  0.00  0.00    +0.000 A 
ATOM     11  C   UNL     1       2.446   9.112  17.699  0.00  0.00    +0.000 A 
ATOM     12  C   UNL     1       1.522   9.704  18.573  0.00  0.00    +0.000 A 
ATOM     13  C   UNL     1       1.098   9.035  19.740  0.00  0.00    +0.000 A 
ATOM     14 BR   UNL     1      -0.171   9.854  20.882  0.00  0.00    +0.000 Br
ATOM     15  C   UNL     1       1.582   7.769  20.069  0.00  0.00    +0.000 A 
ATOM     16  C   UNL     1       2.486   7.191  19.203  0.00  0.00    +0.000 A 
ENDROOT
BRANCH   3  17
ATOM     17  C   UNL     1       2.511   4.476  21.340  0.00  0.00    +0.000 C 
BRANCH  17  18
ATOM     18  N   UNL     1       1.265   3.717  21.160  0.00  0.00    +0.000 NA
ATOM     19  C   UNL     1       0.859   3.619  19.760  0.00  0.00    +0.000 C 
ATOM     20  C   UNL     1       1.397   2.382  21.744  0.00  0.00    +0.000 C 
ENDBRANCH  17  18
ENDBRANCH   3  17
TORSDOF 2
ENDMDL
MODEL 2
REMARK VINA RESULT:      -6.6      1.080      1.291
REMARK  Name = 
REMARK  6 active torsions:
REMARK  status: ('A' for Active; 'I' for Inactive)
REMARK    1  A    between atoms: C_1  and  C_2
REMARK    2  A    between atoms: C_3  and  C_4
REMARK    3  A    between atoms: C_4  and  N_5
REMARK    4  A    between atoms: N_5  and  C_6
REMARK    5  A    between atoms: N_5  and  C_7
REMARK    6  A    between atoms: N_10  and  C_11
REMARK                            x       y       z     vdW  Elec       q    Type
REMARK                         _______ _______ _______ _____ _____    ______ ____
ROOT
ATOM      1  C   UNL     1       4.247   3.213  18.712  0.00  0.00    +0.000 C 
ATOM      2  C   UNL     1       3.683   4.583  18.882  0.00  0.00    +0.000 A 
ATOM      3  C   UNL     1       2.976   5.127  19.966  0.00  0.00    +0.000 A 
ATOM      4  C   UNL     1       2.622   6.421  19.558  0.00  0.00    +0.000 A 
ATOM      5  C   UNL     1       3.131   6.664  18.307  0.00  0.00    +0.000 A 
ATOM      6  N   UNL     1       3.812   5.564  17.898  0.00  0.00    +0.000 N 
ATOM      7  C   UNL     1       4.563   5.436  16.670  0.00  0.00    +0.000 C 
ATOM      8  C   UNL     1       2.799   7.977  17.819  0.00  0.00    +0.000 C 
ATOM      9  O   UNL     1       3.087   8.519  16.765  0.00  0.00    +0.000 OA
ATOM     10  C   UNL     1       1.978   8.554  18.933  0.00  0.00    +0.000 A 
ATOM     11  C   UNL     1       1.341   9.777  19.037  0.00  0.00    +0.000 A 
ATOM     12  C   UNL     1       0.605  10.020  20.206  0.00  0.00    +0.000 A 
ATOM     13  C   UNL     1       0.528   9.051  21.227  0.00  0.00    +0.000 A 
ATOM     14 BR   UNL     1      -0.496   9.403  22.780  0.00  0.00    +0.000 Br
ATOM     15  C   UNL     1       1.181   7.823  21.116  0.00  0.00    +0.000 A 
ATOM     16  C   UNL     1       1.899   7.589  19.962  0.00  0.00    +0.000 A 
ENDROOT
BRANCH   3  17
ATOM     17  C   UNL     1       2.658   4.489  21.287  0.00  0.00    +0.000 C 
BRANCH  17  18
ATOM     18  N   UNL     1       1.395   3.740  21.223  0.00  0.00    +0.000 NA
ATOM     19  C   UNL     1       0.861   3.646  19.866  0.00  0.00    +0.000 C 
ATOM     20  C   UNL     1       1.570   2.404  21.792  0.00  0.00    +0.000 C 
ENDBRANCH  17  18
ENDBRANCH   3  17
TORSDOF 2
ENDMDL
MODEL 3
REMARK VINA RESULT:      -6.3      5.497      8.069
REMARK  Name = 
REMARK  6 active torsions:
REMARK  status: ('A' for Active; 'I' for Inactive)
REMARK    1  A    between atoms: C_1  and  C_2
REMARK    2  A    between atoms: C_3  and  C_4
REMARK    3  A    between atoms: C_4  and  N_5
REMARK    4  A    between atoms: N_5  and  C_6
REMARK    5  A    between atoms: N_5  and  C_7
REMARK    6  A    between atoms: N_10  and  C_11
REMARK                            x       y       z     vdW  Elec       q    Type
REMARK                         _______ _______ _______ _____ _____    ______ ____
ROOT
ATOM      1  C   UNL     1       0.842   9.502  17.933  0.00  0.00    +0.000 C 
ATOM      2  C   UNL     1       0.071  10.148  19.034  0.00  0.00    +0.000 A 
ATOM      3  C   UNL     1      -0.946  11.112  18.962  0.00  0.00    +0.000 A 
ATOM      4  C   UNL     1      -1.258  11.415  20.295  0.00  0.00    +0.000 A 
ATOM      5  C   UNL     1      -0.499  10.636  21.132  0.00  0.00    +0.000 A 
ATOM      6  N   UNL     1       0.289   9.832  20.375  0.00  0.00    +0.000 N 
ATOM      7  C   UNL     1       1.183   8.808  20.868  0.00  0.00    +0.000 C 
ATOM      8  C   UNL     1      -0.761  10.899  22.523  0.00  0.00    +0.000 C 
ATOM      9  O   UNL     1      -0.278  10.393  23.522  0.00  0.00    +0.000 OA
ATOM     10  C   UNL     1      -1.795  11.983  22.473  0.00  0.00    +0.000 A 
ATOM     11  C   UNL     1      -2.416  12.677  23.495  0.00  0.00    +0.000 A 
ATOM     12  C   UNL     1      -3.329  13.678  23.129  0.00  0.00    +0.000 A 
ATOM     13  C   UNL     1      -3.596  13.952  21.772  0.00  0.00    +0.000 A 
ATOM     14 BR   UNL     1      -4.813  15.328  21.315  0.00  0.00    +0.000 Br
ATOM     15  C   UNL     1      -2.970  13.240  20.748  0.00  0.00    +0.000 A 
ATOM     16  C   UNL     1      -2.070  12.262  21.115  0.00  0.00    +0.000 A 
ENDROOT
BRANCH   3  17
ATOM     17  C   UNL     1      -1.585  11.706  17.740  0.00  0.00    +0.000 C 
BRANCH  17  18
ATOM     18  N   UNL     1      -2.723  10.892  17.289  0.00  0.00    +0.000 NA
ATOM     19  C   UNL     1      -4.013  11.468  17.664  0.00  0.00    +0.000 C 
ATOM     20  C   UNL     1      -2.659  10.692  15.841  0.00  0.00    +0.000 C 
ENDBRANCH  17  18
ENDBRANCH   3  17
TORSDOF 2
ENDMDL
MODEL 4
REMARK VINA RESULT:      -5.8      1.122      1.249
REMARK  Name = 
REMARK  6 active torsions:
REMARK  status: ('A' for Active; 'I' for Inactive)
REMARK    1  A    between atoms: C_1  and  C_2
REMARK    2  A    between atoms: C_3  and  C_4
REMARK    3  A    between atoms: C_4  and  N_5
REMARK    4  A    between atoms: N_5  and  C_6
REMARK    5  A    between atoms: N_5  and  C_7
REMARK    6  A    between atoms: N_10  and  C_11
REMARK                            x       y       z     vdW  Elec       q    Type
REMARK                         _______ _______ _______ _____ _____    ______ ____
ROOT
ATOM      1  C   UNL     1       4.566   1.630  17.747  0.00  0.00    +0.000 C 
ATOM      2  C   UNL     1       4.243   3.079  17.882  0.00  0.00    +0.000 A 
ATOM      3  C   UNL     1       3.537   3.743  18.897  0.00  0.00    +0.000 A 
ATOM      4  C   UNL     1       3.466   5.080  18.478  0.00  0.00    +0.000 A 
ATOM      5  C   UNL     1       4.139   5.225  17.291  0.00  0.00    +0.000 A 
ATOM      6  N   UNL     1       4.650   4.019  16.935  0.00  0.00    +0.000 N 
ATOM      7  C   UNL     1       5.490   3.756  15.789  0.00  0.00    +0.000 C 
ATOM      8  C   UNL     1       4.103   6.576  16.794  0.00  0.00    +0.000 C 
ATOM      9  O   UNL     1       4.593   7.055  15.786  0.00  0.00    +0.000 OA
ATOM     10  C   UNL     1       3.287   7.293  17.828  0.00  0.00    +0.000 A 
ATOM     11  C   UNL     1       2.874   8.612  17.886  0.00  0.00    +0.000 A 
ATOM     12  C   UNL     1       2.075   8.986  18.978  0.00  0.00    +0.000 A 
ATOM     13  C   UNL     1       1.718   8.048  19.968  0.00  0.00    +0.000 A 
ATOM     14 BR   UNL     1       0.616   8.582  21.412  0.00  0.00    +0.000 Br
ATOM     15  C   UNL     1       2.147   6.722  19.903  0.00  0.00    +0.000 A 
ATOM     16  C   UNL     1       2.927   6.360  18.825  0.00  0.00    +0.000 A 
ENDROOT
BRANCH   3  17
ATOM     17  C   UNL     1       2.972   3.176  20.166  0.00  0.00    +0.000 C 
BRANCH  17  18
ATOM     18  N   UNL     1       1.505   3.276  20.185  0.00  0.00    +0.000 NA
ATOM     19  C   UNL     1       0.872   2.507  19.115  0.00  0.00    +0.000 C 
ATOM     20  C   UNL     1       0.986   2.855  21.486  0.00  0.00    +0.000 C 
ENDBRANCH  17  18
ENDBRANCH   3  17
TORSDOF 2
ENDMDL
MODEL 5
REMARK VINA RESULT:      -5.8      4.222      5.819
REMARK  Name = 
REMARK  6 active torsions:
REMARK  status: ('A' for Active; 'I' for Inactive)
REMARK    1  A    between atoms: C_1  and  C_2
REMARK    2  A    between atoms: C_3  and  C_4
REMARK    3  A    between atoms: C_4  and  N_5
REMARK    4  A    between atoms: N_5  and  C_6
REMARK    5  A    between atoms: N_5  and  C_7
REMARK    6  A    between atoms: N_10  and  C_11
REMARK                            x       y       z     vdW  Elec       q    Type
REMARK                         _______ _______ _______ _____ _____    ______ ____
ROOT
ATOM      1  C   UNL     1       4.194   3.473  20.059  0.00  0.00    +0.000 C 
ATOM      2  C   UNL     1       4.726   3.834  18.713  0.00  0.00    +0.000 A 
ATOM      3  C   UNL     1       4.325   3.383  17.446  0.00  0.00    +0.000 A 
ATOM      4  C   UNL     1       5.213   3.987  16.545  0.00  0.00    +0.000 A 
ATOM      5  C   UNL     1       6.080   4.801  17.230  0.00  0.00    +0.000 A 
ATOM      6  N   UNL     1       5.769   4.746  18.550  0.00  0.00    +0.000 N 
ATOM      7  C   UNL     1       6.393   5.515  19.604  0.00  0.00    +0.000 C 
ATOM      8  C   UNL     1       7.030   5.451  16.366  0.00  0.00    +0.000 C 
ATOM      9  O   UNL     1       7.926   6.234  16.633  0.00  0.00    +0.000 OA
ATOM     10  C   UNL     1       6.668   4.926  15.009  0.00  0.00    +0.000 A 
ATOM     11  C   UNL     1       7.246   5.157  13.775  0.00  0.00    +0.000 A 
ATOM     12  C   UNL     1       6.699   4.482  12.674  0.00  0.00    +0.000 A 
ATOM     13  C   UNL     1       5.603   3.609  12.831  0.00  0.00    +0.000 A 
ATOM     14 BR   UNL     1       4.908   2.695  11.327  0.00  0.00    +0.000 Br
ATOM     15  C   UNL     1       5.022   3.389  14.080  0.00  0.00    +0.000 A 
ATOM     16  C   UNL     1       5.568   4.052  15.159  0.00  0.00    +0.000 A 
ENDROOT
BRANCH   3  17
ATOM     17  C   UNL     1       3.193   2.460  17.100  0.00  0.00    +0.000 C 
BRANCH  17  18
ATOM     18  N   UNL     1       1.893   3.090  17.371  0.00  0.00    +0.000 NA
ATOM     19  C   UNL     1       1.216   2.513  18.531  0.00  0.00    +0.000 C 
ATOM     20  C   UNL     1       2.057   4.533  17.546  0.00  0.00    +0.000 C 
ENDBRANCH  17  18
ENDBRANCH   3  17
TORSDOF 2
ENDMDL
MODEL 6
REMARK VINA RESULT:      -5.6      2.689      4.791
REMARK  Name = 
REMARK  6 active torsions:
REMARK  status: ('A' for Active; 'I' for Inactive)
REMARK    1  A    between atoms: C_1  and  C_2
REMARK    2  A    between atoms: C_3  and  C_4
REMARK    3  A    between atoms: C_4  and  N_5
REMARK    4  A    between atoms: N_5  and  C_6
REMARK    5  A    between atoms: N_5  and  C_7
REMARK    6  A    between atoms: N_10  and  C_11
REMARK                            x       y       z     vdW  Elec       q    Type
REMARK                         _______ _______ _______ _____ _____    ______ ____
ROOT
ATOM      1  C   UNL     1       7.226   4.973  15.261  0.00  0.00    +0.000 C 
ATOM      2  C   UNL     1       6.002   4.921  16.112  0.00  0.00    +0.000 A 
ATOM      3  C   UNL     1       5.444   5.916  16.930  0.00  0.00    +0.000 A 
ATOM      4  C   UNL     1       4.348   5.303  17.553  0.00  0.00    +0.000 A 
ATOM      5  C   UNL     1       4.222   4.015  17.099  0.00  0.00    +0.000 A 
ATOM      6  N   UNL     1       5.203   3.781  16.190  0.00  0.00    +0.000 N 
ATOM      7  C   UNL     1       5.378   2.571  15.419  0.00  0.00    +0.000 C 
ATOM      8  C   UNL     1       3.117   3.318  17.704  0.00  0.00    +0.000 C 
ATOM      9  O   UNL     1       2.717   2.179  17.531  0.00  0.00    +0.000 OA
ATOM     10  C   UNL     1       2.546   4.340  18.641  0.00  0.00    +0.000 A 
ATOM     11  C   UNL     1       1.491   4.251  19.529  0.00  0.00    +0.000 A 
ATOM     12  C   UNL     1       1.212   5.382  20.311  0.00  0.00    +0.000 A 
ATOM     13  C   UNL     1       1.983   6.556  20.184  0.00  0.00    +0.000 A 
ATOM     14 BR   UNL     1       1.596   8.054  21.275  0.00  0.00    +0.000 Br
ATOM     15  C   UNL     1       3.041   6.639  19.279  0.00  0.00    +0.000 A 
ATOM     16  C   UNL     1       3.312   5.521  18.517  0.00  0.00    +0.000 A 
ENDROOT
BRANCH   3  17
ATOM     17  C   UNL     1       5.895   7.336  17.113  0.00  0.00    +0.000 C 
BRANCH  17  18
ATOM     18  N   UNL     1       7.336   7.401  17.402  0.00  0.00    +0.000 NA
ATOM     19  C   UNL     1       7.798   8.762  17.667  0.00  0.00    +0.000 C 
ATOM     20  C   UNL     1       7.666   6.525  18.525  0.00  0.00    +0.000 C 
ENDBRANCH  17  18
ENDBRANCH   3  17
TORSDOF 2
ENDMDL
MODEL 7
REMARK VINA RESULT:      -5.6      6.987      9.895
REMARK  Name = 
REMARK  6 active torsions:
REMARK  status: ('A' for Active; 'I' for Inactive)
REMARK    1  A    between atoms: C_1  and  C_2
REMARK    2  A    between atoms: C_3  and  C_4
REMARK    3  A    between atoms: C_4  and  N_5
REMARK    4  A    between atoms: N_5  and  C_6
REMARK    5  A    between atoms: N_5  and  C_7
REMARK    6  A    between atoms: N_10  and  C_11
REMARK                            x       y       z     vdW  Elec       q    Type
REMARK                         _______ _______ _______ _____ _____    ______ ____
ROOT
ATOM      1  C   UNL     1      -1.364  14.008  23.640  0.00  0.00    +0.000 C 
ATOM      2  C   UNL     1      -2.209  13.520  22.513  0.00  0.00    +0.000 A 
ATOM      3  C   UNL     1      -1.839  12.781  21.378  0.00  0.00    +0.000 A 
ATOM      4  C   UNL     1      -3.012  12.667  20.618  0.00  0.00    +0.000 A 
ATOM      5  C   UNL     1      -4.051  13.266  21.285  0.00  0.00    +0.000 A 
ATOM      6  N   UNL     1      -3.582  13.758  22.460  0.00  0.00    +0.000 N 
ATOM      7  C   UNL     1      -4.370  14.397  23.490  0.00  0.00    +0.000 C 
ATOM      8  C   UNL     1      -5.292  13.194  20.558  0.00  0.00    +0.000 C 
ATOM      9  O   UNL     1      -6.400  13.611  20.852  0.00  0.00    +0.000 OA
ATOM     10  C   UNL     1      -4.906  12.471  19.303  0.00  0.00    +0.000 A 
ATOM     11  C   UNL     1      -5.661  12.134  18.195  0.00  0.00    +0.000 A 
ATOM     12  C   UNL     1      -5.001  11.481  17.143  0.00  0.00    +0.000 A 
ATOM     13  C   UNL     1      -3.625  11.184  17.226  0.00  0.00    +0.000 A 
ATOM     14 BR   UNL     1      -2.762  10.327  15.775  0.00  0.00    +0.000 Br
ATOM     15  C   UNL     1      -2.874  11.522  18.352  0.00  0.00    +0.000 A 
ATOM     16  C   UNL     1      -3.528  12.168  19.379  0.00  0.00    +0.000 A 
ENDROOT
BRANCH   3  17
ATOM     17  C   UNL     1      -0.492  12.219  21.028  0.00  0.00    +0.000 C 
BRANCH  17  18
ATOM     18  N   UNL     1      -0.493  10.751  21.109  0.00  0.00    +0.000 NA
ATOM     19  C   UNL     1       0.544  10.138  20.282  0.00  0.00    +0.000 C 
ATOM     20  C   UNL     1      -0.352  10.321  22.500  0.00  0.00    +0.000 C 
ENDBRANCH  17  18
ENDBRANCH   3  17
TORSDOF 2
ENDMDL
MODEL 8
REMARK VINA RESULT:      -5.6      6.404      8.767
REMARK  Name = 
REMARK  6 active torsions:
REMARK  status: ('A' for Active; 'I' for Inactive)
REMARK    1  A    between atoms: C_1  and  C_2
REMARK    2  A    between atoms: C_3  and  C_4
REMARK    3  A    between atoms: C_4  and  N_5
REMARK    4  A    between atoms: N_5  and  C_6
REMARK    5  A    between atoms: N_5  and  C_7
REMARK    6  A    between atoms: N_10  and  C_11
REMARK                            x       y       z     vdW  Elec       q    Type
REMARK                         _______ _______ _______ _____ _____    ______ ____
ROOT
ATOM      1  C   UNL     1      -0.038   9.940  18.011  0.00  0.00    +0.000 C 
ATOM      2  C   UNL     1      -1.262  10.696  18.406  0.00  0.00    +0.000 A 
ATOM      3  C   UNL     1      -1.517  11.427  19.576  0.00  0.00    +0.000 A 
ATOM      4  C   UNL     1      -2.845  11.862  19.452  0.00  0.00    +0.000 A 
ATOM      5  C   UNL     1      -3.351  11.453  18.244  0.00  0.00    +0.000 A 
ATOM      6  N   UNL     1      -2.383  10.773  17.579  0.00  0.00    +0.000 N 
ATOM      7  C   UNL     1      -2.484  10.240  16.239  0.00  0.00    +0.000 C 
ATOM      8  C   UNL     1      -4.718  11.859  18.050  0.00  0.00    +0.000 C 
ATOM      9  O   UNL     1      -5.466  11.674  17.104  0.00  0.00    +0.000 OA
ATOM     10  C   UNL     1      -5.040  12.581  19.324  0.00  0.00    +0.000 A 
ATOM     11  C   UNL     1      -6.218  13.169  19.747  0.00  0.00    +0.000 A 
ATOM     12  C   UNL     1      -6.223  13.746  21.027  0.00  0.00    +0.000 A 
ATOM     13  C   UNL     1      -5.068  13.723  21.835  0.00  0.00    +0.000 A 
ATOM     14 BR   UNL     1      -5.120  14.486  23.567  0.00  0.00    +0.000 Br
ATOM     15  C   UNL     1      -3.883  13.134  21.395  0.00  0.00    +0.000 A 
ATOM     16  C   UNL     1      -3.886  12.565  20.139  0.00  0.00    +0.000 A 
ENDROOT
BRANCH   3  17
ATOM     17  C   UNL     1      -0.592  11.704  20.725  0.00  0.00    +0.000 C 
BRANCH  17  18
ATOM     18  N   UNL     1      -0.606  10.600  21.696  0.00  0.00    +0.000 NA
ATOM     19  C   UNL     1       0.704   9.972  21.857  0.00  0.00    +0.000 C 
ATOM     20  C   UNL     1      -1.105  11.069  22.987  0.00  0.00    +0.000 C 
ENDBRANCH  17  18
ENDBRANCH   3  17
TORSDOF 2
ENDMDL
MODEL 9
REMARK VINA RESULT:      -5.6      7.307      9.999
REMARK  Name = 
REMARK  6 active torsions:
REMARK  status: ('A' for Active; 'I' for Inactive)
REMARK    1  A    between atoms: C_1  and  C_2
REMARK    2  A    between atoms: C_3  and  C_4
REMARK    3  A    between atoms: C_4  and  N_5
REMARK    4  A    between atoms: N_5  and  C_6
REMARK    5  A    between atoms: N_5  and  C_7
REMARK    6  A    between atoms: N_10  and  C_11
REMARK                            x       y       z     vdW  Elec       q    Type
REMARK                         _______ _______ _______ _____ _____    ______ ____
ROOT
ATOM      1  C   UNL     1      -5.134  14.314  23.373  0.00  0.00    +0.000 C 
ATOM      2  C   UNL     1      -4.167  13.686  22.428  0.00  0.00    +0.000 A 
ATOM      3  C   UNL     1      -4.385  13.182  21.136  0.00  0.00    +0.000 A 
ATOM      4  C   UNL     1      -3.151  12.643  20.742  0.00  0.00    +0.000 A 
ATOM      5  C   UNL     1      -2.222  12.853  21.729  0.00  0.00    +0.000 A 
ATOM      6  N   UNL     1      -2.819  13.522  22.748  0.00  0.00    +0.000 N 
ATOM      7  C   UNL     1      -2.170  14.003  23.946  0.00  0.00    +0.000 C 
ATOM      8  C   UNL     1      -0.928  12.316  21.396  0.00  0.00    +0.000 C 
ATOM      9  O   UNL     1       0.114  12.328  22.029  0.00  0.00    +0.000 OA
ATOM     10  C   UNL     1      -1.154  11.705  20.045  0.00  0.00    +0.000 A 
ATOM     11  C   UNL     1      -0.290  11.005  19.223  0.00  0.00    +0.000 A 
ATOM     12  C   UNL     1      -0.810  10.516  18.015  0.00  0.00    +0.000 A 
ATOM     13  C   UNL     1      -2.157  10.739  17.664  0.00  0.00    +0.000 A 
ATOM     14 BR   UNL     1      -2.831  10.041  16.038  0.00  0.00    +0.000 Br
ATOM     15  C   UNL     1      -3.018  11.453  18.498  0.00  0.00    +0.000 A 
ATOM     16  C   UNL     1      -2.502  11.927  19.685  0.00  0.00    +0.000 A 
ENDROOT
BRANCH   3  17
ATOM     17  C   UNL     1      -5.647  13.206  20.325  0.00  0.00    +0.000 C 
BRANCH  17  18
ATOM     18  N   UNL     1      -6.368  11.929  20.429  0.00  0.00    +0.000 NA
ATOM     19  C   UNL     1      -7.462  11.974  21.397  0.00  0.00    +0.000 C 
ATOM     20  C   UNL     1      -6.869  11.522  19.117  0.00  0.00    +0.000 C 
ENDBRANCH  17  18
ENDBRANCH   3  17
TORSDOF 2
ENDMDL
