MODEL 1
REMARK VINA RESULT:      -6.7      0.000      0.000
REMARK  Name = 
REMARK  8 active torsions:
REMARK  status: ('A' for Active; 'I' for Inactive)
REMARK    1  A    between atoms: C_1  and  C_2
REMARK    2  A    between atoms: C_2  and  O_3
REMARK    3  A    between atoms: O_3  and  C_4
REMARK    4  A    between atoms: C_4  and  C_6
REMARK    5  A    between atoms: N_9  and  N_10
REMARK    6  A    between atoms: C_11  and  C_12
REMARK    7  A    between atoms: C_11  and  C_13
REMARK    8  A    between atoms: C_20  and  C_21
REMARK                            x       y       z     vdW  Elec       q    Type
REMARK                         _______ _______ _______ _____ _____    ______ ____
ROOT
ATOM      1  C   UNL     1       3.966   5.426  18.802  0.00  0.00    +0.000 A 
ATOM      2  S   UNL     1       4.136   6.708  17.670  0.00  0.00    +0.000 S 
ATOM      3  C   UNL     1       2.691   7.438  18.258  0.00  0.00    +0.000 A 
ATOM      4  N   UNL     1       2.236   8.575  17.664  0.00  0.00    +0.000 N 
ATOM      5  N   UNL     1       2.140   6.806  19.269  0.00  0.00    +0.000 NA
ATOM      6  C   UNL     1       2.872   5.680  19.615  0.00  0.00    +0.000 A 
ATOM      7  C   UNL     1       2.386   4.883  20.775  0.00  0.00    +0.000 C 
ATOM      8  H   UNL     1       2.802   8.891  16.884  0.00  0.00    +0.000 HD
ENDROOT
BRANCH   4   9
ATOM      9  N   UNL     1       0.926   8.957  17.719  0.00  0.00    +0.000 NA
ATOM     10  C   UNL     1       0.610  10.122  18.206  0.00  0.00    +0.000 C 
ATOM     11  C   UNL     1       1.597  11.106  18.804  0.00  0.00    +0.000 C 
BRANCH  10  12
ATOM     12  C   UNL     1      -0.841  10.538  18.180  0.00  0.00    +0.000 A 
ATOM     13  C   UNL     1      -1.291  11.533  19.059  0.00  0.00    +0.000 A 
ATOM     14  C   UNL     1      -2.634  11.924  19.063  0.00  0.00    +0.000 A 
ATOM     15  C   UNL     1      -3.539  11.324  18.190  0.00  0.00    +0.000 A 
ATOM     16  C   UNL     1      -3.105  10.334  17.313  0.00  0.00    +0.000 A 
ATOM     17  C   UNL     1      -1.764   9.941  17.308  0.00  0.00    +0.000 A 
ENDBRANCH  10  12
ENDBRANCH   4   9
BRANCH   1  18
ATOM     18  C   UNL     1       4.884   4.313  18.751  0.00  0.00    +0.000 C 
ATOM     19  O   UNL     1       5.955   4.225  19.344  0.00  0.00    +0.000 OA
BRANCH  18  20
ATOM     20  O   UNL     1       4.437   3.385  17.854  0.00  0.00    +0.000 OA
BRANCH  20  22
ATOM     21  C   UNL     1       2.336   2.252  17.818  0.00  0.00    +0.000 C 
ATOM     22  C   UNL     1       3.738   2.260  18.399  0.00  0.00    +0.000 C 
ENDBRANCH  20  22
ENDBRANCH  18  20
ENDBRANCH   1  18
TORSDOF 5
ENDMDL
MODEL 2
REMARK VINA RESULT:      -6.4      1.170      1.621
REMARK  Name = 
REMARK  8 active torsions:
REMARK  status: ('A' for Active; 'I' for Inactive)
REMARK    1  A    between atoms: C_1  and  C_2
REMARK    2  A    between atoms: C_2  and  O_3
REMARK    3  A    between atoms: O_3  and  C_4
REMARK    4  A    between atoms: C_4  and  C_6
REMARK    5  A    between atoms: N_9  and  N_10
REMARK    6  A    between atoms: C_11  and  C_12
REMARK    7  A    between atoms: C_11  and  C_13
REMARK    8  A    between atoms: C_20  and  C_21
REMARK                            x       y       z     vdW  Elec       q    Type
REMARK                         _______ _______ _______ _____ _____    ______ ____
ROOT
ATOM      1  C   UNL     1       4.169   5.589  18.520  0.00  0.00    +0.000 A 
ATOM      2  S   UNL     1       4.272   6.950  17.475  0.00  0.00    +0.000 S 
ATOM      3  C   UNL     1       2.820   7.592  18.144  0.00  0.00    +0.000 A 
ATOM      4  N   UNL     1       2.316   8.751  17.639  0.00  0.00    +0.000 N 
ATOM      5  N   UNL     1       2.314   6.875  19.122  0.00  0.00    +0.000 NA
ATOM      6  C   UNL     1       3.088   5.753  19.373  0.00  0.00    +0.000 A 
ATOM      7  C   UNL     1       2.656   4.864  20.487  0.00  0.00    +0.000 C 
ATOM      8  H   UNL     1       2.852   9.137  16.870  0.00  0.00    +0.000 HD
ENDROOT
BRANCH   4   9
ATOM      9  N   UNL     1       0.996   9.086  17.750  0.00  0.00    +0.000 NA
ATOM     10  C   UNL     1       0.662  10.268  18.179  0.00  0.00    +0.000 C 
ATOM     11  C   UNL     1       1.640  11.326  18.651  0.00  0.00    +0.000 C 
BRANCH  10  12
ATOM     12  C   UNL     1      -0.804  10.627  18.216  0.00  0.00    +0.000 A 
ATOM     13  C   UNL     1      -1.257  11.597  19.120  0.00  0.00    +0.000 A 
ATOM     14  C   UNL     1      -2.613  11.935  19.182  0.00  0.00    +0.000 A 
ATOM     15  C   UNL     1      -3.528  11.305  18.342  0.00  0.00    +0.000 A 
ATOM     16  C   UNL     1      -3.092  10.339  17.439  0.00  0.00    +0.000 A 
ATOM     17  C   UNL     1      -1.738   9.999  17.377  0.00  0.00    +0.000 A 
ENDBRANCH  10  12
ENDBRANCH   4   9
BRANCH   1  18
ATOM     18  C   UNL     1       5.120   4.512  18.373  0.00  0.00    +0.000 C 
ATOM     19  O   UNL     1       5.641   3.872  19.281  0.00  0.00    +0.000 OA
BRANCH  18  20
ATOM     20  O   UNL     1       5.445   4.360  17.056  0.00  0.00    +0.000 OA
BRANCH  20  22
ATOM     21  C   UNL     1       6.932   4.654  15.210  0.00  0.00    +0.000 C 
ATOM     22  C   UNL     1       6.828   4.530  16.719  0.00  0.00    +0.000 C 
ENDBRANCH  20  22
ENDBRANCH  18  20
ENDBRANCH   1  18
TORSDOF 5
ENDMDL
MODEL 3
REMARK VINA RESULT:      -6.4      0.938      2.167
REMARK  Name = 
REMARK  8 active torsions:
REMARK  status: ('A' for Active; 'I' for Inactive)
REMARK    1  A    between atoms: C_1  and  C_2
REMARK    2  A    between atoms: C_2  and  O_3
REMARK    3  A    between atoms: O_3  and  C_4
REMARK    4  A    between atoms: C_4  and  C_6
REMARK    5  A    between atoms: N_9  and  N_10
REMARK    6  A    between atoms: C_11  and  C_12
REMARK    7  A    between atoms: C_11  and  C_13
REMARK    8  A    between atoms: C_20  and  C_21
REMARK                            x       y       z     vdW  Elec       q    Type
REMARK                         _______ _______ _______ _____ _____    ______ ____
ROOT
ATOM      1  C   UNL     1       3.984   5.364  18.619  0.00  0.00    +0.000 A 
ATOM      2  S   UNL     1       4.130   6.701  17.549  0.00  0.00    +0.000 S 
ATOM      3  C   UNL     1       2.735   7.431  18.246  0.00  0.00    +0.000 A 
ATOM      4  N   UNL     1       2.280   8.608  17.737  0.00  0.00    +0.000 N 
ATOM      5  N   UNL     1       2.218   6.758  19.249  0.00  0.00    +0.000 NA
ATOM      6  C   UNL     1       2.937   5.599  19.498  0.00  0.00    +0.000 A 
ATOM      7  C   UNL     1       2.489   4.751  20.637  0.00  0.00    +0.000 C 
ATOM      8  H   UNL     1       2.815   8.953  16.947  0.00  0.00    +0.000 HD
ENDROOT
BRANCH   4   9
ATOM      9  N   UNL     1       0.984   9.017  17.877  0.00  0.00    +0.000 NA
ATOM     10  C   UNL     1       0.726  10.235  18.254  0.00  0.00    +0.000 C 
ATOM     11  C   UNL     1       1.773  11.264  18.632  0.00  0.00    +0.000 C 
BRANCH  10  12
ATOM     12  C   UNL     1      -0.718  10.670  18.325  0.00  0.00    +0.000 A 
ATOM     13  C   UNL     1      -1.665  10.066  17.487  0.00  0.00    +0.000 A 
ATOM     14  C   UNL     1      -3.006  10.464  17.526  0.00  0.00    +0.000 A 
ATOM     15  C   UNL     1      -3.411  11.469  18.400  0.00  0.00    +0.000 A 
ATOM     16  C   UNL     1      -2.480  12.078  19.238  0.00  0.00    +0.000 A 
ATOM     17  C   UNL     1      -1.140  11.683  19.200  0.00  0.00    +0.000 A 
ENDBRANCH  10  12
ENDBRANCH   4   9
BRANCH   1  18
ATOM     18  C   UNL     1       4.870   4.234  18.463  0.00  0.00    +0.000 C 
ATOM     19  O   UNL     1       4.596   3.162  17.934  0.00  0.00    +0.000 OA
BRANCH  18  20
ATOM     20  O   UNL     1       6.057   4.489  19.087  0.00  0.00    +0.000 OA
BRANCH  20  22
ATOM     21  C   UNL     1       7.812   6.092  18.855  0.00  0.00    +0.000 C 
ATOM     22  C   UNL     1       7.150   4.870  18.243  0.00  0.00    +0.000 C 
ENDBRANCH  20  22
ENDBRANCH  18  20
ENDBRANCH   1  18
TORSDOF 5
ENDMDL
MODEL 4
REMARK VINA RESULT:      -6.4      1.333      2.379
REMARK  Name = 
REMARK  8 active torsions:
REMARK  status: ('A' for Active; 'I' for Inactive)
REMARK    1  A    between atoms: C_1  and  C_2
REMARK    2  A    between atoms: C_2  and  O_3
REMARK    3  A    between atoms: O_3  and  C_4
REMARK    4  A    between atoms: C_4  and  C_6
REMARK    5  A    between atoms: N_9  and  N_10
REMARK    6  A    between atoms: C_11  and  C_12
REMARK    7  A    between atoms: C_11  and  C_13
REMARK    8  A    between atoms: C_20  and  C_21
REMARK                            x       y       z     vdW  Elec       q    Type
REMARK                         _______ _______ _______ _____ _____    ______ ____
ROOT
ATOM      1  C   UNL     1       4.173   5.458  17.446  0.00  0.00    +0.000 A 
ATOM      2  S   UNL     1       4.401   7.153  17.285  0.00  0.00    +0.000 S 
ATOM      3  C   UNL     1       2.802   7.439  17.857  0.00  0.00    +0.000 A 
ATOM      4  N   UNL     1       2.338   8.717  17.915  0.00  0.00    +0.000 N 
ATOM      5  N   UNL     1       2.151   6.351  18.202  0.00  0.00    +0.000 NA
ATOM      6  C   UNL     1       2.928   5.219  18.009  0.00  0.00    +0.000 A 
ATOM      7  C   UNL     1       2.332   3.911  18.395  0.00  0.00    +0.000 C 
ATOM      8  H   UNL     1       2.998   9.413  17.584  0.00  0.00    +0.000 HD
ENDROOT
BRANCH   4   9
ATOM      9  N   UNL     1       1.006   9.016  17.894  0.00  0.00    +0.000 NA
ATOM     10  C   UNL     1       0.598  10.186  18.291  0.00  0.00    +0.000 C 
ATOM     11  C   UNL     1       1.494  11.267  18.862  0.00  0.00    +0.000 C 
BRANCH  10  12
ATOM     12  C   UNL     1      -0.874  10.504  18.182  0.00  0.00    +0.000 A 
ATOM     13  C   UNL     1      -1.662   9.824  17.243  0.00  0.00    +0.000 A 
ATOM     14  C   UNL     1      -3.025  10.114  17.114  0.00  0.00    +0.000 A 
ATOM     15  C   UNL     1      -3.611  11.086  17.921  0.00  0.00    +0.000 A 
ATOM     16  C   UNL     1      -2.840  11.770  18.857  0.00  0.00    +0.000 A 
ATOM     17  C   UNL     1      -1.478  11.483  18.986  0.00  0.00    +0.000 A 
ENDBRANCH  10  12
ENDBRANCH   4   9
BRANCH   1  18
ATOM     18  C   UNL     1       5.203   4.559  16.981  0.00  0.00    +0.000 C 
ATOM     19  O   UNL     1       5.267   4.038  15.872  0.00  0.00    +0.000 OA
BRANCH  18  20
ATOM     20  O   UNL     1       6.068   4.281  18.000  0.00  0.00    +0.000 OA
BRANCH  20  22
ATOM     21  C   UNL     1       7.699   5.885  18.685  0.00  0.00    +0.000 C 
ATOM     22  C   UNL     1       7.430   4.680  17.803  0.00  0.00    +0.000 C 
ENDBRANCH  20  22
ENDBRANCH  18  20
ENDBRANCH   1  18
TORSDOF 5
ENDMDL
MODEL 5
REMARK VINA RESULT:      -6.4      1.451      1.982
REMARK  Name = 
REMARK  8 active torsions:
REMARK  status: ('A' for Active; 'I' for Inactive)
REMARK    1  A    between atoms: C_1  and  C_2
REMARK    2  A    between atoms: C_2  and  O_3
REMARK    3  A    between atoms: O_3  and  C_4
REMARK    4  A    between atoms: C_4  and  C_6
REMARK    5  A    between atoms: N_9  and  N_10
REMARK    6  A    between atoms: C_11  and  C_12
REMARK    7  A    between atoms: C_11  and  C_13
REMARK    8  A    between atoms: C_20  and  C_21
REMARK                            x       y       z     vdW  Elec       q    Type
REMARK                         _______ _______ _______ _____ _____    ______ ____
ROOT
ATOM      1  C   UNL     1       4.033   5.401  17.990  0.00  0.00    +0.000 A 
ATOM      2  S   UNL     1       4.410   7.047  17.672  0.00  0.00    +0.000 S 
ATOM      3  C   UNL     1       2.781   7.500  18.000  0.00  0.00    +0.000 A 
ATOM      4  N   UNL     1       2.415   8.803  17.857  0.00  0.00    +0.000 N 
ATOM      5  N   UNL     1       2.011   6.505  18.377  0.00  0.00    +0.000 NA
ATOM      6  C   UNL     1       2.715   5.311  18.412  0.00  0.00    +0.000 A 
ATOM      7  C   UNL     1       1.977   4.098  18.861  0.00  0.00    +0.000 C 
ATOM      8  H   UNL     1       3.161   9.411  17.537  0.00  0.00    +0.000 HD
ENDROOT
BRANCH   4   9
ATOM      9  N   UNL     1       1.122   9.180  17.632  0.00  0.00    +0.000 NA
ATOM     10  C   UNL     1       0.474   9.845  18.543  0.00  0.00    +0.000 C 
ATOM     11  C   UNL     1       1.021  10.195  19.913  0.00  0.00    +0.000 C 
BRANCH  10  12
ATOM     12  C   UNL     1      -0.928  10.310  18.228  0.00  0.00    +0.000 A 
ATOM     13  C   UNL     1      -1.596   9.788  17.111  0.00  0.00    +0.000 A 
ATOM     14  C   UNL     1      -2.889  10.215  16.792  0.00  0.00    +0.000 A 
ATOM     15  C   UNL     1      -3.526  11.167  17.585  0.00  0.00    +0.000 A 
ATOM     16  C   UNL     1      -2.874  11.694  18.697  0.00  0.00    +0.000 A 
ATOM     17  C   UNL     1      -1.581  11.270  19.016  0.00  0.00    +0.000 A 
ENDBRANCH  10  12
ENDBRANCH   4   9
BRANCH   1  18
ATOM     18  C   UNL     1       5.038   4.390  17.763  0.00  0.00    +0.000 C 
ATOM     19  O   UNL     1       5.988   4.130  18.495  0.00  0.00    +0.000 OA
BRANCH  18  20
ATOM     20  O   UNL     1       4.843   3.809  16.543  0.00  0.00    +0.000 OA
BRANCH  20  22
ATOM     21  C   UNL     1       5.806   4.907  14.654  0.00  0.00    +0.000 C 
ATOM     22  C   UNL     1       5.972   3.785  15.662  0.00  0.00    +0.000 C 
ENDBRANCH  20  22
ENDBRANCH  18  20
ENDBRANCH   1  18
TORSDOF 5
ENDMDL
MODEL 6
REMARK VINA RESULT:      -6.3      1.709      1.928
REMARK  Name = 
REMARK  8 active torsions:
REMARK  status: ('A' for Active; 'I' for Inactive)
REMARK    1  A    between atoms: C_1  and  C_2
REMARK    2  A    between atoms: C_2  and  O_3
REMARK    3  A    between atoms: O_3  and  C_4
REMARK    4  A    between atoms: C_4  and  C_6
REMARK    5  A    between atoms: N_9  and  N_10
REMARK    6  A    between atoms: C_11  and  C_12
REMARK    7  A    between atoms: C_11  and  C_13
REMARK    8  A    between atoms: C_20  and  C_21
REMARK                            x       y       z     vdW  Elec       q    Type
REMARK                         _______ _______ _______ _____ _____    ______ ____
ROOT
ATOM      1  C   UNL     1       3.997   5.411  17.639  0.00  0.00    +0.000 A 
ATOM      2  S   UNL     1       4.412   7.078  17.599  0.00  0.00    +0.000 S 
ATOM      3  C   UNL     1       2.771   7.510  17.893  0.00  0.00    +0.000 A 
ATOM      4  N   UNL     1       2.430   8.827  17.926  0.00  0.00    +0.000 N 
ATOM      5  N   UNL     1       1.967   6.486  18.067  0.00  0.00    +0.000 NA
ATOM      6  C   UNL     1       2.654   5.286  17.962  0.00  0.00    +0.000 A 
ATOM      7  C   UNL     1       1.875   4.035  18.177  0.00  0.00    +0.000 C 
ATOM      8  H   UNL     1       3.202   9.460  17.749  0.00  0.00    +0.000 HD
ENDROOT
BRANCH   4   9
ATOM      9  N   UNL     1       1.158   9.261  17.684  0.00  0.00    +0.000 NA
ATOM     10  C   UNL     1       0.459   9.789  18.646  0.00  0.00    +0.000 C 
ATOM     11  C   UNL     1       0.921   9.910  20.085  0.00  0.00    +0.000 C 
BRANCH  10  12
ATOM     12  C   UNL     1      -0.914  10.326  18.321  0.00  0.00    +0.000 A 
ATOM     13  C   UNL     1      -1.485  11.310  19.140  0.00  0.00    +0.000 A 
ATOM     14  C   UNL     1      -2.762  11.811  18.867  0.00  0.00    +0.000 A 
ATOM     15  C   UNL     1      -3.480  11.332  17.774  0.00  0.00    +0.000 A 
ATOM     16  C   UNL     1      -2.926  10.353  16.953  0.00  0.00    +0.000 A 
ATOM     17  C   UNL     1      -1.651   9.850  17.226  0.00  0.00    +0.000 A 
ENDBRANCH  10  12
ENDBRANCH   4   9
BRANCH   1  18
ATOM     18  C   UNL     1       5.003   4.425  17.323  0.00  0.00    +0.000 C 
ATOM     19  O   UNL     1       5.827   3.951  18.099  0.00  0.00    +0.000 OA
BRANCH  18  20
ATOM     20  O   UNL     1       4.978   4.153  15.985  0.00  0.00    +0.000 OA
BRANCH  20  22
ATOM     21  C   UNL     1       5.994   3.882  13.841  0.00  0.00    +0.000 C 
ATOM     22  C   UNL     1       6.243   4.162  15.312  0.00  0.00    +0.000 C 
ENDBRANCH  20  22
ENDBRANCH  18  20
ENDBRANCH   1  18
TORSDOF 5
ENDMDL
MODEL 7
REMARK VINA RESULT:      -6.3      3.066      4.011
REMARK  Name = 
REMARK  8 active torsions:
REMARK  status: ('A' for Active; 'I' for Inactive)
REMARK    1  A    between atoms: C_1  and  C_2
REMARK    2  A    between atoms: C_2  and  O_3
REMARK    3  A    between atoms: O_3  and  C_4
REMARK    4  A    between atoms: C_4  and  C_6
REMARK    5  A    between atoms: N_9  and  N_10
REMARK    6  A    between atoms: C_11  and  C_12
REMARK    7  A    between atoms: C_11  and  C_13
REMARK    8  A    between atoms: C_20  and  C_21
REMARK                            x       y       z     vdW  Elec       q    Type
REMARK                         _______ _______ _______ _____ _____    ______ ____
ROOT
ATOM      1  C   UNL     1       5.995   5.210  17.054  0.00  0.00    +0.000 A 
ATOM      2  S   UNL     1       4.386   4.607  17.108  0.00  0.00    +0.000 S 
ATOM      3  C   UNL     1       3.860   6.039  17.909  0.00  0.00    +0.000 A 
ATOM      4  N   UNL     1       2.559   6.141  18.293  0.00  0.00    +0.000 N 
ATOM      5  N   UNL     1       4.803   6.937  18.080  0.00  0.00    +0.000 NA
ATOM      6  C   UNL     1       6.014   6.498  17.568  0.00  0.00    +0.000 A 
ATOM      7  C   UNL     1       7.169   7.433  17.656  0.00  0.00    +0.000 C 
ATOM      8  H   UNL     1       1.998   5.323  18.082  0.00  0.00    +0.000 HD
ENDROOT
BRANCH   4   9
ATOM      9  N   UNL     1       2.155   6.968  19.303  0.00  0.00    +0.000 NA
ATOM     10  C   UNL     1       1.695   8.153  19.025  0.00  0.00    +0.000 C 
ATOM     11  C   UNL     1       1.626   8.750  17.633  0.00  0.00    +0.000 C 
BRANCH  10  12
ATOM     12  C   UNL     1       1.189   9.008  20.162  0.00  0.00    +0.000 A 
ATOM     13  C   UNL     1       1.180   8.492  21.465  0.00  0.00    +0.000 A 
ATOM     14  C   UNL     1       0.702   9.261  22.532  0.00  0.00    +0.000 A 
ATOM     15  C   UNL     1       0.228  10.551  22.304  0.00  0.00    +0.000 A 
ATOM     16  C   UNL     1       0.231  11.075  21.015  0.00  0.00    +0.000 A 
ATOM     17  C   UNL     1       0.707  10.308  19.948  0.00  0.00    +0.000 A 
ENDBRANCH  10  12
ENDBRANCH   4   9
BRANCH   1  18
ATOM     18  C   UNL     1       7.051   4.361  16.556  0.00  0.00    +0.000 C 
ATOM     19  O   UNL     1       8.180   4.252  17.025  0.00  0.00    +0.000 OA
BRANCH  18  20
ATOM     20  O   UNL     1       6.648   3.750  15.404  0.00  0.00    +0.000 OA
BRANCH  20  22
ATOM     21  C   UNL     1       5.989   3.821  13.109  0.00  0.00    +0.000 C 
ATOM     22  C   UNL     1       6.790   4.511  14.198  0.00  0.00    +0.000 C 
ENDBRANCH  20  22
ENDBRANCH  18  20
ENDBRANCH   1  18
TORSDOF 5
ENDMDL
MODEL 8
REMARK VINA RESULT:      -6.3      1.280      2.095
REMARK  Name = 
REMARK  8 active torsions:
REMARK  status: ('A' for Active; 'I' for Inactive)
REMARK    1  A    between atoms: C_1  and  C_2
REMARK    2  A    between atoms: C_2  and  O_3
REMARK    3  A    between atoms: O_3  and  C_4
REMARK    4  A    between atoms: C_4  and  C_6
REMARK    5  A    between atoms: N_9  and  N_10
REMARK    6  A    between atoms: C_11  and  C_12
REMARK    7  A    between atoms: C_11  and  C_13
REMARK    8  A    between atoms: C_20  and  C_21
REMARK                            x       y       z     vdW  Elec       q    Type
REMARK                         _______ _______ _______ _____ _____    ______ ____
ROOT
ATOM      1  C   UNL     1       4.153   5.506  17.626  0.00  0.00    +0.000 A 
ATOM      2  S   UNL     1       4.382   7.178  17.304  0.00  0.00    +0.000 S 
ATOM      3  C   UNL     1       2.790   7.520  17.865  0.00  0.00    +0.000 A 
ATOM      4  N   UNL     1       2.330   8.800  17.808  0.00  0.00    +0.000 N 
ATOM      5  N   UNL     1       2.142   6.472  18.318  0.00  0.00    +0.000 NA
ATOM      6  C   UNL     1       2.915   5.324  18.223  0.00  0.00    +0.000 A 
ATOM      7  C   UNL     1       2.321   4.060  18.738  0.00  0.00    +0.000 C 
ATOM      8  H   UNL     1       2.986   9.459  17.405  0.00  0.00    +0.000 HD
ENDROOT
BRANCH   4   9
ATOM      9  N   UNL     1       0.997   9.099  17.774  0.00  0.00    +0.000 NA
ATOM     10  C   UNL     1       0.562  10.185  18.343  0.00  0.00    +0.000 C 
ATOM     11  C   UNL     1       1.423  11.154  19.130  0.00  0.00    +0.000 C 
BRANCH  10  12
ATOM     12  C   UNL     1      -0.905  10.518  18.219  0.00  0.00    +0.000 A 
ATOM     13  C   UNL     1      -1.461  11.511  19.037  0.00  0.00    +0.000 A 
ATOM     14  C   UNL     1      -2.821  11.827  18.950  0.00  0.00    +0.000 A 
ATOM     15  C   UNL     1      -3.637  11.152  18.046  0.00  0.00    +0.000 A 
ATOM     16  C   UNL     1      -3.098  10.163  17.228  0.00  0.00    +0.000 A 
ATOM     17  C   UNL     1      -1.740   9.845  17.314  0.00  0.00    +0.000 A 
ENDBRANCH  10  12
ENDBRANCH   4   9
BRANCH   1  18
ATOM     18  C   UNL     1       5.176   4.565  17.236  0.00  0.00    +0.000 C 
ATOM     19  O   UNL     1       5.207   3.912  16.197  0.00  0.00    +0.000 OA
BRANCH  18  20
ATOM     20  O   UNL     1       6.080   4.419  18.248  0.00  0.00    +0.000 OA
BRANCH  20  22
ATOM     21  C   UNL     1       7.726   6.057  18.807  0.00  0.00    +0.000 C 
ATOM     22  C   UNL     1       7.423   4.831  17.965  0.00  0.00    +0.000 C 
ENDBRANCH  20  22
ENDBRANCH  18  20
ENDBRANCH   1  18
TORSDOF 5
ENDMDL
MODEL 9
REMARK VINA RESULT:      -6.3      6.254      8.237
REMARK  Name = 
REMARK  8 active torsions:
REMARK  status: ('A' for Active; 'I' for Inactive)
REMARK    1  A    between atoms: C_1  and  C_2
REMARK    2  A    between atoms: C_2  and  O_3
REMARK    3  A    between atoms: O_3  and  C_4
REMARK    4  A    between atoms: C_4  and  C_6
REMARK    5  A    between atoms: N_9  and  N_10
REMARK    6  A    between atoms: C_11  and  C_12
REMARK    7  A    between atoms: C_11  and  C_13
REMARK    8  A    between atoms: C_20  and  C_21
REMARK                            x       y       z     vdW  Elec       q    Type
REMARK                         _______ _______ _______ _____ _____    ______ ____
ROOT
ATOM      1  C   UNL     1       6.574   5.670  17.583  0.00  0.00    +0.000 A 
ATOM      2  S   UNL     1       7.768   6.017  18.769  0.00  0.00    +0.000 S 
ATOM      3  C   UNL     1       7.794   7.669  18.281  0.00  0.00    +0.000 A 
ATOM      4  N   UNL     1       8.665   8.523  18.884  0.00  0.00    +0.000 N 
ATOM      5  N   UNL     1       6.932   7.965  17.335  0.00  0.00    +0.000 NA
ATOM      6  C   UNL     1       6.205   6.848  16.951  0.00  0.00    +0.000 A 
ATOM      7  C   UNL     1       5.159   7.042  15.910  0.00  0.00    +0.000 C 
ATOM      8  H   UNL     1       9.259   8.087  19.581  0.00  0.00    +0.000 HD
ENDROOT
BRANCH   4   9
ATOM      9  N   UNL     1       9.094   9.675  18.288  0.00  0.00    +0.000 NA
ATOM     10  C   UNL     1       9.461  10.685  19.020  0.00  0.00    +0.000 C 
ATOM     11  C   UNL     1       9.390  10.728  20.534  0.00  0.00    +0.000 C 
BRANCH  10  12
ATOM     12  C   UNL     1      10.000  11.913  18.327  0.00  0.00    +0.000 A 
ATOM     13  C   UNL     1       9.255  13.101  18.344  0.00  0.00    +0.000 A 
ATOM     14  C   UNL     1       9.728  14.247  17.695  0.00  0.00    +0.000 A 
ATOM     15  C   UNL     1      10.947  14.215  17.023  0.00  0.00    +0.000 A 
ATOM     16  C   UNL     1      11.696  13.042  16.997  0.00  0.00    +0.000 A 
ATOM     17  C   UNL     1      11.225  11.896  17.643  0.00  0.00    +0.000 A 
ENDBRANCH  10  12
ENDBRANCH   4   9
BRANCH   1  18
ATOM     18  C   UNL     1       6.159   4.302  17.378  0.00  0.00    +0.000 C 
ATOM     19  O   UNL     1       6.030   3.735  16.297  0.00  0.00    +0.000 OA
BRANCH  18  20
ATOM     20  O   UNL     1       5.824   3.736  18.574  0.00  0.00    +0.000 OA
BRANCH  20  22
ATOM     21  C   UNL     1       4.277   2.482  19.891  0.00  0.00    +0.000 C 
ATOM     22  C   UNL     1       4.426   3.544  18.818  0.00  0.00    +0.000 C 
ENDBRANCH  20  22
ENDBRANCH  18  20
ENDBRANCH   1  18
TORSDOF 5
ENDMDL
