MODEL 1
REMARK VINA RESULT:      -6.9      0.000      0.000
REMARK  Name = 
REMARK  7 active torsions:
REMARK  status: ('A' for Active; 'I' for Inactive)
REMARK    1  A    between atoms: C_1  and  O_2
REMARK    2  A    between atoms: O_2  and  C_3
REMARK    3  A    between atoms: C_7  and  O_8
REMARK    4  A    between atoms: C_9  and  C_10
REMARK    5  A    between atoms: C_10  and  O_12
REMARK    6  A    between atoms: O_12  and  C_13
REMARK    7  A    between atoms: C_13  and  C_14
REMARK                            x       y       z     vdW  Elec       q    Type
REMARK                         _______ _______ _______ _____ _____    ______ ____
ROOT
ATOM      1  C   UNL     1       2.727   4.736  19.788  0.00  0.00    +0.000 A 
ATOM      2  C   UNL     1       2.311   4.634  21.133  0.00  0.00    +0.000 A 
ATOM      3  C   UNL     1       1.749   3.461  21.632  0.00  0.00    +0.000 A 
ATOM      4  C   UNL     1       1.644   2.353  20.807  0.00  0.00    +0.000 A 
ATOM      5  C   UNL     1       2.123   2.416  19.495  0.00  0.00    +0.000 A 
ATOM      6  C   UNL     1       2.668   3.601  18.956  0.00  0.00    +0.000 A 
ENDROOT
BRANCH   1   8
ATOM      7  C   UNL     1       2.349   7.058  19.557  0.00  0.00    +0.000 C 
ATOM      8  O   UNL     1       3.179   5.929  19.277  0.00  0.00    +0.000 OA
ENDBRANCH   1   8
BRANCH   5   9
ATOM      9  O   UNL     1       2.063   1.265  18.750  0.00  0.00    +0.000 OA
ATOM     10  H   UNL     1       1.525   0.603  19.211  0.00  0.00    +0.000 HD
ENDBRANCH   5   9
BRANCH   6  11
ATOM     11  C   UNL     1       3.035   3.615  17.502  0.00  0.00    +0.000 C 
ATOM     12  O   UNL     1       2.187   3.552  16.618  0.00  0.00    +0.000 OA
BRANCH  11  13
ATOM     13  O   UNL     1       4.374   3.648  17.274  0.00  0.00    +0.000 OA
BRANCH  13  14
ATOM     14  C   UNL     1       4.858   4.822  16.574  0.00  0.00    +0.000 C 
BRANCH  14  15
ATOM     15  C   UNL     1       5.960   5.585  17.289  0.00  0.00    +0.000 A 
ATOM     16  C   UNL     1       6.422   6.827  16.850  0.00  0.00    +0.000 A 
ATOM     17  C   UNL     1       7.475   7.473  17.509  0.00  0.00    +0.000 A 
ATOM     18  C   UNL     1       8.072   6.888  18.623  0.00  0.00    +0.000 A 
ATOM     19  C   UNL     1       7.610   5.660  19.091  0.00  0.00    +0.000 A 
ATOM     20  C   UNL     1       6.563   5.018  18.434  0.00  0.00    +0.000 A 
ENDBRANCH  14  15
ENDBRANCH  13  14
ENDBRANCH  11  13
ENDBRANCH   6  11
TORSDOF 6
ENDMDL
MODEL 2
REMARK VINA RESULT:      -6.9      1.784      5.506
REMARK  Name = 
REMARK  7 active torsions:
REMARK  status: ('A' for Active; 'I' for Inactive)
REMARK    1  A    between atoms: C_1  and  O_2
REMARK    2  A    between atoms: O_2  and  C_3
REMARK    3  A    between atoms: C_7  and  O_8
REMARK    4  A    between atoms: C_9  and  C_10
REMARK    5  A    between atoms: C_10  and  O_12
REMARK    6  A    between atoms: O_12  and  C_13
REMARK    7  A    between atoms: C_13  and  C_14
REMARK                            x       y       z     vdW  Elec       q    Type
REMARK                         _______ _______ _______ _____ _____    ______ ____
ROOT
ATOM      1  C   UNL     1       6.139   4.459  16.794  0.00  0.00    +0.000 A 
ATOM      2  C   UNL     1       7.486   4.616  17.186  0.00  0.00    +0.000 A 
ATOM      3  C   UNL     1       7.823   5.163  18.423  0.00  0.00    +0.000 A 
ATOM      4  C   UNL     1       6.818   5.510  19.310  0.00  0.00    +0.000 A 
ATOM      5  C   UNL     1       5.480   5.288  18.966  0.00  0.00    +0.000 A 
ATOM      6  C   UNL     1       5.111   4.764  17.708  0.00  0.00    +0.000 A 
ENDROOT
BRANCH   1   8
ATOM      7  C   UNL     1       6.667   4.505  14.490  0.00  0.00    +0.000 C 
ATOM      8  O   UNL     1       5.816   4.021  15.533  0.00  0.00    +0.000 OA
ENDBRANCH   1   8
BRANCH   5   9
ATOM      9  O   UNL     1       4.533   5.578  19.915  0.00  0.00    +0.000 OA
ATOM     10  H   UNL     1       4.288   6.515  19.858  0.00  0.00    +0.000 HD
ENDBRANCH   5   9
BRANCH   6  11
ATOM     11  C   UNL     1       3.651   4.683  17.376  0.00  0.00    +0.000 C 
ATOM     12  O   UNL     1       2.881   5.611  17.601  0.00  0.00    +0.000 OA
BRANCH  11  13
ATOM     13  O   UNL     1       3.271   3.482  16.865  0.00  0.00    +0.000 OA
BRANCH  13  14
ATOM     14  C   UNL     1       3.354   2.362  17.781  0.00  0.00    +0.000 C 
BRANCH  14  15
ATOM     15  C   UNL     1       2.613   2.551  19.095  0.00  0.00    +0.000 A 
ATOM     16  C   UNL     1       1.250   2.843  19.154  0.00  0.00    +0.000 A 
ATOM     17  C   UNL     1       0.617   3.060  20.384  0.00  0.00    +0.000 A 
ATOM     18  C   UNL     1       1.341   2.978  21.571  0.00  0.00    +0.000 A 
ATOM     19  C   UNL     1       2.698   2.666  21.535  0.00  0.00    +0.000 A 
ATOM     20  C   UNL     1       3.326   2.450  20.310  0.00  0.00    +0.000 A 
ENDBRANCH  14  15
ENDBRANCH  13  14
ENDBRANCH  11  13
ENDBRANCH   6  11
TORSDOF 6
ENDMDL
MODEL 3
REMARK VINA RESULT:      -6.9      2.163      5.772
REMARK  Name = 
REMARK  7 active torsions:
REMARK  status: ('A' for Active; 'I' for Inactive)
REMARK    1  A    between atoms: C_1  and  O_2
REMARK    2  A    between atoms: O_2  and  C_3
REMARK    3  A    between atoms: C_7  and  O_8
REMARK    4  A    between atoms: C_9  and  C_10
REMARK    5  A    between atoms: C_10  and  O_12
REMARK    6  A    between atoms: O_12  and  C_13
REMARK    7  A    between atoms: C_13  and  C_14
REMARK                            x       y       z     vdW  Elec       q    Type
REMARK                         _______ _______ _______ _____ _____    ______ ____
ROOT
ATOM      1  C   UNL     1       5.223   6.186  16.951  0.00  0.00    +0.000 A 
ATOM      2  C   UNL     1       5.118   6.122  15.545  0.00  0.00    +0.000 A 
ATOM      3  C   UNL     1       6.049   5.425  14.778  0.00  0.00    +0.000 A 
ATOM      4  C   UNL     1       7.070   4.734  15.410  0.00  0.00    +0.000 A 
ATOM      5  C   UNL     1       7.142   4.724  16.806  0.00  0.00    +0.000 A 
ATOM      6  C   UNL     1       6.229   5.447  17.605  0.00  0.00    +0.000 A 
ENDROOT
BRANCH   1   8
ATOM      7  C   UNL     1       3.011   6.504  17.722  0.00  0.00    +0.000 C 
ATOM      8  O   UNL     1       4.365   6.963  17.690  0.00  0.00    +0.000 OA
ENDBRANCH   1   8
BRANCH   5   9
ATOM      9  O   UNL     1       8.127   3.960  17.378  0.00  0.00    +0.000 OA
ATOM     10  H   UNL     1       8.576   4.468  18.072  0.00  0.00    +0.000 HD
ENDBRANCH   5   9
BRANCH   6  11
ATOM     11  C   UNL     1       6.460   5.486  19.086  0.00  0.00    +0.000 C 
ATOM     12  O   UNL     1       7.524   5.861  19.567  0.00  0.00    +0.000 OA
BRANCH  11  13
ATOM     13  O   UNL     1       5.413   5.021  19.818  0.00  0.00    +0.000 OA
BRANCH  13  14
ATOM     14  C   UNL     1       4.950   3.693  19.465  0.00  0.00    +0.000 C 
BRANCH  14  15
ATOM     15  C   UNL     1       3.445   3.497  19.544  0.00  0.00    +0.000 A 
ATOM     16  C   UNL     1       2.666   4.056  20.558  0.00  0.00    +0.000 A 
ATOM     17  C   UNL     1       1.289   3.808  20.621  0.00  0.00    +0.000 A 
ATOM     18  C   UNL     1       0.674   3.006  19.664  0.00  0.00    +0.000 A 
ATOM     19  C   UNL     1       1.430   2.458  18.631  0.00  0.00    +0.000 A 
ATOM     20  C   UNL     1       2.799   2.705  18.569  0.00  0.00    +0.000 A 
ENDBRANCH  14  15
ENDBRANCH  13  14
ENDBRANCH  11  13
ENDBRANCH   6  11
TORSDOF 6
ENDMDL
MODEL 4
REMARK VINA RESULT:      -6.9      2.101      5.718
REMARK  Name = 
REMARK  7 active torsions:
REMARK  status: ('A' for Active; 'I' for Inactive)
REMARK    1  A    between atoms: C_1  and  O_2
REMARK    2  A    between atoms: O_2  and  C_3
REMARK    3  A    between atoms: C_7  and  O_8
REMARK    4  A    between atoms: C_9  and  C_10
REMARK    5  A    between atoms: C_10  and  O_12
REMARK    6  A    between atoms: O_12  and  C_13
REMARK    7  A    between atoms: C_13  and  C_14
REMARK                            x       y       z     vdW  Elec       q    Type
REMARK                         _______ _______ _______ _____ _____    ______ ____
ROOT
ATOM      1  C   UNL     1       4.996   5.686  17.295  0.00  0.00    +0.000 A 
ATOM      2  C   UNL     1       4.913   5.721  15.886  0.00  0.00    +0.000 A 
ATOM      3  C   UNL     1       5.960   5.270  15.086  0.00  0.00    +0.000 A 
ATOM      4  C   UNL     1       7.086   4.725  15.682  0.00  0.00    +0.000 A 
ATOM      5  C   UNL     1       7.149   4.613  17.074  0.00  0.00    +0.000 A 
ATOM      6  C   UNL     1       6.115   5.090  17.909  0.00  0.00    +0.000 A 
ENDROOT
BRANCH   1   8
ATOM      7  C   UNL     1       3.481   7.474  17.603  0.00  0.00    +0.000 C 
ATOM      8  O   UNL     1       4.005   6.231  18.075  0.00  0.00    +0.000 OA
ENDBRANCH   1   8
BRANCH   5   9
ATOM      9  O   UNL     1       8.254   3.994  17.604  0.00  0.00    +0.000 OA
ATOM     10  H   UNL     1       8.284   3.070  17.312  0.00  0.00    +0.000 HD
ENDBRANCH   5   9
BRANCH   6  11
ATOM     11  C   UNL     1       6.326   5.047  19.393  0.00  0.00    +0.000 C 
ATOM     12  O   UNL     1       7.305   5.561  19.924  0.00  0.00    +0.000 OA
BRANCH  11  13
ATOM     13  O   UNL     1       5.372   4.348  20.063  0.00  0.00    +0.000 OA
BRANCH  13  14
ATOM     14  C   UNL     1       4.811   3.219  19.347  0.00  0.00    +0.000 C 
BRANCH  14  15
ATOM     15  C   UNL     1       3.307   3.050  19.493  0.00  0.00    +0.000 A 
ATOM     16  C   UNL     1       2.468   2.815  18.403  0.00  0.00    +0.000 A 
ATOM     17  C   UNL     1       1.082   2.717  18.576  0.00  0.00    +0.000 A 
ATOM     18  C   UNL     1       0.520   2.842  19.843  0.00  0.00    +0.000 A 
ATOM     19  C   UNL     1       1.343   3.054  20.947  0.00  0.00    +0.000 A 
ATOM     20  C   UNL     1       2.722   3.153  20.774  0.00  0.00    +0.000 A 
ENDBRANCH  14  15
ENDBRANCH  13  14
ENDBRANCH  11  13
ENDBRANCH   6  11
TORSDOF 6
ENDMDL
MODEL 5
REMARK VINA RESULT:      -6.8      1.474      5.506
REMARK  Name = 
REMARK  7 active torsions:
REMARK  status: ('A' for Active; 'I' for Inactive)
REMARK    1  A    between atoms: C_1  and  O_2
REMARK    2  A    between atoms: O_2  and  C_3
REMARK    3  A    between atoms: C_7  and  O_8
REMARK    4  A    between atoms: C_9  and  C_10
REMARK    5  A    between atoms: C_10  and  O_12
REMARK    6  A    between atoms: O_12  and  C_13
REMARK    7  A    between atoms: C_13  and  C_14
REMARK                            x       y       z     vdW  Elec       q    Type
REMARK                         _______ _______ _______ _____ _____    ______ ____
ROOT
ATOM      1  C   UNL     1       6.279   5.963  16.733  0.00  0.00    +0.000 A 
ATOM      2  C   UNL     1       7.395   6.705  17.175  0.00  0.00    +0.000 A 
ATOM      3  C   UNL     1       7.870   6.594  18.480  0.00  0.00    +0.000 A 
ATOM      4  C   UNL     1       7.269   5.698  19.348  0.00  0.00    +0.000 A 
ATOM      5  C   UNL     1       6.211   4.900  18.901  0.00  0.00    +0.000 A 
ATOM      6  C   UNL     1       5.691   5.015  17.593  0.00  0.00    +0.000 A 
ENDROOT
BRANCH   1   8
ATOM      7  C   UNL     1       6.139   5.188  14.504  0.00  0.00    +0.000 C 
ATOM      8  O   UNL     1       5.752   6.159  15.479  0.00  0.00    +0.000 OA
ENDBRANCH   1   8
BRANCH   5   9
ATOM      9  O   UNL     1       5.706   3.977  19.781  0.00  0.00    +0.000 OA
ATOM     10  H   UNL     1       5.687   3.102  19.364  0.00  0.00    +0.000 HD
ENDBRANCH   5   9
BRANCH   6  11
ATOM     11  C   UNL     1       4.473   4.215  17.242  0.00  0.00    +0.000 C 
ATOM     12  O   UNL     1       4.505   2.993  17.142  0.00  0.00    +0.000 OA
BRANCH  11  13
ATOM     13  O   UNL     1       3.371   4.972  16.998  0.00  0.00    +0.000 OA
BRANCH  13  14
ATOM     14  C   UNL     1       2.796   5.626  18.157  0.00  0.00    +0.000 C 
BRANCH  14  15
ATOM     15  C   UNL     1       2.225   4.687  19.206  0.00  0.00    +0.000 A 
ATOM     16  C   UNL     1       2.564   4.773  20.557  0.00  0.00    +0.000 A 
ATOM     17  C   UNL     1       2.053   3.855  21.483  0.00  0.00    +0.000 A 
ATOM     18  C   UNL     1       1.190   2.845  21.069  0.00  0.00    +0.000 A 
ATOM     19  C   UNL     1       0.821   2.755  19.729  0.00  0.00    +0.000 A 
ATOM     20  C   UNL     1       1.330   3.669  18.809  0.00  0.00    +0.000 A 
ENDBRANCH  14  15
ENDBRANCH  13  14
ENDBRANCH  11  13
ENDBRANCH   6  11
TORSDOF 6
ENDMDL
MODEL 6
REMARK VINA RESULT:      -6.8      2.370      3.319
REMARK  Name = 
REMARK  7 active torsions:
REMARK  status: ('A' for Active; 'I' for Inactive)
REMARK    1  A    between atoms: C_1  and  O_2
REMARK    2  A    between atoms: O_2  and  C_3
REMARK    3  A    between atoms: C_7  and  O_8
REMARK    4  A    between atoms: C_9  and  C_10
REMARK    5  A    between atoms: C_10  and  O_12
REMARK    6  A    between atoms: O_12  and  C_13
REMARK    7  A    between atoms: C_13  and  C_14
REMARK                            x       y       z     vdW  Elec       q    Type
REMARK                         _______ _______ _______ _____ _____    ______ ____
ROOT
ATOM      1  C   UNL     1       2.868   4.702  19.348  0.00  0.00    +0.000 A 
ATOM      2  C   UNL     1       1.605   4.391  19.896  0.00  0.00    +0.000 A 
ATOM      3  C   UNL     1       1.082   3.102  19.831  0.00  0.00    +0.000 A 
ATOM      4  C   UNL     1       1.839   2.089  19.264  0.00  0.00    +0.000 A 
ATOM      5  C   UNL     1       3.124   2.366  18.786  0.00  0.00    +0.000 A 
ATOM      6  C   UNL     1       3.665   3.671  18.813  0.00  0.00    +0.000 A 
ENDROOT
BRANCH   1   8
ATOM      7  C   UNL     1       2.357   6.989  19.662  0.00  0.00    +0.000 C 
ATOM      8  O   UNL     1       3.328   5.996  19.322  0.00  0.00    +0.000 OA
ENDBRANCH   1   8
BRANCH   5   9
ATOM      9  O   UNL     1       3.857   1.310  18.307  0.00  0.00    +0.000 OA
ATOM     10  H   UNL     1       3.790   1.276  17.340  0.00  0.00    +0.000 HD
ENDBRANCH   5   9
BRANCH   6  11
ATOM     11  C   UNL     1       4.995   3.899  18.161  0.00  0.00    +0.000 C 
ATOM     12  O   UNL     1       5.984   4.237  18.804  0.00  0.00    +0.000 OA
BRANCH  11  13
ATOM     13  O   UNL     1       4.977   3.752  16.810  0.00  0.00    +0.000 OA
BRANCH  13  14
ATOM     14  C   UNL     1       5.363   4.924  16.051  0.00  0.00    +0.000 C 
BRANCH  14  15
ATOM     15  C   UNL     1       5.996   4.634  14.699  0.00  0.00    +0.000 A 
ATOM     16  C   UNL     1       7.175   5.246  14.274  0.00  0.00    +0.000 A 
ATOM     17  C   UNL     1       7.697   4.987  13.000  0.00  0.00    +0.000 A 
ATOM     18  C   UNL     1       7.048   4.105  12.141  0.00  0.00    +0.000 A 
ATOM     19  C   UNL     1       5.882   3.466  12.555  0.00  0.00    +0.000 A 
ATOM     20  C   UNL     1       5.364   3.724  13.822  0.00  0.00    +0.000 A 
ENDBRANCH  14  15
ENDBRANCH  13  14
ENDBRANCH  11  13
ENDBRANCH   6  11
TORSDOF 6
ENDMDL
MODEL 7
REMARK VINA RESULT:      -6.8      1.816      5.543
REMARK  Name = 
REMARK  7 active torsions:
REMARK  status: ('A' for Active; 'I' for Inactive)
REMARK    1  A    between atoms: C_1  and  O_2
REMARK    2  A    between atoms: O_2  and  C_3
REMARK    3  A    between atoms: C_7  and  O_8
REMARK    4  A    between atoms: C_9  and  C_10
REMARK    5  A    between atoms: C_10  and  O_12
REMARK    6  A    between atoms: O_12  and  C_13
REMARK    7  A    between atoms: C_13  and  C_14
REMARK                            x       y       z     vdW  Elec       q    Type
REMARK                         _______ _______ _______ _____ _____    ______ ____
ROOT
ATOM      1  C   UNL     1       6.345   4.444  16.929  0.00  0.00    +0.000 A 
ATOM      2  C   UNL     1       7.667   4.587  17.403  0.00  0.00    +0.000 A 
ATOM      3  C   UNL     1       7.934   5.150  18.650  0.00  0.00    +0.000 A 
ATOM      4  C   UNL     1       6.880   5.528  19.465  0.00  0.00    +0.000 A 
ATOM      5  C   UNL     1       5.564   5.320  19.040  0.00  0.00    +0.000 A 
ATOM      6  C   UNL     1       5.266   4.781  17.770  0.00  0.00    +0.000 A 
ENDROOT
BRANCH   1   8
ATOM      7  C   UNL     1       6.385   4.925  14.615  0.00  0.00    +0.000 C 
ATOM      8  O   UNL     1       6.096   3.990  15.657  0.00  0.00    +0.000 OA
ENDBRANCH   1   8
BRANCH   5   9
ATOM      9  O   UNL     1       4.562   5.642  19.922  0.00  0.00    +0.000 OA
ATOM     10  H   UNL     1       4.813   5.368  20.817  0.00  0.00    +0.000 HD
ENDBRANCH   5   9
BRANCH   6  11
ATOM     11  C   UNL     1       3.829   4.717  17.346  0.00  0.00    +0.000 C 
ATOM     12  O   UNL     1       3.078   5.680  17.450  0.00  0.00    +0.000 OA
BRANCH  11  13
ATOM     13  O   UNL     1       3.443   3.492  16.900  0.00  0.00    +0.000 OA
BRANCH  13  14
ATOM     14  C   UNL     1       3.567   2.413  17.860  0.00  0.00    +0.000 C 
BRANCH  14  15
ATOM     15  C   UNL     1       2.793   2.611  19.152  0.00  0.00    +0.000 A 
ATOM     16  C   UNL     1       3.380   2.468  20.410  0.00  0.00    +0.000 A 
ATOM     17  C   UNL     1       2.618   2.611  21.576  0.00  0.00    +0.000 A 
ATOM     18  C   UNL     1       1.261   2.908  21.497  0.00  0.00    +0.000 A 
ATOM     19  C   UNL     1       0.661   3.078  20.251  0.00  0.00    +0.000 A 
ATOM     20  C   UNL     1       1.420   2.936  19.092  0.00  0.00    +0.000 A 
ENDBRANCH  14  15
ENDBRANCH  13  14
ENDBRANCH  11  13
ENDBRANCH   6  11
TORSDOF 6
ENDMDL
MODEL 8
REMARK VINA RESULT:      -6.8      1.928      5.270
REMARK  Name = 
REMARK  7 active torsions:
REMARK  status: ('A' for Active; 'I' for Inactive)
REMARK    1  A    between atoms: C_1  and  O_2
REMARK    2  A    between atoms: O_2  and  C_3
REMARK    3  A    between atoms: C_7  and  O_8
REMARK    4  A    between atoms: C_9  and  C_10
REMARK    5  A    between atoms: C_10  and  O_12
REMARK    6  A    between atoms: O_12  and  C_13
REMARK    7  A    between atoms: C_13  and  C_14
REMARK                            x       y       z     vdW  Elec       q    Type
REMARK                         _______ _______ _______ _____ _____    ______ ____
ROOT
ATOM      1  C   UNL     1       6.731   4.635  17.740  0.00  0.00    +0.000 A 
ATOM      2  C   UNL     1       7.292   4.699  16.447  0.00  0.00    +0.000 A 
ATOM      3  C   UNL     1       6.546   4.378  15.315  0.00  0.00    +0.000 A 
ATOM      4  C   UNL     1       5.209   4.041  15.455  0.00  0.00    +0.000 A 
ATOM      5  C   UNL     1       4.619   4.049  16.723  0.00  0.00    +0.000 A 
ATOM      6  C   UNL     1       5.361   4.341  17.888  0.00  0.00    +0.000 A 
ENDROOT
BRANCH   1   8
ATOM      7  C   UNL     1       7.970   6.189  19.020  0.00  0.00    +0.000 C 
ATOM      8  O   UNL     1       7.502   4.848  18.857  0.00  0.00    +0.000 OA
ENDBRANCH   1   8
BRANCH   5   9
ATOM      9  O   UNL     1       3.275   3.783  16.790  0.00  0.00    +0.000 OA
ATOM     10  H   UNL     1       2.944   3.991  17.678  0.00  0.00    +0.000 HD
ENDBRANCH   5   9
BRANCH   6  11
ATOM     11  C   UNL     1       4.679   4.198  19.216  0.00  0.00    +0.000 C 
ATOM     12  O   UNL     1       4.448   3.100  19.712  0.00  0.00    +0.000 OA
BRANCH  11  13
ATOM     13  O   UNL     1       4.303   5.380  19.770  0.00  0.00    +0.000 OA
BRANCH  13  14
ATOM     14  C   UNL     1       2.873   5.575  19.911  0.00  0.00    +0.000 C 
BRANCH  14  15
ATOM     15  C   UNL     1       2.369   6.949  19.501  0.00  0.00    +0.000 A 
ATOM     16  C   UNL     1       1.673   7.785  20.375  0.00  0.00    +0.000 A 
ATOM     17  C   UNL     1       1.182   9.023  19.941  0.00  0.00    +0.000 A 
ATOM     18  C   UNL     1       1.390   9.442  18.630  0.00  0.00    +0.000 A 
ATOM     19  C   UNL     1       2.102   8.631  17.749  0.00  0.00    +0.000 A 
ATOM     20  C   UNL     1       2.590   7.400  18.181  0.00  0.00    +0.000 A 
ENDBRANCH  14  15
ENDBRANCH  13  14
ENDBRANCH  11  13
ENDBRANCH   6  11
TORSDOF 6
ENDMDL
MODEL 9
REMARK VINA RESULT:      -6.7      1.712      5.706
REMARK  Name = 
REMARK  7 active torsions:
REMARK  status: ('A' for Active; 'I' for Inactive)
REMARK    1  A    between atoms: C_1  and  O_2
REMARK    2  A    between atoms: O_2  and  C_3
REMARK    3  A    between atoms: C_7  and  O_8
REMARK    4  A    between atoms: C_9  and  C_10
REMARK    5  A    between atoms: C_10  and  O_12
REMARK    6  A    between atoms: O_12  and  C_13
REMARK    7  A    between atoms: C_13  and  C_14
REMARK                            x       y       z     vdW  Elec       q    Type
REMARK                         _______ _______ _______ _____ _____    ______ ____
ROOT
ATOM      1  C   UNL     1       6.988   5.442  16.997  0.00  0.00    +0.000 A 
ATOM      2  C   UNL     1       7.358   5.414  15.635  0.00  0.00    +0.000 A 
ATOM      3  C   UNL     1       6.718   4.575  14.725  0.00  0.00    +0.000 A 
ATOM      4  C   UNL     1       5.660   3.790  15.153  0.00  0.00    +0.000 A 
ATOM      5  C   UNL     1       5.232   3.865  16.482  0.00  0.00    +0.000 A 
ATOM      6  C   UNL     1       5.883   4.684  17.431  0.00  0.00    +0.000 A 
ENDROOT
BRANCH   1   8
ATOM      7  C   UNL     1       7.626   7.604  17.707  0.00  0.00    +0.000 C 
ATOM      8  O   UNL     1       7.694   6.191  17.906  0.00  0.00    +0.000 OA
ENDBRANCH   1   8
BRANCH   5   9
ATOM      9  O   UNL     1       4.130   3.123  16.829  0.00  0.00    +0.000 OA
ATOM     10  H   UNL     1       3.671   3.545  17.571  0.00  0.00    +0.000 HD
ENDBRANCH   5   9
BRANCH   6  11
ATOM     11  C   UNL     1       5.439   4.601  18.861  0.00  0.00    +0.000 C 
ATOM     12  O   UNL     1       5.537   3.567  19.512  0.00  0.00    +0.000 OA
BRANCH  11  13
ATOM     13  O   UNL     1       4.880   5.748  19.328  0.00  0.00    +0.000 OA
BRANCH  13  14
ATOM     14  C   UNL     1       3.492   5.957  18.966  0.00  0.00    +0.000 C 
BRANCH  14  15
ATOM     15  C   UNL     1       2.531   4.893  19.471  0.00  0.00    +0.000 A 
ATOM     16  C   UNL     1       2.408   4.571  20.823  0.00  0.00    +0.000 A 
ATOM     17  C   UNL     1       1.546   3.549  21.239  0.00  0.00    +0.000 A 
ATOM     18  C   UNL     1       0.789   2.844  20.308  0.00  0.00    +0.000 A 
ATOM     19  C   UNL     1       0.881   3.165  18.956  0.00  0.00    +0.000 A 
ATOM     20  C   UNL     1       1.738   4.182  18.542  0.00  0.00    +0.000 A 
ENDBRANCH  14  15
ENDBRANCH  13  14
ENDBRANCH  11  13
ENDBRANCH   6  11
TORSDOF 6
ENDMDL
