MODEL 1
REMARK VINA RESULT:      -6.9      0.000      0.000
REMARK  Name = 
REMARK  0 active torsions:
REMARK  status: ('A' for Active; 'I' for Inactive)
REMARK                            x       y       z     vdW  Elec       q    Type
REMARK                         _______ _______ _______ _____ _____    ______ ____
ROOT
ATOM      1 CL   UNL     1       7.698   5.060  14.771  0.00  0.00    +0.000 Cl
ATOM      2  C   UNL     1       6.508   5.195  16.017  0.00  0.00    +0.000 A 
ATOM      3  C   UNL     1       5.531   4.199  16.087  0.00  0.00    +0.000 A 
ATOM      4  C   UNL     1       4.551   4.264  17.074  0.00  0.00    +0.000 A 
ATOM      5  C   UNL     1       4.535   5.311  17.989  0.00  0.00    +0.000 A 
ATOM      6  C   UNL     1       5.507   6.310  17.925  0.00  0.00    +0.000 A 
ATOM      7  C   UNL     1       6.496   6.253  16.936  0.00  0.00    +0.000 A 
ATOM      8 CL   UNL     1       7.674   7.516  16.904  0.00  0.00    +0.000 Cl
ATOM      9  O   UNL     1       3.584   5.407  18.973  0.00  0.00    +0.000 OA
ATOM     10  C   UNL     1       2.643   4.405  19.000  0.00  0.00    +0.000 A 
ATOM     11  C   UNL     1       1.639   4.434  19.973  0.00  0.00    +0.000 A 
ATOM     12 CL   UNL     1       1.555   5.703  21.141  0.00  0.00    +0.000 Cl
ATOM     13  C   UNL     1       0.672   3.425  20.018  0.00  0.00    +0.000 A 
ATOM     14  C   UNL     1       0.703   2.381  19.090  0.00  0.00    +0.000 A 
ATOM     15  C   UNL     1       1.702   2.348  18.120  0.00  0.00    +0.000 A 
ATOM     16  C   UNL     1       2.664   3.357  18.078  0.00  0.00    +0.000 A 
ATOM     17  O   UNL     1       3.617   3.261  17.096  0.00  0.00    +0.000 OA
ENDROOT
TORSDOF 0
ENDMDL
MODEL 2
REMARK VINA RESULT:      -6.8      3.583      4.797
REMARK  Name = 
REMARK  0 active torsions:
REMARK  status: ('A' for Active; 'I' for Inactive)
REMARK                            x       y       z     vdW  Elec       q    Type
REMARK                         _______ _______ _______ _____ _____    ______ ____
ROOT
ATOM      1 CL   UNL     1       1.509  10.747  18.402  0.00  0.00    +0.000 Cl
ATOM      2  C   UNL     1       1.693   9.153  19.045  0.00  0.00    +0.000 A 
ATOM      3  C   UNL     1       2.212   8.171  18.198  0.00  0.00    +0.000 A 
ATOM      4  C   UNL     1       2.379   6.872  18.671  0.00  0.00    +0.000 A 
ATOM      5  C   UNL     1       2.033   6.544  19.978  0.00  0.00    +0.000 A 
ATOM      6  C   UNL     1       1.514   7.519  20.829  0.00  0.00    +0.000 A 
ATOM      7  C   UNL     1       1.343   8.828  20.362  0.00  0.00    +0.000 A 
ATOM      8 CL   UNL     1       0.696   9.995  21.460  0.00  0.00    +0.000 Cl
ATOM      9  O   UNL     1       2.184   5.275  20.476  0.00  0.00    +0.000 OA
ATOM     10  C   UNL     1       2.695   4.342  19.605  0.00  0.00    +0.000 A 
ATOM     11  C   UNL     1       2.876   3.025  20.039  0.00  0.00    +0.000 A 
ATOM     12 CL   UNL     1       2.469   2.544  21.646  0.00  0.00    +0.000 Cl
ATOM     13  C   UNL     1       3.395   2.061  19.168  0.00  0.00    +0.000 A 
ATOM     14  C   UNL     1       3.736   2.410  17.859  0.00  0.00    +0.000 A 
ATOM     15  C   UNL     1       3.558   3.721  17.423  0.00  0.00    +0.000 A 
ATOM     16  C   UNL     1       3.039   4.678  18.295  0.00  0.00    +0.000 A 
ATOM     17  O   UNL     1       2.891   5.948  17.797  0.00  0.00    +0.000 OA
ENDROOT
TORSDOF 0
ENDMDL
MODEL 3
REMARK VINA RESULT:      -6.6      3.712      5.537
REMARK  Name = 
REMARK  0 active torsions:
REMARK  status: ('A' for Active; 'I' for Inactive)
REMARK                            x       y       z     vdW  Elec       q    Type
REMARK                         _______ _______ _______ _____ _____    ______ ____
ROOT
ATOM      1 CL   UNL     1       3.697   2.262  18.562  0.00  0.00    +0.000 Cl
ATOM      2  C   UNL     1       3.039   3.698  19.264  0.00  0.00    +0.000 A 
ATOM      3  C   UNL     1       3.010   4.849  18.474  0.00  0.00    +0.000 A 
ATOM      4  C   UNL     1       2.490   6.030  18.996  0.00  0.00    +0.000 A 
ATOM      5  C   UNL     1       1.997   6.074  20.297  0.00  0.00    +0.000 A 
ATOM      6  C   UNL     1       2.023   4.928  21.092  0.00  0.00    +0.000 A 
ATOM      7  C   UNL     1       2.545   3.737  20.576  0.00  0.00    +0.000 A 
ATOM      8 CL   UNL     1       2.551   2.349  21.605  0.00  0.00    +0.000 Cl
ATOM      9  O   UNL     1       1.478   7.220  20.843  0.00  0.00    +0.000 OA
ATOM     10  C   UNL     1       1.475   8.328  20.028  0.00  0.00    +0.000 A 
ATOM     11  C   UNL     1       0.963   9.535  20.514  0.00  0.00    +0.000 A 
ATOM     12 CL   UNL     1       0.337   9.665  22.118  0.00  0.00    +0.000 Cl
ATOM     13  C   UNL     1       0.950  10.673  19.701  0.00  0.00    +0.000 A 
ATOM     14  C   UNL     1       1.449  10.610  18.398  0.00  0.00    +0.000 A 
ATOM     15  C   UNL     1       1.959   9.409  17.909  0.00  0.00    +0.000 A 
ATOM     16  C   UNL     1       1.970   8.277  18.724  0.00  0.00    +0.000 A 
ATOM     17  O   UNL     1       2.487   7.130  18.177  0.00  0.00    +0.000 OA
ENDROOT
TORSDOF 0
ENDMDL
MODEL 4
REMARK VINA RESULT:      -6.6      1.639      5.670
REMARK  Name = 
REMARK  0 active torsions:
REMARK  status: ('A' for Active; 'I' for Inactive)
REMARK                            x       y       z     vdW  Elec       q    Type
REMARK                         _______ _______ _______ _____ _____    ______ ____
ROOT
ATOM      1 CL   UNL     1       0.298   1.991  19.091  0.00  0.00    +0.000 Cl
ATOM      2  C   UNL     1       1.758   2.894  18.892  0.00  0.00    +0.000 A 
ATOM      3  C   UNL     1       2.353   2.889  17.628  0.00  0.00    +0.000 A 
ATOM      4  C   UNL     1       3.531   3.602  17.419  0.00  0.00    +0.000 A 
ATOM      5  C   UNL     1       4.119   4.319  18.456  0.00  0.00    +0.000 A 
ATOM      6  C   UNL     1       3.531   4.328  19.721  0.00  0.00    +0.000 A 
ATOM      7  C   UNL     1       2.347   3.614  19.940  0.00  0.00    +0.000 A 
ATOM      8 CL   UNL     1       1.662   3.661  21.526  0.00  0.00    +0.000 Cl
ATOM      9  O   UNL     1       5.279   5.031  18.285  0.00  0.00    +0.000 OA
ATOM     10  C   UNL     1       5.829   4.994  17.025  0.00  0.00    +0.000 A 
ATOM     11  C   UNL     1       7.013   5.694  16.773  0.00  0.00    +0.000 A 
ATOM     12 CL   UNL     1       7.800   6.604  18.011  0.00  0.00    +0.000 Cl
ATOM     13  C   UNL     1       7.588   5.668  15.498  0.00  0.00    +0.000 A 
ATOM     14  C   UNL     1       6.983   4.943  14.470  0.00  0.00    +0.000 A 
ATOM     15  C   UNL     1       5.803   4.245  14.716  0.00  0.00    +0.000 A 
ATOM     16  C   UNL     1       5.233   4.272  15.990  0.00  0.00    +0.000 A 
ATOM     17  O   UNL     1       4.072   3.561  16.160  0.00  0.00    +0.000 OA
ENDROOT
TORSDOF 0
ENDMDL
MODEL 5
REMARK VINA RESULT:      -6.5      3.424      5.997
REMARK  Name = 
REMARK  0 active torsions:
REMARK  status: ('A' for Active; 'I' for Inactive)
REMARK                            x       y       z     vdW  Elec       q    Type
REMARK                         _______ _______ _______ _____ _____    ______ ____
ROOT
ATOM      1 CL   UNL     1      -0.367   9.760  21.622  0.00  0.00    +0.000 Cl
ATOM      2  C   UNL     1       0.689   9.146  20.400  0.00  0.00    +0.000 A 
ATOM      3  C   UNL     1       1.349   7.943  20.661  0.00  0.00    +0.000 A 
ATOM      4  C   UNL     1       2.210   7.409  19.706  0.00  0.00    +0.000 A 
ATOM      5  C   UNL     1       2.419   8.062  18.496  0.00  0.00    +0.000 A 
ATOM      6  C   UNL     1       1.764   9.264  18.228  0.00  0.00    +0.000 A 
ATOM      7  C   UNL     1       0.896   9.808  19.182  0.00  0.00    +0.000 A 
ATOM      8 CL   UNL     1       0.112  11.299  18.797  0.00  0.00    +0.000 Cl
ATOM      9  O   UNL     1       3.261   7.564  17.534  0.00  0.00    +0.000 OA
ATOM     10  C   UNL     1       3.890   6.380  17.838  0.00  0.00    +0.000 A 
ATOM     11  C   UNL     1       4.766   5.810  16.908  0.00  0.00    +0.000 A 
ATOM     12 CL   UNL     1       5.075   6.563  15.386  0.00  0.00    +0.000 Cl
ATOM     13  C   UNL     1       5.415   4.606  17.198  0.00  0.00    +0.000 A 
ATOM     14  C   UNL     1       5.193   3.965  18.419  0.00  0.00    +0.000 A 
ATOM     15  C   UNL     1       4.321   4.528  19.348  0.00  0.00    +0.000 A 
ATOM     16  C   UNL     1       3.676   5.730  19.055  0.00  0.00    +0.000 A 
ATOM     17  O   UNL     1       2.832   6.227  20.016  0.00  0.00    +0.000 OA
ENDROOT
TORSDOF 0
ENDMDL
MODEL 6
REMARK VINA RESULT:      -6.5      3.870      5.027
REMARK  Name = 
REMARK  0 active torsions:
REMARK  status: ('A' for Active; 'I' for Inactive)
REMARK                            x       y       z     vdW  Elec       q    Type
REMARK                         _______ _______ _______ _____ _____    ______ ____
ROOT
ATOM      1 CL   UNL     1       5.054   3.824  16.829  0.00  0.00    +0.000 Cl
ATOM      2  C   UNL     1       4.114   4.804  17.897  0.00  0.00    +0.000 A 
ATOM      3  C   UNL     1       3.718   6.063  17.438  0.00  0.00    +0.000 A 
ATOM      4  C   UNL     1       2.959   6.890  18.263  0.00  0.00    +0.000 A 
ATOM      5  C   UNL     1       2.591   6.473  19.538  0.00  0.00    +0.000 A 
ATOM      6  C   UNL     1       2.983   5.218  20.003  0.00  0.00    +0.000 A 
ATOM      7  C   UNL     1       3.746   4.381  19.182  0.00  0.00    +0.000 A 
ATOM      8 CL   UNL     1       4.203   2.837  19.809  0.00  0.00    +0.000 Cl
ATOM      9  O   UNL     1       1.845   7.262  20.377  0.00  0.00    +0.000 OA
ATOM     10  C   UNL     1       1.482   8.492  19.882  0.00  0.00    +0.000 A 
ATOM     11  C   UNL     1       0.723   9.354  20.679  0.00  0.00    +0.000 A 
ATOM     12 CL   UNL     1       0.230   8.907  22.272  0.00  0.00    +0.000 Cl
ATOM     13  C   UNL     1       0.343  10.611  20.194  0.00  0.00    +0.000 A 
ATOM     14  C   UNL     1       0.722  11.011  18.911  0.00  0.00    +0.000 A 
ATOM     15  C   UNL     1       1.479  10.155  18.113  0.00  0.00    +0.000 A 
ATOM     16  C   UNL     1       1.855   8.904  18.601  0.00  0.00    +0.000 A 
ATOM     17  O   UNL     1       2.600   8.114  17.762  0.00  0.00    +0.000 OA
ENDROOT
TORSDOF 0
ENDMDL
MODEL 7
REMARK VINA RESULT:      -6.4      3.288      5.898
REMARK  Name = 
REMARK  0 active torsions:
REMARK  status: ('A' for Active; 'I' for Inactive)
REMARK                            x       y       z     vdW  Elec       q    Type
REMARK                         _______ _______ _______ _____ _____    ______ ____
ROOT
ATOM      1 CL   UNL     1       0.095  11.051  19.311  0.00  0.00    +0.000 Cl
ATOM      2  C   UNL     1       1.015   9.588  19.340  0.00  0.00    +0.000 A 
ATOM      3  C   UNL     1       1.842   9.323  18.246  0.00  0.00    +0.000 A 
ATOM      4  C   UNL     1       2.602   8.157  18.224  0.00  0.00    +0.000 A 
ATOM      5  C   UNL     1       2.546   7.254  19.281  0.00  0.00    +0.000 A 
ATOM      6  C   UNL     1       1.721   7.511  20.376  0.00  0.00    +0.000 A 
ATOM      7  C   UNL     1       0.953   8.681  20.407  0.00  0.00    +0.000 A 
ATOM      8 CL   UNL     1      -0.050   8.948  21.788  0.00  0.00    +0.000 Cl
ATOM      9  O   UNL     1       3.280   6.095  19.291  0.00  0.00    +0.000 OA
ATOM     10  C   UNL     1       4.077   5.877  18.192  0.00  0.00    +0.000 A 
ATOM     11  C   UNL     1       4.855   4.717  18.129  0.00  0.00    +0.000 A 
ATOM     12 CL   UNL     1       4.835   3.550  19.401  0.00  0.00    +0.000 Cl
ATOM     13  C   UNL     1       5.672   4.476  17.019  0.00  0.00    +0.000 A 
ATOM     14  C   UNL     1       5.716   5.395  15.968  0.00  0.00    +0.000 A 
ATOM     15  C   UNL     1       4.943   6.553  16.027  0.00  0.00    +0.000 A 
ATOM     16  C   UNL     1       4.129   6.788  17.136  0.00  0.00    +0.000 A 
ATOM     17  O   UNL     1       3.396   7.947  17.126  0.00  0.00    +0.000 OA
ENDROOT
TORSDOF 0
ENDMDL
MODEL 8
REMARK VINA RESULT:      -6.4      1.830      6.140
REMARK  Name = 
REMARK  0 active torsions:
REMARK  status: ('A' for Active; 'I' for Inactive)
REMARK                            x       y       z     vdW  Elec       q    Type
REMARK                         _______ _______ _______ _____ _____    ______ ____
ROOT
ATOM      1 CL   UNL     1       1.152   2.758  21.662  0.00  0.00    +0.000 Cl
ATOM      2  C   UNL     1       2.052   3.213  20.259  0.00  0.00    +0.000 A 
ATOM      3  C   UNL     1       3.205   3.977  20.451  0.00  0.00    +0.000 A 
ATOM      4  C   UNL     1       3.964   4.368  19.350  0.00  0.00    +0.000 A 
ATOM      5  C   UNL     1       3.584   4.004  18.062  0.00  0.00    +0.000 A 
ATOM      6  C   UNL     1       2.433   3.242  17.863  0.00  0.00    +0.000 A 
ATOM      7  C   UNL     1       1.664   2.845  18.963  0.00  0.00    +0.000 A 
ATOM      8 CL   UNL     1       0.249   1.902  18.657  0.00  0.00    +0.000 Cl
ATOM      9  O   UNL     1       4.307   4.372  16.956  0.00  0.00    +0.000 OA
ATOM     10  C   UNL     1       5.432   5.126  17.195  0.00  0.00    +0.000 A 
ATOM     11  C   UNL     1       6.220   5.541  16.118  0.00  0.00    +0.000 A 
ATOM     12 CL   UNL     1       5.810   5.130  14.493  0.00  0.00    +0.000 Cl
ATOM     13  C   UNL     1       7.369   6.309  16.340  0.00  0.00    +0.000 A 
ATOM     14  C   UNL     1       7.734   6.664  17.641  0.00  0.00    +0.000 A 
ATOM     15  C   UNL     1       6.952   6.251  18.717  0.00  0.00    +0.000 A 
ATOM     16  C   UNL     1       5.807   5.487  18.491  0.00  0.00    +0.000 A 
ATOM     17  O   UNL     1       5.085   5.117  19.597  0.00  0.00    +0.000 OA
ENDROOT
TORSDOF 0
ENDMDL
MODEL 9
REMARK VINA RESULT:      -6.4      4.394      6.816
REMARK  Name = 
REMARK  0 active torsions:
REMARK  status: ('A' for Active; 'I' for Inactive)
REMARK                            x       y       z     vdW  Elec       q    Type
REMARK                         _______ _______ _______ _____ _____    ______ ____
ROOT
ATOM      1 CL   UNL     1      -0.467  12.648  20.495  0.00  0.00    +0.000 Cl
ATOM      2  C   UNL     1       0.069  11.014  20.672  0.00  0.00    +0.000 A 
ATOM      3  C   UNL     1       0.833  10.469  19.638  0.00  0.00    +0.000 A 
ATOM      4  C   UNL     1       1.287   9.156  19.735  0.00  0.00    +0.000 A 
ATOM      5  C   UNL     1       0.987   8.384  20.853  0.00  0.00    +0.000 A 
ATOM      6  C   UNL     1       0.224   8.921  21.890  0.00  0.00    +0.000 A 
ATOM      7  C   UNL     1      -0.237  10.240  21.800  0.00  0.00    +0.000 A 
ATOM      8 CL   UNL     1      -1.176  10.854  23.113  0.00  0.00    +0.000 Cl
ATOM      9  O   UNL     1       1.418   7.087  20.981  0.00  0.00    +0.000 OA
ATOM     10  C   UNL     1       2.163   6.594  19.937  0.00  0.00    +0.000 A 
ATOM     11  C   UNL     1       2.637   5.279  19.994  0.00  0.00    +0.000 A 
ATOM     12 CL   UNL     1       2.304   4.261  21.347  0.00  0.00    +0.000 Cl
ATOM     13  C   UNL     1       3.397   4.758  18.941  0.00  0.00    +0.000 A 
ATOM     14  C   UNL     1       3.687   5.549  17.827  0.00  0.00    +0.000 A 
ATOM     15  C   UNL     1       3.219   6.860  17.767  0.00  0.00    +0.000 A 
ATOM     16  C   UNL     1       2.460   7.375  18.819  0.00  0.00    +0.000 A 
ATOM     17  O   UNL     1       2.031   8.672  18.691  0.00  0.00    +0.000 OA
ENDROOT
TORSDOF 0
ENDMDL
