MODEL 1
REMARK VINA RESULT:      -7.8      0.000      0.000
REMARK  Name = 
REMARK  3 active torsions:
REMARK  status: ('A' for Active; 'I' for Inactive)
REMARK    1  A    between atoms: C_2  and  C_3
REMARK    2  A    between atoms: C_17  and  C_18
REMARK    3  A    between atoms: C_21  and  N_22
REMARK                            x       y       z     vdW  Elec       q    Type
REMARK                         _______ _______ _______ _____ _____    ______ ____
ROOT
ATOM      1  O   UNL     1      -1.240  14.078  19.512  0.00  0.00    +0.000 OA
ATOM      2  C   UNL     1      -0.768  13.448  20.458  0.00  0.00    +0.000 C 
ATOM      3  N   UNL     1      -0.011  12.293  20.275  0.00  0.00    +0.000 N 
ATOM      4  C   UNL     1       0.491  11.374  21.317  0.00  0.00    +0.000 C 
ATOM      5  C   UNL     1       0.258   9.889  20.977  0.00  0.00    +0.000 C 
ATOM      6  N   UNL     1       0.709   9.611  19.615  0.00  0.00    +0.000 N 
ATOM      7  C   UNL     1       1.466   8.510  19.357  0.00  0.00    +0.000 A 
ATOM      8  N   UNL     1       1.771   7.578  20.242  0.00  0.00    +0.000 NA
ATOM      9  N   UNL     1       2.630   6.612  19.755  0.00  0.00    +0.000 NA
ATOM     10  C   UNL     1       2.977   6.846  18.508  0.00  0.00    +0.000 A 
ATOM     11  S   UNL     1       2.211   8.218  17.830  0.00  0.00    +0.000 S 
ATOM     12  C   UNL     1       0.112  10.465  18.584  0.00  0.00    +0.000 C 
ATOM     13  C   UNL     1       0.395  11.941  18.907  0.00  0.00    +0.000 C 
ENDROOT
BRANCH   2  14
ATOM     14  C   UNL     1      -1.069  13.960  21.821  0.00  0.00    +0.000 A 
ATOM     15  C   UNL     1      -0.221  14.942  22.358  0.00  0.00    +0.000 A 
ATOM     16  C   UNL     1      -0.456  15.457  23.634  0.00  0.00    +0.000 A 
ATOM     17  C   UNL     1      -1.549  15.007  24.373  0.00  0.00    +0.000 A 
ATOM     18  C   UNL     1      -2.372  14.010  23.852  0.00  0.00    +0.000 A 
ATOM     19 CL   UNL     1      -3.737  13.471  24.750  0.00  0.00    +0.000 Cl
ATOM     20  C   UNL     1      -2.113  13.456  22.601  0.00  0.00    +0.000 A 
ENDBRANCH   2  14
BRANCH  10  21
ATOM     21  C   UNL     1       3.935   6.035  17.800  0.00  0.00    +0.000 A 
ATOM     22  C   UNL     1       3.726   4.766  17.282  0.00  0.00    +0.000 A 
ATOM     23  C   UNL     1       4.900   4.216  16.678  0.00  0.00    +0.000 A 
ATOM     24  C   UNL     1       5.960   5.091  16.755  0.00  0.00    +0.000 A 
ATOM     25  S   UNL     1       5.554   6.545  17.519  0.00  0.00    +0.000 S 
BRANCH  24  26
ATOM     26  N   UNL     1       7.302   4.878  16.271  0.00  0.00    +0.000 N 
ATOM     27  O   UNL     1       7.573   5.389  15.177  0.00  0.00    +0.000 OA
ATOM     28  O   UNL     1       8.076   4.212  16.966  0.00  0.00    +0.000 OA
ENDBRANCH  24  26
ENDBRANCH  10  21
TORSDOF 3
ENDMDL
MODEL 2
REMARK VINA RESULT:      -7.6      0.878      1.105
REMARK  Name = 
REMARK  3 active torsions:
REMARK  status: ('A' for Active; 'I' for Inactive)
REMARK    1  A    between atoms: C_2  and  C_3
REMARK    2  A    between atoms: C_17  and  C_18
REMARK    3  A    between atoms: C_21  and  N_22
REMARK                            x       y       z     vdW  Elec       q    Type
REMARK                         _______ _______ _______ _____ _____    ______ ____
ROOT
ATOM      1  O   UNL     1      -1.558  13.722  19.871  0.00  0.00    +0.000 OA
ATOM      2  C   UNL     1      -1.256  13.028  20.840  0.00  0.00    +0.000 C 
ATOM      3  N   UNL     1      -0.445  11.901  20.722  0.00  0.00    +0.000 N 
ATOM      4  C   UNL     1      -0.124  10.911  21.770  0.00  0.00    +0.000 C 
ATOM      5  C   UNL     1      -0.246   9.454  21.284  0.00  0.00    +0.000 C 
ATOM      6  N   UNL     1       0.463   9.288  20.016  0.00  0.00    +0.000 N 
ATOM      7  C   UNL     1       1.285   8.221  19.827  0.00  0.00    +0.000 A 
ATOM      8  N   UNL     1       1.443   7.227  20.684  0.00  0.00    +0.000 NA
ATOM      9  N   UNL     1       2.406   6.314  20.300  0.00  0.00    +0.000 NA
ATOM     10  C   UNL     1       2.976   6.649  19.163  0.00  0.00    +0.000 A 
ATOM     11  S   UNL     1       2.313   8.058  18.454  0.00  0.00    +0.000 S 
ATOM     12  C   UNL     1       0.047  10.211  18.955  0.00  0.00    +0.000 C 
ATOM     13  C   UNL     1       0.222  11.662  19.434  0.00  0.00    +0.000 C 
ENDROOT
BRANCH   2  14
ATOM     14  C   UNL     1      -1.824  13.429  22.154  0.00  0.00    +0.000 A 
ATOM     15  C   UNL     1      -1.175  14.448  22.869  0.00  0.00    +0.000 A 
ATOM     16  C   UNL     1      -1.665  14.863  24.109  0.00  0.00    +0.000 A 
ATOM     17  C   UNL     1      -2.814  14.274  24.634  0.00  0.00    +0.000 A 
ATOM     18  C   UNL     1      -3.439  13.241  23.938  0.00  0.00    +0.000 A 
ATOM     19 CL   UNL     1      -4.872  12.529  24.569  0.00  0.00    +0.000 Cl
ATOM     20  C   UNL     1      -2.926  12.788  22.725  0.00  0.00    +0.000 A 
ENDBRANCH   2  14
BRANCH  10  21
ATOM     21  C   UNL     1       4.073   5.909  18.593  0.00  0.00    +0.000 A 
ATOM     22  C   UNL     1       4.430   4.600  18.882  0.00  0.00    +0.000 A 
ATOM     23  C   UNL     1       5.602   4.179  18.179  0.00  0.00    +0.000 A 
ATOM     24  C   UNL     1       6.092   5.183  17.374  0.00  0.00    +0.000 A 
ATOM     25  S   UNL     1       5.160   6.593  17.448  0.00  0.00    +0.000 S 
BRANCH  24  26
ATOM     26  N   UNL     1       7.261   5.132  16.533  0.00  0.00    +0.000 N 
ATOM     27  O   UNL     1       8.059   4.216  16.764  0.00  0.00    +0.000 OA
ATOM     28  O   UNL     1       7.387   5.992  15.654  0.00  0.00    +0.000 OA
ENDBRANCH  24  26
ENDBRANCH  10  21
TORSDOF 3
ENDMDL
MODEL 3
REMARK VINA RESULT:      -7.6      0.988      1.342
REMARK  Name = 
REMARK  3 active torsions:
REMARK  status: ('A' for Active; 'I' for Inactive)
REMARK    1  A    between atoms: C_2  and  C_3
REMARK    2  A    between atoms: C_17  and  C_18
REMARK    3  A    between atoms: C_21  and  N_22
REMARK                            x       y       z     vdW  Elec       q    Type
REMARK                         _______ _______ _______ _____ _____    ______ ____
ROOT
ATOM      1  O   UNL     1      -1.377  13.882  19.473  0.00  0.00    +0.000 OA
ATOM      2  C   UNL     1      -0.840  13.299  20.414  0.00  0.00    +0.000 C 
ATOM      3  N   UNL     1      -0.054  12.164  20.232  0.00  0.00    +0.000 N 
ATOM      4  C   UNL     1       0.527  11.296  21.276  0.00  0.00    +0.000 C 
ATOM      5  C   UNL     1       0.328   9.794  20.995  0.00  0.00    +0.000 C 
ATOM      6  N   UNL     1       0.724   9.485  19.622  0.00  0.00    +0.000 N 
ATOM      7  C   UNL     1       1.504   8.402  19.362  0.00  0.00    +0.000 A 
ATOM      8  N   UNL     1       1.881   7.509  20.261  0.00  0.00    +0.000 NA
ATOM      9  N   UNL     1       2.749   6.556  19.763  0.00  0.00    +0.000 NA
ATOM     10  C   UNL     1       3.028   6.760  18.494  0.00  0.00    +0.000 A 
ATOM     11  S   UNL     1       2.185   8.083  17.811  0.00  0.00    +0.000 S 
ATOM     12  C   UNL     1       0.050  10.285  18.595  0.00  0.00    +0.000 C 
ATOM     13  C   UNL     1       0.298  11.780  18.857  0.00  0.00    +0.000 C 
ENDROOT
BRANCH   2  14
ATOM     14  C   UNL     1      -1.093  13.846  21.773  0.00  0.00    +0.000 A 
ATOM     15  C   UNL     1      -2.104  13.251  22.544  0.00  0.00    +0.000 A 
ATOM     16  C   UNL     1      -2.385  13.726  23.827  0.00  0.00    +0.000 A 
ATOM     17  C   UNL     1      -1.648  14.786  24.352  0.00  0.00    +0.000 A 
ATOM     18  C   UNL     1      -0.666  15.396  23.573  0.00  0.00    +0.000 A 
ATOM     19 CL   UNL     1       0.264  16.687  24.226  0.00  0.00    +0.000 Cl
ATOM     20  C   UNL     1      -0.415  14.961  22.274  0.00  0.00    +0.000 A 
ENDBRANCH   2  14
BRANCH  10  21
ATOM     21  C   UNL     1       3.978   5.957  17.766  0.00  0.00    +0.000 A 
ATOM     22  C   UNL     1       3.754   4.707  17.209  0.00  0.00    +0.000 A 
ATOM     23  C   UNL     1       4.923   4.158  16.595  0.00  0.00    +0.000 A 
ATOM     24  C   UNL     1       5.995   5.016  16.703  0.00  0.00    +0.000 A 
ATOM     25  S   UNL     1       5.606   6.451  17.508  0.00  0.00    +0.000 S 
BRANCH  24  26
ATOM     26  N   UNL     1       7.336   4.799  16.219  0.00  0.00    +0.000 N 
ATOM     27  O   UNL     1       7.582   5.228  15.085  0.00  0.00    +0.000 OA
ATOM     28  O   UNL     1       8.135   4.207  16.954  0.00  0.00    +0.000 OA
ENDBRANCH  24  26
ENDBRANCH  10  21
TORSDOF 3
ENDMDL
MODEL 4
REMARK VINA RESULT:      -7.3      4.469     10.980
REMARK  Name = 
REMARK  3 active torsions:
REMARK  status: ('A' for Active; 'I' for Inactive)
REMARK    1  A    between atoms: C_2  and  C_3
REMARK    2  A    between atoms: C_17  and  C_18
REMARK    3  A    between atoms: C_21  and  N_22
REMARK                            x       y       z     vdW  Elec       q    Type
REMARK                         _______ _______ _______ _____ _____    ______ ____
ROOT
ATOM      1  O   UNL     1       3.051   8.090  16.974  0.00  0.00    +0.000 OA
ATOM      2  C   UNL     1       2.676   7.558  18.018  0.00  0.00    +0.000 C 
ATOM      3  N   UNL     1       1.833   8.206  18.919  0.00  0.00    +0.000 N 
ATOM      4  C   UNL     1       1.424   7.741  20.260  0.00  0.00    +0.000 C 
ATOM      5  C   UNL     1       1.519   8.840  21.336  0.00  0.00    +0.000 C 
ATOM      6  N   UNL     1       0.870  10.061  20.862  0.00  0.00    +0.000 N 
ATOM      7  C   UNL     1       0.021  10.744  21.677  0.00  0.00    +0.000 A 
ATOM      8  N   UNL     1      -0.215  10.446  22.943  0.00  0.00    +0.000 NA
ATOM      9  N   UNL     1      -1.190  11.235  23.524  0.00  0.00    +0.000 NA
ATOM     10  C   UNL     1      -1.689  12.106  22.674  0.00  0.00    +0.000 A 
ATOM     11  S   UNL     1      -0.942  12.067  21.135  0.00  0.00    +0.000 S 
ATOM     12  C   UNL     1       1.371  10.565  19.580  0.00  0.00    +0.000 C 
ATOM     13  C   UNL     1       1.223   9.477  18.503  0.00  0.00    +0.000 C 
ENDROOT
BRANCH   2  14
ATOM     14  C   UNL     1       3.191   6.192  18.296  0.00  0.00    +0.000 A 
ATOM     15  C   UNL     1       4.506   6.068  18.771  0.00  0.00    +0.000 A 
ATOM     16  C   UNL     1       5.041   4.808  19.048  0.00  0.00    +0.000 A 
ATOM     17  C   UNL     1       4.260   3.667  18.867  0.00  0.00    +0.000 A 
ATOM     18  C   UNL     1       2.966   3.789  18.366  0.00  0.00    +0.000 A 
ATOM     19 CL   UNL     1       1.990   2.387  18.166  0.00  0.00    +0.000 Cl
ATOM     20  C   UNL     1       2.444   5.039  18.040  0.00  0.00    +0.000 A 
ENDBRANCH   2  14
BRANCH  10  21
ATOM     21  C   UNL     1      -2.782  12.984  23.009  0.00  0.00    +0.000 A 
ATOM     22  C   UNL     1      -2.779  13.983  23.970  0.00  0.00    +0.000 A 
ATOM     23  C   UNL     1      -4.043  14.641  24.088  0.00  0.00    +0.000 A 
ATOM     24  C   UNL     1      -4.963  14.120  23.205  0.00  0.00    +0.000 A 
ATOM     25  S   UNL     1      -4.322  12.881  22.248  0.00  0.00    +0.000 S 
BRANCH  24  26
ATOM     26  N   UNL     1      -6.339  14.517  23.047  0.00  0.00    +0.000 N 
ATOM     27  O   UNL     1      -7.001  13.871  22.225  0.00  0.00    +0.000 OA
ATOM     28  O   UNL     1      -6.759  15.460  23.727  0.00  0.00    +0.000 OA
ENDBRANCH  24  26
ENDBRANCH  10  21
TORSDOF 3
ENDMDL
MODEL 5
REMARK VINA RESULT:      -7.3      4.578     11.025
REMARK  Name = 
REMARK  3 active torsions:
REMARK  status: ('A' for Active; 'I' for Inactive)
REMARK    1  A    between atoms: C_2  and  C_3
REMARK    2  A    between atoms: C_17  and  C_18
REMARK    3  A    between atoms: C_21  and  N_22
REMARK                            x       y       z     vdW  Elec       q    Type
REMARK                         _______ _______ _______ _____ _____    ______ ____
ROOT
ATOM      1  O   UNL     1       3.136   7.942  16.984  0.00  0.00    +0.000 OA
ATOM      2  C   UNL     1       2.735   7.439  18.033  0.00  0.00    +0.000 C 
ATOM      3  N   UNL     1       1.879   8.114  18.900  0.00  0.00    +0.000 N 
ATOM      4  C   UNL     1       1.440   7.685  20.243  0.00  0.00    +0.000 C 
ATOM      5  C   UNL     1       1.521   8.811  21.294  0.00  0.00    +0.000 C 
ATOM      6  N   UNL     1       0.890  10.024  20.777  0.00  0.00    +0.000 N 
ATOM      7  C   UNL     1       0.030  10.732  21.557  0.00  0.00    +0.000 A 
ATOM      8  N   UNL     1      -0.235  10.468  22.825  0.00  0.00    +0.000 NA
ATOM      9  N   UNL     1      -1.215  11.277  23.366  0.00  0.00    +0.000 NA
ATOM     10  C   UNL     1      -1.691  12.130  22.485  0.00  0.00    +0.000 A 
ATOM     11  S   UNL     1      -0.912  12.048  20.963  0.00  0.00    +0.000 S 
ATOM     12  C   UNL     1       1.420  10.492  19.493  0.00  0.00    +0.000 C 
ATOM     13  C   UNL     1       1.287   9.379  18.441  0.00  0.00    +0.000 C 
ENDROOT
BRANCH   2  14
ATOM     14  C   UNL     1       3.234   6.076  18.356  0.00  0.00    +0.000 A 
ATOM     15  C   UNL     1       4.468   5.966  19.016  0.00  0.00    +0.000 A 
ATOM     16  C   UNL     1       4.985   4.711  19.342  0.00  0.00    +0.000 A 
ATOM     17  C   UNL     1       4.265   3.560  19.025  0.00  0.00    +0.000 A 
ATOM     18  C   UNL     1       3.056   3.669  18.341  0.00  0.00    +0.000 A 
ATOM     19 CL   UNL     1       2.151   2.253  17.970  0.00  0.00    +0.000 Cl
ATOM     20  C   UNL     1       2.559   4.916  17.968  0.00  0.00    +0.000 A 
ENDBRANCH   2  14
BRANCH  10  21
ATOM     21  C   UNL     1      -2.783  13.023  22.776  0.00  0.00    +0.000 A 
ATOM     22  C   UNL     1      -4.003  13.083  22.119  0.00  0.00    +0.000 A 
ATOM     23  C   UNL     1      -4.852  14.118  22.624  0.00  0.00    +0.000 A 
ATOM     24  C   UNL     1      -4.248  14.804  23.653  0.00  0.00    +0.000 A 
ATOM     25  S   UNL     1      -2.705  14.213  24.016  0.00  0.00    +0.000 S 
BRANCH  24  26
ATOM     26  N   UNL     1      -4.789  15.916  24.394  0.00  0.00    +0.000 N 
ATOM     27  O   UNL     1      -3.994  16.524  25.121  0.00  0.00    +0.000 OA
ATOM     28  O   UNL     1      -5.989  16.181  24.258  0.00  0.00    +0.000 OA
ENDBRANCH  24  26
ENDBRANCH  10  21
TORSDOF 3
ENDMDL
MODEL 6
REMARK VINA RESULT:      -7.3      4.168     11.009
REMARK  Name = 
REMARK  3 active torsions:
REMARK  status: ('A' for Active; 'I' for Inactive)
REMARK    1  A    between atoms: C_2  and  C_3
REMARK    2  A    between atoms: C_17  and  C_18
REMARK    3  A    between atoms: C_21  and  N_22
REMARK                            x       y       z     vdW  Elec       q    Type
REMARK                         _______ _______ _______ _____ _____    ______ ____
ROOT
ATOM      1  O   UNL     1       4.483   3.668  18.869  0.00  0.00    +0.000 OA
ATOM      2  C   UNL     1       4.596   4.701  18.210  0.00  0.00    +0.000 C 
ATOM      3  N   UNL     1       3.945   5.881  18.564  0.00  0.00    +0.000 N 
ATOM      4  C   UNL     1       3.884   7.139  17.792  0.00  0.00    +0.000 C 
ATOM      5  C   UNL     1       2.464   7.735  17.718  0.00  0.00    +0.000 C 
ATOM      6  N   UNL     1       1.870   7.779  19.053  0.00  0.00    +0.000 N 
ATOM      7  C   UNL     1       1.229   8.901  19.479  0.00  0.00    +0.000 A 
ATOM      8  N   UNL     1       1.003   9.971  18.736  0.00  0.00    +0.000 NA
ATOM      9  N   UNL     1       0.418  11.013  19.430  0.00  0.00    +0.000 NA
ATOM     10  C   UNL     1       0.230  10.715  20.698  0.00  0.00    +0.000 A 
ATOM     11  S   UNL     1       0.684   9.115  21.100  0.00  0.00    +0.000 S 
ATOM     12  C   UNL     1       1.842   6.493  19.756  0.00  0.00    +0.000 C 
ATOM     13  C   UNL     1       3.270   5.934  19.868  0.00  0.00    +0.000 C 
ENDROOT
BRANCH   2  14
ATOM     14  C   UNL     1       5.442   4.629  16.990  0.00  0.00    +0.000 A 
ATOM     15  C   UNL     1       6.809   4.922  17.118  0.00  0.00    +0.000 A 
ATOM     16  C   UNL     1       7.650   4.870  16.005  0.00  0.00    +0.000 A 
ATOM     17  C   UNL     1       7.133   4.510  14.761  0.00  0.00    +0.000 A 
ATOM     18  C   UNL     1       5.770   4.250  14.629  0.00  0.00    +0.000 A 
ATOM     19 CL   UNL     1       5.133   3.780  13.102  0.00  0.00    +0.000 Cl
ATOM     20  C   UNL     1       4.918   4.349  15.726  0.00  0.00    +0.000 A 
ENDBRANCH   2  14
BRANCH  10  21
ATOM     21  C   UNL     1      -0.282  11.664  21.653  0.00  0.00    +0.000 A 
ATOM     22  C   UNL     1      -1.151  11.400  22.701  0.00  0.00    +0.000 A 
ATOM     23  C   UNL     1      -1.505  12.575  23.436  0.00  0.00    +0.000 A 
ATOM     24  C   UNL     1      -0.885  13.692  22.922  0.00  0.00    +0.000 A 
ATOM     25  S   UNL     1       0.109  13.339  21.600  0.00  0.00    +0.000 S 
BRANCH  24  26
ATOM     26  N   UNL     1      -1.011  15.050  23.389  0.00  0.00    +0.000 N 
ATOM     27  O   UNL     1      -1.791  15.773  22.757  0.00  0.00    +0.000 OA
ATOM     28  O   UNL     1      -0.343  15.396  24.370  0.00  0.00    +0.000 OA
ENDBRANCH  24  26
ENDBRANCH  10  21
TORSDOF 3
ENDMDL
MODEL 7
REMARK VINA RESULT:      -7.3      1.109      1.595
REMARK  Name = 
REMARK  3 active torsions:
REMARK  status: ('A' for Active; 'I' for Inactive)
REMARK    1  A    between atoms: C_2  and  C_3
REMARK    2  A    between atoms: C_17  and  C_18
REMARK    3  A    between atoms: C_21  and  N_22
REMARK                            x       y       z     vdW  Elec       q    Type
REMARK                         _______ _______ _______ _____ _____    ______ ____
ROOT
ATOM      1  O   UNL     1      -1.629  13.643  20.015  0.00  0.00    +0.000 OA
ATOM      2  C   UNL     1      -1.280  12.958  20.976  0.00  0.00    +0.000 C 
ATOM      3  N   UNL     1      -0.477  11.830  20.830  0.00  0.00    +0.000 N 
ATOM      4  C   UNL     1      -0.105  10.851  21.872  0.00  0.00    +0.000 C 
ATOM      5  C   UNL     1      -0.250   9.389  21.407  0.00  0.00    +0.000 C 
ATOM      6  N   UNL     1       0.397   9.210  20.108  0.00  0.00    +0.000 N 
ATOM      7  C   UNL     1       1.210   8.141  19.891  0.00  0.00    +0.000 A 
ATOM      8  N   UNL     1       1.409   7.156  20.749  0.00  0.00    +0.000 NA
ATOM      9  N   UNL     1       2.353   6.238  20.329  0.00  0.00    +0.000 NA
ATOM     10  C   UNL     1       2.868   6.562  19.163  0.00  0.00    +0.000 A 
ATOM     11  S   UNL     1       2.172   7.964  18.472  0.00  0.00    +0.000 S 
ATOM     12  C   UNL     1      -0.068  10.122  19.060  0.00  0.00    +0.000 C 
ATOM     13  C   UNL     1       0.129  11.578  19.515  0.00  0.00    +0.000 C 
ENDROOT
BRANCH   2  14
ATOM     14  C   UNL     1      -1.786  13.372  22.312  0.00  0.00    +0.000 A 
ATOM     15  C   UNL     1      -2.989  12.808  22.764  0.00  0.00    +0.000 A 
ATOM     16  C   UNL     1      -3.510  13.162  24.010  0.00  0.00    +0.000 A 
ATOM     17  C   UNL     1      -2.824  14.069  24.817  0.00  0.00    +0.000 A 
ATOM     18  C   UNL     1      -1.646  14.652  24.354  0.00  0.00    +0.000 A 
ATOM     19 CL   UNL     1      -0.783  15.752  25.356  0.00  0.00    +0.000 Cl
ATOM     20  C   UNL     1      -1.148  14.342  23.090  0.00  0.00    +0.000 A 
ENDBRANCH   2  14
BRANCH  10  21
ATOM     21  C   UNL     1       3.938   5.816  18.549  0.00  0.00    +0.000 A 
ATOM     22  C   UNL     1       4.179   4.456  18.675  0.00  0.00    +0.000 A 
ATOM     23  C   UNL     1       5.354   4.036  17.975  0.00  0.00    +0.000 A 
ATOM     24  C   UNL     1       5.961   5.094  17.337  0.00  0.00    +0.000 A 
ATOM     25  S   UNL     1       5.135   6.554  17.558  0.00  0.00    +0.000 S 
BRANCH  24  26
ATOM     26  N   UNL     1       7.168   5.059  16.550  0.00  0.00    +0.000 N 
ATOM     27  O   UNL     1       8.036   4.259  16.920  0.00  0.00    +0.000 OA
ATOM     28  O   UNL     1       7.256   5.818  15.578  0.00  0.00    +0.000 OA
ENDBRANCH  24  26
ENDBRANCH  10  21
TORSDOF 3
ENDMDL
MODEL 8
REMARK VINA RESULT:      -7.0      4.696     11.087
REMARK  Name = 
REMARK  3 active torsions:
REMARK  status: ('A' for Active; 'I' for Inactive)
REMARK    1  A    between atoms: C_2  and  C_3
REMARK    2  A    between atoms: C_17  and  C_18
REMARK    3  A    between atoms: C_21  and  N_22
REMARK                            x       y       z     vdW  Elec       q    Type
REMARK                         _______ _______ _______ _____ _____    ______ ____
ROOT
ATOM      1  O   UNL     1       2.960   8.371  16.797  0.00  0.00    +0.000 OA
ATOM      2  C   UNL     1       2.634   7.814  17.845  0.00  0.00    +0.000 C 
ATOM      3  N   UNL     1       1.794   8.419  18.777  0.00  0.00    +0.000 N 
ATOM      4  C   UNL     1       1.440   7.923  20.123  0.00  0.00    +0.000 C 
ATOM      5  C   UNL     1       1.525   9.013  21.210  0.00  0.00    +0.000 C 
ATOM      6  N   UNL     1       0.819  10.214  20.770  0.00  0.00    +0.000 N 
ATOM      7  C   UNL     1      -0.032  10.855  21.617  0.00  0.00    +0.000 A 
ATOM      8  N   UNL     1      -0.221  10.534  22.885  0.00  0.00    +0.000 NA
ATOM      9  N   UNL     1      -1.207  11.280  23.503  0.00  0.00    +0.000 NA
ATOM     10  C   UNL     1      -1.762  12.141  22.679  0.00  0.00    +0.000 A 
ATOM     11  S   UNL     1      -1.057  12.148  21.119  0.00  0.00    +0.000 S 
ATOM     12  C   UNL     1       1.264  10.752  19.481  0.00  0.00    +0.000 C 
ATOM     13  C   UNL     1       1.126   9.672  18.395  0.00  0.00    +0.000 C 
ENDROOT
BRANCH   2  14
ATOM     14  C   UNL     1       3.206   6.464  18.091  0.00  0.00    +0.000 A 
ATOM     15  C   UNL     1       2.316   5.394  18.273  0.00  0.00    +0.000 A 
ATOM     16  C   UNL     1       2.798   4.106  18.509  0.00  0.00    +0.000 A 
ATOM     17  C   UNL     1       4.173   3.876  18.548  0.00  0.00    +0.000 A 
ATOM     18  C   UNL     1       5.056   4.944  18.398  0.00  0.00    +0.000 A 
ATOM     19 CL   UNL     1       6.753   4.661  18.420  0.00  0.00    +0.000 Cl
ATOM     20  C   UNL     1       4.580   6.240  18.214  0.00  0.00    +0.000 A 
ENDBRANCH   2  14
BRANCH  10  21
ATOM     21  C   UNL     1      -2.876  12.974  23.055  0.00  0.00    +0.000 A 
ATOM     22  C   UNL     1      -4.214  12.746  22.773  0.00  0.00    +0.000 A 
ATOM     23  C   UNL     1      -5.065  13.793  23.248  0.00  0.00    +0.000 A 
ATOM     24  C   UNL     1      -4.341  14.778  23.882  0.00  0.00    +0.000 A 
ATOM     25  S   UNL     1      -2.683  14.449  23.919  0.00  0.00    +0.000 S 
BRANCH  24  26
ATOM     26  N   UNL     1      -4.852  15.990  24.472  0.00  0.00    +0.000 N 
ATOM     27  O   UNL     1      -6.018  16.286  24.185  0.00  0.00    +0.000 OA
ATOM     28  O   UNL     1      -4.104  16.641  25.210  0.00  0.00    +0.000 OA
ENDBRANCH  24  26
ENDBRANCH  10  21
TORSDOF 3
ENDMDL
MODEL 9
REMARK VINA RESULT:      -7.0      4.586     11.082
REMARK  Name = 
REMARK  3 active torsions:
REMARK  status: ('A' for Active; 'I' for Inactive)
REMARK    1  A    between atoms: C_2  and  C_3
REMARK    2  A    between atoms: C_17  and  C_18
REMARK    3  A    between atoms: C_21  and  N_22
REMARK                            x       y       z     vdW  Elec       q    Type
REMARK                         _______ _______ _______ _____ _____    ______ ____
ROOT
ATOM      1  O   UNL     1       2.635   8.445  17.331  0.00  0.00    +0.000 OA
ATOM      2  C   UNL     1       2.304   7.997  18.429  0.00  0.00    +0.000 C 
ATOM      3  N   UNL     1       1.458   8.692  19.290  0.00  0.00    +0.000 N 
ATOM      4  C   UNL     1       1.099   8.336  20.677  0.00  0.00    +0.000 C 
ATOM      5  C   UNL     1       1.177   9.531  21.648  0.00  0.00    +0.000 C 
ATOM      6  N   UNL     1       0.470  10.680  21.085  0.00  0.00    +0.000 N 
ATOM      7  C   UNL     1      -0.385  11.402  21.857  0.00  0.00    +0.000 A 
ATOM      8  N   UNL     1      -0.580  11.212  23.151  0.00  0.00    +0.000 NA
ATOM      9  N   UNL     1      -1.570  12.014  23.685  0.00  0.00    +0.000 NA
ATOM     10  C   UNL     1      -2.122  12.787  22.774  0.00  0.00    +0.000 A 
ATOM     11  S   UNL     1      -1.410  12.636  21.226  0.00  0.00    +0.000 S 
ATOM     12  C   UNL     1       0.922  11.084  19.750  0.00  0.00    +0.000 C 
ATOM     13  C   UNL     1       0.791   9.899  18.779  0.00  0.00    +0.000 C 
ENDROOT
BRANCH   2  14
ATOM     14  C   UNL     1       2.877   6.680  18.814  0.00  0.00    +0.000 A 
ATOM     15  C   UNL     1       4.062   6.268  18.184  0.00  0.00    +0.000 A 
ATOM     16  C   UNL     1       4.643   5.040  18.507  0.00  0.00    +0.000 A 
ATOM     17  C   UNL     1       4.053   4.225  19.472  0.00  0.00    +0.000 A 
ATOM     18  C   UNL     1       2.860   4.621  20.074  0.00  0.00    +0.000 A 
ATOM     19 CL   UNL     1       2.141   3.631  21.284  0.00  0.00    +0.000 Cl
ATOM     20  C   UNL     1       2.248   5.821  19.719  0.00  0.00    +0.000 A 
ENDBRANCH   2  14
BRANCH  10  21
ATOM     21  C   UNL     1      -3.240  13.651  23.058  0.00  0.00    +0.000 A 
ATOM     22  C   UNL     1      -3.192  15.015  23.302  0.00  0.00    +0.000 A 
ATOM     23  C   UNL     1      -4.477  15.568  23.600  0.00  0.00    +0.000 A 
ATOM     24  C   UNL     1      -5.458  14.603  23.565  0.00  0.00    +0.000 A 
ATOM     25  S   UNL     1      -4.856  13.072  23.171  0.00  0.00    +0.000 S 
BRANCH  24  26
ATOM     26  N   UNL     1      -6.865  14.781  23.826  0.00  0.00    +0.000 N 
ATOM     27  O   UNL     1      -7.443  13.830  24.367  0.00  0.00    +0.000 OA
ATOM     28  O   UNL     1      -7.390  15.850  23.497  0.00  0.00    +0.000 OA
ENDBRANCH  24  26
ENDBRANCH  10  21
TORSDOF 3
ENDMDL
