MODEL 1
REMARK VINA RESULT:      -8.9      0.000      0.000
REMARK  Name = 
REMARK  1 active torsions:
REMARK  status: ('A' for Active; 'I' for Inactive)
REMARK    1  A    between atoms: C_6  and  C_7
REMARK                            x       y       z     vdW  Elec       q    Type
REMARK                         _______ _______ _______ _____ _____    ______ ____
ROOT
ATOM      1  C   UNL     1       7.457   4.805  11.759  0.00  0.00    +0.000 A 
ATOM      2  C   UNL     1       6.486   3.799  11.774  0.00  0.00    +0.000 A 
ATOM      3  C   UNL     1       5.930   3.338  12.975  0.00  0.00    +0.000 A 
ATOM      4  C   UNL     1       6.391   3.939  14.149  0.00  0.00    +0.000 A 
ATOM      5  N   UNL     1       6.123   3.717  15.476  0.00  0.00    +0.000 N 
ATOM      6  C   UNL     1       6.816   4.644  16.211  0.00  0.00    +0.000 A 
ATOM      7  N   UNL     1       7.536   5.424  15.431  0.00  0.00    +0.000 NA
ATOM      8  C   UNL     1       7.317   4.973  14.155  0.00  0.00    +0.000 A 
ATOM      9  C   UNL     1       7.880   5.409  12.947  0.00  0.00    +0.000 A 
ATOM     10  H   UNL     1       5.505   3.017  15.859  0.00  0.00    +0.000 HD
ENDROOT
BRANCH   6  11
ATOM     11  C   UNL     1       6.822   4.727  17.692  0.00  0.00    +0.000 A 
ATOM     12  N   UNL     1       7.952   4.716  18.406  0.00  0.00    +0.000 NA
ATOM     13  O   UNL     1       7.551   5.060  19.702  0.00  0.00    +0.000 OA
ATOM     14  N   UNL     1       6.163   5.210  19.784  0.00  0.00    +0.000 NA
ATOM     15  C   UNL     1       5.735   4.925  18.550  0.00  0.00    +0.000 A 
ATOM     16  N   UNL     1       4.347   4.763  18.309  0.00  0.00    +0.000 N 
ATOM     17  C   UNL     1       3.774   3.948  17.349  0.00  0.00    +0.000 A 
ATOM     18  C   UNL     1       2.403   4.014  17.453  0.00  0.00    +0.000 A 
ATOM     19  C   UNL     1       2.111   4.893  18.516  0.00  0.00    +0.000 A 
ATOM     20  C   UNL     1       3.313   5.306  19.050  0.00  0.00    +0.000 A 
ENDBRANCH   6  11
TORSDOF 1
ENDMDL
MODEL 2
REMARK VINA RESULT:      -8.8      0.127      1.336
REMARK  Name = 
REMARK  1 active torsions:
REMARK  status: ('A' for Active; 'I' for Inactive)
REMARK    1  A    between atoms: C_6  and  C_7
REMARK                            x       y       z     vdW  Elec       q    Type
REMARK                         _______ _______ _______ _____ _____    ______ ____
ROOT
ATOM      1  C   UNL     1       6.244   3.703  11.847  0.00  0.00    +0.000 A 
ATOM      2  C   UNL     1       7.256   4.658  11.719  0.00  0.00    +0.000 A 
ATOM      3  C   UNL     1       7.822   5.279  12.841  0.00  0.00    +0.000 A 
ATOM      4  C   UNL     1       7.327   4.889  14.088  0.00  0.00    +0.000 A 
ATOM      5  N   UNL     1       7.594   5.305  15.368  0.00  0.00    +0.000 N 
ATOM      6  C   UNL     1       6.856   4.534  16.229  0.00  0.00    +0.000 A 
ATOM      7  N   UNL     1       6.110   3.672  15.570  0.00  0.00    +0.000 NA
ATOM      8  C   UNL     1       6.358   3.907  14.242  0.00  0.00    +0.000 A 
ATOM      9  C   UNL     1       5.786   3.311  13.110  0.00  0.00    +0.000 A 
ATOM     10  H   UNL     1       8.238   6.031  15.646  0.00  0.00    +0.000 HD
ENDROOT
BRANCH   6  11
ATOM     11  C   UNL     1       6.836   4.685  17.704  0.00  0.00    +0.000 A 
ATOM     12  N   UNL     1       7.954   4.704  18.437  0.00  0.00    +0.000 NA
ATOM     13  O   UNL     1       7.532   5.108  19.709  0.00  0.00    +0.000 OA
ATOM     14  N   UNL     1       6.143   5.266  19.759  0.00  0.00    +0.000 NA
ATOM     15  C   UNL     1       5.736   4.925  18.533  0.00  0.00    +0.000 A 
ATOM     16  N   UNL     1       4.351   4.757  18.275  0.00  0.00    +0.000 N 
ATOM     17  C   UNL     1       3.791   3.901  17.344  0.00  0.00    +0.000 A 
ATOM     18  C   UNL     1       2.420   3.975  17.420  0.00  0.00    +0.000 A 
ATOM     19  C   UNL     1       2.112   4.903  18.436  0.00  0.00    +0.000 A 
ATOM     20  C   UNL     1       3.306   5.336  18.971  0.00  0.00    +0.000 A 
ENDBRANCH   6  11
TORSDOF 1
ENDMDL
MODEL 3
REMARK VINA RESULT:      -8.5      2.527      5.694
REMARK  Name = 
REMARK  1 active torsions:
REMARK  status: ('A' for Active; 'I' for Inactive)
REMARK    1  A    between atoms: C_6  and  C_7
REMARK                            x       y       z     vdW  Elec       q    Type
REMARK                         _______ _______ _______ _____ _____    ______ ____
ROOT
ATOM      1  C   UNL     1       0.922   3.072  19.058  0.00  0.00    +0.000 A 
ATOM      2  C   UNL     1       1.628   1.920  19.418  0.00  0.00    +0.000 A 
ATOM      3  C   UNL     1       2.906   1.656  18.906  0.00  0.00    +0.000 A 
ATOM      4  C   UNL     1       3.434   2.603  18.025  0.00  0.00    +0.000 A 
ATOM      5  N   UNL     1       4.600   2.655  17.304  0.00  0.00    +0.000 N 
ATOM      6  C   UNL     1       4.637   3.854  16.639  0.00  0.00    +0.000 A 
ATOM      7  N   UNL     1       3.546   4.555  16.870  0.00  0.00    +0.000 NA
ATOM      8  C   UNL     1       2.773   3.776  17.692  0.00  0.00    +0.000 A 
ATOM      9  C   UNL     1       1.487   4.017  18.196  0.00  0.00    +0.000 A 
ATOM     10  H   UNL     1       5.327   1.955  17.278  0.00  0.00    +0.000 HD
ENDROOT
BRANCH   6  11
ATOM     11  C   UNL     1       5.719   4.288  15.724  0.00  0.00    +0.000 A 
ATOM     12  N   UNL     1       5.816   3.842  14.467  0.00  0.00    +0.000 NA
ATOM     13  O   UNL     1       6.787   4.661  13.879  0.00  0.00    +0.000 OA
ATOM     14  N   UNL     1       7.328   5.558  14.806  0.00  0.00    +0.000 NA
ATOM     15  C   UNL     1       6.705   5.253  15.949  0.00  0.00    +0.000 A 
ATOM     16  N   UNL     1       7.159   5.821  17.167  0.00  0.00    +0.000 N 
ATOM     17  C   UNL     1       7.075   5.241  18.420  0.00  0.00    +0.000 A 
ATOM     18  C   UNL     1       7.667   6.066  19.348  0.00  0.00    +0.000 A 
ATOM     19  C   UNL     1       8.145   7.195  18.650  0.00  0.00    +0.000 A 
ATOM     20  C   UNL     1       7.859   7.004  17.315  0.00  0.00    +0.000 A 
ENDBRANCH   6  11
TORSDOF 1
ENDMDL
MODEL 4
REMARK VINA RESULT:      -8.5      1.613      5.685
REMARK  Name = 
REMARK  1 active torsions:
REMARK  status: ('A' for Active; 'I' for Inactive)
REMARK    1  A    between atoms: C_6  and  C_7
REMARK                            x       y       z     vdW  Elec       q    Type
REMARK                         _______ _______ _______ _____ _____    ______ ____
ROOT
ATOM      1  C   UNL     1       0.475   3.400  19.891  0.00  0.00    +0.000 A 
ATOM      2  C   UNL     1       0.821   2.177  19.309  0.00  0.00    +0.000 A 
ATOM      3  C   UNL     1       2.124   1.923  18.859  0.00  0.00    +0.000 A 
ATOM      4  C   UNL     1       3.054   2.951  19.027  0.00  0.00    +0.000 A 
ATOM      5  N   UNL     1       4.372   3.082  18.669  0.00  0.00    +0.000 N 
ATOM      6  C   UNL     1       4.823   4.290  19.136  0.00  0.00    +0.000 A 
ATOM      7  N   UNL     1       3.859   4.952  19.741  0.00  0.00    +0.000 NA
ATOM      8  C   UNL     1       2.747   4.155  19.645  0.00  0.00    +0.000 A 
ATOM      9  C   UNL     1       1.434   4.402  20.072  0.00  0.00    +0.000 A 
ATOM     10  H   UNL     1       4.934   2.406  18.174  0.00  0.00    +0.000 HD
ENDROOT
BRANCH   6  11
ATOM     11  C   UNL     1       6.189   4.827  18.932  0.00  0.00    +0.000 A 
ATOM     12  N   UNL     1       6.948   5.258  19.946  0.00  0.00    +0.000 NA
ATOM     13  O   UNL     1       8.217   5.437  19.382  0.00  0.00    +0.000 OA
ATOM     14  N   UNL     1       8.206   5.179  18.007  0.00  0.00    +0.000 NA
ATOM     15  C   UNL     1       6.929   4.880  17.747  0.00  0.00    +0.000 A 
ATOM     16  N   UNL     1       6.496   4.770  16.400  0.00  0.00    +0.000 N 
ATOM     17  C   UNL     1       5.226   5.046  15.926  0.00  0.00    +0.000 A 
ATOM     18  C   UNL     1       5.201   4.875  14.561  0.00  0.00    +0.000 A 
ATOM     19  C   UNL     1       6.499   4.487  14.169  0.00  0.00    +0.000 A 
ATOM     20  C   UNL     1       7.282   4.469  15.303  0.00  0.00    +0.000 A 
ENDBRANCH   6  11
TORSDOF 1
ENDMDL
MODEL 5
REMARK VINA RESULT:      -8.5      1.642      5.877
REMARK  Name = 
REMARK  1 active torsions:
REMARK  status: ('A' for Active; 'I' for Inactive)
REMARK    1  A    between atoms: C_6  and  C_7
REMARK                            x       y       z     vdW  Elec       q    Type
REMARK                         _______ _______ _______ _____ _____    ______ ____
ROOT
ATOM      1  C   UNL     1       0.846   2.436  19.753  0.00  0.00    +0.000 A 
ATOM      2  C   UNL     1       0.505   3.668  20.318  0.00  0.00    +0.000 A 
ATOM      3  C   UNL     1       1.437   4.711  20.414  0.00  0.00    +0.000 A 
ATOM      4  C   UNL     1       2.715   4.456  19.911  0.00  0.00    +0.000 A 
ATOM      5  N   UNL     1       3.869   5.198  19.881  0.00  0.00    +0.000 N 
ATOM      6  C   UNL     1       4.822   4.476  19.209  0.00  0.00    +0.000 A 
ATOM      7  N   UNL     1       4.351   3.304  18.837  0.00  0.00    +0.000 NA
ATOM      8  C   UNL     1       3.062   3.259  19.302  0.00  0.00    +0.000 A 
ATOM      9  C   UNL     1       2.126   2.217  19.232  0.00  0.00    +0.000 A 
ATOM     10  H   UNL     1       4.002   6.125  20.259  0.00  0.00    +0.000 HD
ENDROOT
BRANCH   6  11
ATOM     11  C   UNL     1       6.220   4.913  18.984  0.00  0.00    +0.000 A 
ATOM     12  N   UNL     1       7.017   5.307  19.983  0.00  0.00    +0.000 NA
ATOM     13  O   UNL     1       8.289   5.388  19.405  0.00  0.00    +0.000 OA
ATOM     14  N   UNL     1       8.246   5.110  18.034  0.00  0.00    +0.000 NA
ATOM     15  C   UNL     1       6.949   4.896  17.791  0.00  0.00    +0.000 A 
ATOM     16  N   UNL     1       6.495   4.796  16.451  0.00  0.00    +0.000 N 
ATOM     17  C   UNL     1       5.243   5.152  15.984  0.00  0.00    +0.000 A 
ATOM     18  C   UNL     1       5.191   4.962  14.622  0.00  0.00    +0.000 A 
ATOM     19  C   UNL     1       6.454   4.478  14.224  0.00  0.00    +0.000 A 
ATOM     20  C   UNL     1       7.246   4.424  15.351  0.00  0.00    +0.000 A 
ENDBRANCH   6  11
TORSDOF 1
ENDMDL
MODEL 6
REMARK VINA RESULT:      -8.3      1.714      5.570
REMARK  Name = 
REMARK  1 active torsions:
REMARK  status: ('A' for Active; 'I' for Inactive)
REMARK    1  A    between atoms: C_6  and  C_7
REMARK                            x       y       z     vdW  Elec       q    Type
REMARK                         _______ _______ _______ _____ _____    ______ ____
ROOT
ATOM      1  C   UNL     1       0.976   2.780  18.561  0.00  0.00    +0.000 A 
ATOM      2  C   UNL     1       1.812   1.709  18.890  0.00  0.00    +0.000 A 
ATOM      3  C   UNL     1       3.192   1.758  18.652  0.00  0.00    +0.000 A 
ATOM      4  C   UNL     1       3.686   2.932  18.077  0.00  0.00    +0.000 A 
ATOM      5  N   UNL     1       4.937   3.311  17.662  0.00  0.00    +0.000 N 
ATOM      6  C   UNL     1       4.865   4.607  17.220  0.00  0.00    +0.000 A 
ATOM      7  N   UNL     1       3.633   5.066  17.299  0.00  0.00    +0.000 NA
ATOM      8  C   UNL     1       2.883   4.027  17.787  0.00  0.00    +0.000 A 
ATOM      9  C   UNL     1       1.501   3.954  18.012  0.00  0.00    +0.000 A 
ATOM     10  H   UNL     1       5.779   2.756  17.694  0.00  0.00    +0.000 HD
ENDROOT
BRANCH   6  11
ATOM     11  C   UNL     1       5.998   5.381  16.659  0.00  0.00    +0.000 A 
ATOM     12  N   UNL     1       6.616   6.347  17.346  0.00  0.00    +0.000 NA
ATOM     13  O   UNL     1       7.755   6.643  16.588  0.00  0.00    +0.000 OA
ATOM     14  N   UNL     1       7.787   5.900  15.403  0.00  0.00    +0.000 NA
ATOM     15  C   UNL     1       6.656   5.189  15.439  0.00  0.00    +0.000 A 
ATOM     16  N   UNL     1       6.241   4.473  14.287  0.00  0.00    +0.000 N 
ATOM     17  C   UNL     1       4.935   4.195  13.924  0.00  0.00    +0.000 A 
ATOM     18  C   UNL     1       4.927   3.529  12.720  0.00  0.00    +0.000 A 
ATOM     19  C   UNL     1       6.271   3.394  12.314  0.00  0.00    +0.000 A 
ATOM     20  C   UNL     1       7.052   4.013  13.266  0.00  0.00    +0.000 A 
ENDBRANCH   6  11
TORSDOF 1
ENDMDL
MODEL 7
REMARK VINA RESULT:      -8.1      2.628      6.065
REMARK  Name = 
REMARK  1 active torsions:
REMARK  status: ('A' for Active; 'I' for Inactive)
REMARK    1  A    between atoms: C_6  and  C_7
REMARK                            x       y       z     vdW  Elec       q    Type
REMARK                         _______ _______ _______ _____ _____    ______ ____
ROOT
ATOM      1  C   UNL     1       1.472   2.502  20.228  0.00  0.00    +0.000 A 
ATOM      2  C   UNL     1       1.105   3.845  20.358  0.00  0.00    +0.000 A 
ATOM      3  C   UNL     1       1.692   4.843  19.568  0.00  0.00    +0.000 A 
ATOM      4  C   UNL     1       2.654   4.425  18.645  0.00  0.00    +0.000 A 
ATOM      5  N   UNL     1       3.457   5.105  17.765  0.00  0.00    +0.000 N 
ATOM      6  C   UNL     1       4.182   4.185  17.052  0.00  0.00    +0.000 A 
ATOM      7  N   UNL     1       3.911   2.959  17.450  0.00  0.00    +0.000 NA
ATOM      8  C   UNL     1       2.999   3.093  18.465  0.00  0.00    +0.000 A 
ATOM      9  C   UNL     1       2.419   2.108  19.277  0.00  0.00    +0.000 A 
ATOM     10  H   UNL     1       3.499   6.105  17.633  0.00  0.00    +0.000 HD
ENDROOT
BRANCH   6  11
ATOM     11  C   UNL     1       5.192   4.512  16.017  0.00  0.00    +0.000 A 
ATOM     12  N   UNL     1       5.100   4.066  14.760  0.00  0.00    +0.000 NA
ATOM     13  O   UNL     1       6.076   4.784  14.061  0.00  0.00    +0.000 OA
ATOM     14  N   UNL     1       6.806   5.618  14.915  0.00  0.00    +0.000 NA
ATOM     15  C   UNL     1       6.290   5.372  16.123  0.00  0.00    +0.000 A 
ATOM     16  N   UNL     1       6.934   5.884  17.278  0.00  0.00    +0.000 N 
ATOM     17  C   UNL     1       6.933   5.309  18.536  0.00  0.00    +0.000 A 
ATOM     18  C   UNL     1       7.708   6.065  19.386  0.00  0.00    +0.000 A 
ATOM     19  C   UNL     1       8.215   7.144  18.631  0.00  0.00    +0.000 A 
ATOM     20  C   UNL     1       7.762   6.989  17.339  0.00  0.00    +0.000 A 
ENDBRANCH   6  11
TORSDOF 1
ENDMDL
MODEL 8
REMARK VINA RESULT:      -8.1      1.843      5.735
REMARK  Name = 
REMARK  1 active torsions:
REMARK  status: ('A' for Active; 'I' for Inactive)
REMARK    1  A    between atoms: C_6  and  C_7
REMARK                            x       y       z     vdW  Elec       q    Type
REMARK                         _______ _______ _______ _____ _____    ______ ____
ROOT
ATOM      1  C   UNL     1       1.759   1.969  18.750  0.00  0.00    +0.000 A 
ATOM      2  C   UNL     1       1.057   3.176  18.821  0.00  0.00    +0.000 A 
ATOM      3  C   UNL     1       1.597   4.367  18.316  0.00  0.00    +0.000 A 
ATOM      4  C   UNL     1       2.864   4.283  17.736  0.00  0.00    +0.000 A 
ATOM      5  N   UNL     1       3.707   5.222  17.199  0.00  0.00    +0.000 N 
ATOM      6  C   UNL     1       4.814   4.574  16.714  0.00  0.00    +0.000 A 
ATOM      7  N   UNL     1       4.740   3.279  16.940  0.00  0.00    +0.000 NA
ATOM      8  C   UNL     1       3.559   3.088  17.609  0.00  0.00    +0.000 A 
ATOM      9  C   UNL     1       3.016   1.908  18.138  0.00  0.00    +0.000 A 
ATOM     10  H   UNL     1       3.545   6.217  17.139  0.00  0.00    +0.000 HD
ENDROOT
BRANCH   6  11
ATOM     11  C   UNL     1       5.980   5.236  16.081  0.00  0.00    +0.000 A 
ATOM     12  N   UNL     1       6.683   6.192  16.697  0.00  0.00    +0.000 NA
ATOM     13  O   UNL     1       7.816   6.367  15.894  0.00  0.00    +0.000 OA
ATOM     14  N   UNL     1       7.761   5.561  14.751  0.00  0.00    +0.000 NA
ATOM     15  C   UNL     1       6.585   4.934  14.857  0.00  0.00    +0.000 A 
ATOM     16  N   UNL     1       6.088   4.189  13.757  0.00  0.00    +0.000 N 
ATOM     17  C   UNL     1       4.756   3.984  13.445  0.00  0.00    +0.000 A 
ATOM     18  C   UNL     1       4.665   3.257  12.281  0.00  0.00    +0.000 A 
ATOM     19  C   UNL     1       5.983   3.006  11.847  0.00  0.00    +0.000 A 
ATOM     20  C   UNL     1       6.833   3.619  12.742  0.00  0.00    +0.000 A 
ENDBRANCH   6  11
TORSDOF 1
ENDMDL
MODEL 9
REMARK VINA RESULT:      -8.0      4.353      6.255
REMARK  Name = 
REMARK  1 active torsions:
REMARK  status: ('A' for Active; 'I' for Inactive)
REMARK    1  A    between atoms: C_6  and  C_7
REMARK                            x       y       z     vdW  Elec       q    Type
REMARK                         _______ _______ _______ _____ _____    ______ ____
ROOT
ATOM      1  C   UNL     1       0.585  10.065  18.522  0.00  0.00    +0.000 A 
ATOM      2  C   UNL     1       0.310   9.830  19.873  0.00  0.00    +0.000 A 
ATOM      3  C   UNL     1       0.937   8.793  20.578  0.00  0.00    +0.000 A 
ATOM      4  C   UNL     1       1.852   8.016  19.863  0.00  0.00    +0.000 A 
ATOM      5  N   UNL     1       2.597   6.913  20.197  0.00  0.00    +0.000 N 
ATOM      6  C   UNL     1       3.378   6.585  19.119  0.00  0.00    +0.000 A 
ATOM      7  N   UNL     1       3.151   7.396  18.106  0.00  0.00    +0.000 NA
ATOM      8  C   UNL     1       2.178   8.261  18.537  0.00  0.00    +0.000 A 
ATOM      9  C   UNL     1       1.526   9.287  17.839  0.00  0.00    +0.000 A 
ATOM     10  H   UNL     1       2.601   6.432  21.084  0.00  0.00    +0.000 HD
ENDROOT
BRANCH   6  11
ATOM     11  C   UNL     1       4.309   5.433  19.060  0.00  0.00    +0.000 A 
ATOM     12  N   UNL     1       5.630   5.585  18.919  0.00  0.00    +0.000 NA
ATOM     13  O   UNL     1       6.157   4.311  19.160  0.00  0.00    +0.000 OA
ATOM     14  N   UNL     1       5.143   3.372  19.377  0.00  0.00    +0.000 NA
ATOM     15  C   UNL     1       4.016   4.076  19.234  0.00  0.00    +0.000 A 
ATOM     16  N   UNL     1       2.771   3.401  19.173  0.00  0.00    +0.000 N 
ATOM     17  C   UNL     1       1.646   3.822  18.485  0.00  0.00    +0.000 A 
ATOM     18  C   UNL     1       0.651   2.881  18.616  0.00  0.00    +0.000 A 
ATOM     19  C   UNL     1       1.173   1.834  19.404  0.00  0.00    +0.000 A 
ATOM     20  C   UNL     1       2.481   2.155  19.698  0.00  0.00    +0.000 A 
ENDBRANCH   6  11
TORSDOF 1
ENDMDL
