MODEL 1
REMARK VINA RESULT:      -7.1      0.000      0.000
REMARK  Name = 
REMARK  8 active torsions:
REMARK  status: ('A' for Active; 'I' for Inactive)
REMARK    1  A    between atoms: C_1  and  C_2
REMARK    2  A    between atoms: C_4  and  C_5
REMARK    3  A    between atoms: C_5  and  C_6
REMARK    4  A    between atoms: C_6  and  N_7
REMARK    5  A    between atoms: C_17  and  O_18
REMARK    6  A    between atoms: O_18  and  C_19
REMARK    7  A    between atoms: C_19  and  C_20
REMARK    8  A    between atoms: C_19  and  C_21
REMARK                            x       y       z     vdW  Elec       q    Type
REMARK                         _______ _______ _______ _____ _____    ______ ____
ROOT
ATOM      1  C   UNL     1       2.052   9.826  17.756  0.00  0.00    +0.000 C 
ATOM      2  C   UNL     1       2.042   8.557  18.564  0.00  0.00    +0.000 A 
ATOM      3  C   UNL     1       2.454   7.366  17.929  0.00  0.00    +0.000 A 
ATOM      4  C   UNL     1       2.512   6.150  18.621  0.00  0.00    +0.000 A 
ATOM      5  C   UNL     1       2.228   6.149  19.985  0.00  0.00    +0.000 A 
ATOM      6  C   UNL     1       1.815   7.319  20.625  0.00  0.00    +0.000 A 
ATOM      7  C   UNL     1       1.649   8.510  19.910  0.00  0.00    +0.000 A 
ENDROOT
BRANCH   4   8
ATOM      8  C   UNL     1       2.981   4.919  17.886  0.00  0.00    +0.000 C 
BRANCH   8   9
ATOM      9  C   UNL     1       4.340   4.365  18.332  0.00  0.00    +0.000 C 
BRANCH   9  10
ATOM     10  N   UNL     1       5.382   4.528  17.305  0.00  0.00    +0.000 N 
ATOM     11  C   UNL     1       5.214   3.762  16.075  0.00  0.00    +0.000 C 
ATOM     12  C   UNL     1       5.653   4.559  14.875  0.00  0.00    +0.000 C 
ATOM     13  C   UNL     1       7.042   5.075  15.107  0.00  0.00    +0.000 C 
ATOM     14  O   UNL     1       7.801   5.360  14.186  0.00  0.00    +0.000 OA
ATOM     15  N   UNL     1       7.397   5.293  16.416  0.00  0.00    +0.000 N 
ATOM     16  C   UNL     1       6.618   5.115  17.535  0.00  0.00    +0.000 C 
ATOM     17  S   UNL     1       7.236   5.613  19.005  0.00  0.00    +0.000 S 
ATOM     18  H   UNL     1       8.305   5.716  16.555  0.00  0.00    +0.000 HD
ENDBRANCH   9  10
ENDBRANCH   8   9
ENDBRANCH   4   8
BRANCH   7  19
ATOM     19  O   UNL     1       1.137   9.651  20.490  0.00  0.00    +0.000 OA
BRANCH  19  20
ATOM     20  C   UNL     1      -0.277   9.623  20.779  0.00  0.00    +0.000 C 
ATOM     21  C   UNL     1      -0.533  10.168  22.181  0.00  0.00    +0.000 C 
ATOM     22  C   UNL     1      -1.017  10.450  19.733  0.00  0.00    +0.000 C 
ENDBRANCH  19  20
ENDBRANCH   7  19
TORSDOF 5
ENDMDL
MODEL 2
REMARK VINA RESULT:      -7.0      1.885      2.890
REMARK  Name = 
REMARK  8 active torsions:
REMARK  status: ('A' for Active; 'I' for Inactive)
REMARK    1  A    between atoms: C_1  and  C_2
REMARK    2  A    between atoms: C_4  and  C_5
REMARK    3  A    between atoms: C_5  and  C_6
REMARK    4  A    between atoms: C_6  and  N_7
REMARK    5  A    between atoms: C_17  and  O_18
REMARK    6  A    between atoms: O_18  and  C_19
REMARK    7  A    between atoms: C_19  and  C_20
REMARK    8  A    between atoms: C_19  and  C_21
REMARK                            x       y       z     vdW  Elec       q    Type
REMARK                         _______ _______ _______ _____ _____    ______ ____
ROOT
ATOM      1  C   UNL     1      -0.357   9.477  22.089  0.00  0.00    +0.000 C 
ATOM      2  C   UNL     1       0.532   9.069  20.946  0.00  0.00    +0.000 A 
ATOM      3  C   UNL     1       1.163   7.808  21.018  0.00  0.00    +0.000 A 
ATOM      4  C   UNL     1       1.974   7.335  19.979  0.00  0.00    +0.000 A 
ATOM      5  C   UNL     1       2.088   8.106  18.823  0.00  0.00    +0.000 A 
ATOM      6  C   UNL     1       1.473   9.357  18.741  0.00  0.00    +0.000 A 
ATOM      7  C   UNL     1       0.755   9.878  19.822  0.00  0.00    +0.000 A 
ENDROOT
BRANCH   4   8
ATOM      8  C   UNL     1       2.602   5.970  20.112  0.00  0.00    +0.000 C 
BRANCH   8   9
ATOM      9  C   UNL     1       2.634   5.134  18.826  0.00  0.00    +0.000 C 
BRANCH   9  10
ATOM     10  N   UNL     1       4.004   4.862  18.363  0.00  0.00    +0.000 N 
ATOM     11  C   UNL     1       4.455   5.594  17.185  0.00  0.00    +0.000 C 
ATOM     12  C   UNL     1       5.903   5.986  17.310  0.00  0.00    +0.000 C 
ATOM     13  C   UNL     1       6.717   4.770  17.642  0.00  0.00    +0.000 C 
ATOM     14  O   UNL     1       7.913   4.686  17.379  0.00  0.00    +0.000 OA
ATOM     15  N   UNL     1       6.069   3.778  18.336  0.00  0.00    +0.000 N 
ATOM     16  C   UNL     1       4.767   3.781  18.782  0.00  0.00    +0.000 C 
ATOM     17  S   UNL     1       4.271   2.514  19.751  0.00  0.00    +0.000 S 
ATOM     18  H   UNL     1       6.647   3.000  18.623  0.00  0.00    +0.000 HD
ENDBRANCH   9  10
ENDBRANCH   8   9
ENDBRANCH   4   8
BRANCH   7  19
ATOM     19  O   UNL     1       0.231  11.154  19.812  0.00  0.00    +0.000 OA
BRANCH  19  20
ATOM     20  C   UNL     1      -0.499  11.518  18.621  0.00  0.00    +0.000 C 
ATOM     21  C   UNL     1      -1.844  10.798  18.593  0.00  0.00    +0.000 C 
ATOM     22  C   UNL     1      -0.694  13.030  18.597  0.00  0.00    +0.000 C 
ENDBRANCH  19  20
ENDBRANCH   7  19
TORSDOF 5
ENDMDL
MODEL 3
REMARK VINA RESULT:      -6.9      0.907      1.107
REMARK  Name = 
REMARK  8 active torsions:
REMARK  status: ('A' for Active; 'I' for Inactive)
REMARK    1  A    between atoms: C_1  and  C_2
REMARK    2  A    between atoms: C_4  and  C_5
REMARK    3  A    between atoms: C_5  and  C_6
REMARK    4  A    between atoms: C_6  and  N_7
REMARK    5  A    between atoms: C_17  and  O_18
REMARK    6  A    between atoms: O_18  and  C_19
REMARK    7  A    between atoms: C_19  and  C_20
REMARK    8  A    between atoms: C_19  and  C_21
REMARK                            x       y       z     vdW  Elec       q    Type
REMARK                         _______ _______ _______ _____ _____    ______ ____
ROOT
ATOM      1  C   UNL     1       2.082   9.382  17.819  0.00  0.00    +0.000 C 
ATOM      2  C   UNL     1       2.041   8.140  18.667  0.00  0.00    +0.000 A 
ATOM      3  C   UNL     1       2.752   7.008  18.215  0.00  0.00    +0.000 A 
ATOM      4  C   UNL     1       2.799   5.825  18.964  0.00  0.00    +0.000 A 
ATOM      5  C   UNL     1       2.188   5.809  20.216  0.00  0.00    +0.000 A 
ATOM      6  C   UNL     1       1.478   6.920  20.674  0.00  0.00    +0.000 A 
ATOM      7  C   UNL     1       1.337   8.062  19.878  0.00  0.00    +0.000 A 
ENDROOT
BRANCH   4   8
ATOM      8  C   UNL     1       3.595   4.660  18.430  0.00  0.00    +0.000 C 
BRANCH   8   9
ATOM      9  C   UNL     1       5.110   4.741  18.655  0.00  0.00    +0.000 C 
BRANCH   9  10
ATOM     10  N   UNL     1       5.864   4.825  17.394  0.00  0.00    +0.000 N 
ATOM     11  C   UNL     1       5.607   3.783  16.407  0.00  0.00    +0.000 C 
ATOM     12  C   UNL     1       5.621   4.344  15.009  0.00  0.00    +0.000 C 
ATOM     13  C   UNL     1       6.895   5.106  14.797  0.00  0.00    +0.000 C 
ATOM     14  O   UNL     1       7.376   5.288  13.683  0.00  0.00    +0.000 OA
ATOM     15  N   UNL     1       7.459   5.669  15.916  0.00  0.00    +0.000 N 
ATOM     16  C   UNL     1       6.977   5.632  17.204  0.00  0.00    +0.000 C 
ATOM     17  S   UNL     1       7.769   6.541  18.361  0.00  0.00    +0.000 S 
ATOM     18  H   UNL     1       8.271   6.247  15.750  0.00  0.00    +0.000 HD
ENDBRANCH   9  10
ENDBRANCH   8   9
ENDBRANCH   4   8
BRANCH   7  19
ATOM     19  O   UNL     1       0.550   9.130  20.255  0.00  0.00    +0.000 OA
BRANCH  19  20
ATOM     20  C   UNL     1       1.070   9.936  21.334  0.00  0.00    +0.000 C 
ATOM     21  C   UNL     1       0.994  11.415  20.962  0.00  0.00    +0.000 C 
ATOM     22  C   UNL     1       0.266   9.655  22.600  0.00  0.00    +0.000 C 
ENDBRANCH  19  20
ENDBRANCH   7  19
TORSDOF 5
ENDMDL
MODEL 4
REMARK VINA RESULT:      -6.8      0.979      1.885
REMARK  Name = 
REMARK  8 active torsions:
REMARK  status: ('A' for Active; 'I' for Inactive)
REMARK    1  A    between atoms: C_1  and  C_2
REMARK    2  A    between atoms: C_4  and  C_5
REMARK    3  A    between atoms: C_5  and  C_6
REMARK    4  A    between atoms: C_6  and  N_7
REMARK    5  A    between atoms: C_17  and  O_18
REMARK    6  A    between atoms: O_18  and  C_19
REMARK    7  A    between atoms: C_19  and  C_20
REMARK    8  A    between atoms: C_19  and  C_21
REMARK                            x       y       z     vdW  Elec       q    Type
REMARK                         _______ _______ _______ _____ _____    ______ ____
ROOT
ATOM      1  C   UNL     1       0.823   8.319  21.468  0.00  0.00    +0.000 C 
ATOM      2  C   UNL     1       1.499   8.061  20.149  0.00  0.00    +0.000 A 
ATOM      3  C   UNL     1       1.999   6.763  19.906  0.00  0.00    +0.000 A 
ATOM      4  C   UNL     1       2.606   6.429  18.689  0.00  0.00    +0.000 A 
ATOM      5  C   UNL     1       2.640   7.389  17.679  0.00  0.00    +0.000 A 
ATOM      6  C   UNL     1       2.153   8.677  17.908  0.00  0.00    +0.000 A 
ATOM      7  C   UNL     1       1.648   9.044  19.160  0.00  0.00    +0.000 A 
ENDROOT
BRANCH   4   8
ATOM      8  C   UNL     1       3.100   5.018  18.488  0.00  0.00    +0.000 C 
BRANCH   8   9
ATOM      9  C   UNL     1       4.550   4.762  18.920  0.00  0.00    +0.000 C 
BRANCH   9  10
ATOM     10  N   UNL     1       5.494   4.820  17.793  0.00  0.00    +0.000 N 
ATOM     11  C   UNL     1       5.178   3.997  16.631  0.00  0.00    +0.000 C 
ATOM     12  C   UNL     1       5.533   4.706  15.351  0.00  0.00    +0.000 C 
ATOM     13  C   UNL     1       6.958   5.168  15.422  0.00  0.00    +0.000 C 
ATOM     14  O   UNL     1       7.637   5.368  14.419  0.00  0.00    +0.000 OA
ATOM     15  N   UNL     1       7.445   5.441  16.677  0.00  0.00    +0.000 N 
ATOM     16  C   UNL     1       6.769   5.360  17.873  0.00  0.00    +0.000 C 
ATOM     17  S   UNL     1       7.545   5.909  19.247  0.00  0.00    +0.000 S 
ATOM     18  H   UNL     1       8.379   5.828  16.706  0.00  0.00    +0.000 HD
ENDBRANCH   9  10
ENDBRANCH   8   9
ENDBRANCH   4   8
BRANCH   7  19
ATOM     19  O   UNL     1       1.264  10.336  19.449  0.00  0.00    +0.000 OA
BRANCH  19  20
ATOM     20  C   UNL     1       0.383  10.955  18.487  0.00  0.00    +0.000 C 
ATOM     21  C   UNL     1      -0.830  10.060  18.242  0.00  0.00    +0.000 C 
ATOM     22  C   UNL     1      -0.049  12.320  19.010  0.00  0.00    +0.000 C 
ENDBRANCH  19  20
ENDBRANCH   7  19
TORSDOF 5
ENDMDL
MODEL 5
REMARK VINA RESULT:      -6.7      2.090      2.408
REMARK  Name = 
REMARK  8 active torsions:
REMARK  status: ('A' for Active; 'I' for Inactive)
REMARK    1  A    between atoms: C_1  and  C_2
REMARK    2  A    between atoms: C_4  and  C_5
REMARK    3  A    between atoms: C_5  and  C_6
REMARK    4  A    between atoms: C_6  and  N_7
REMARK    5  A    between atoms: C_17  and  O_18
REMARK    6  A    between atoms: O_18  and  C_19
REMARK    7  A    between atoms: C_19  and  C_20
REMARK    8  A    between atoms: C_19  and  C_21
REMARK                            x       y       z     vdW  Elec       q    Type
REMARK                         _______ _______ _______ _____ _____    ______ ____
ROOT
ATOM      1  C   UNL     1       2.550   8.381  17.825  0.00  0.00    +0.000 C 
ATOM      2  C   UNL     1       2.177   7.187  18.661  0.00  0.00    +0.000 A 
ATOM      3  C   UNL     1       2.110   5.930  18.023  0.00  0.00    +0.000 A 
ATOM      4  C   UNL     1       1.809   4.762  18.735  0.00  0.00    +0.000 A 
ATOM      5  C   UNL     1       1.652   4.850  20.117  0.00  0.00    +0.000 A 
ATOM      6  C   UNL     1       1.712   6.088  20.760  0.00  0.00    +0.000 A 
ATOM      7  C   UNL     1       1.901   7.269  20.034  0.00  0.00    +0.000 A 
ENDROOT
BRANCH   4   8
ATOM      8  C   UNL     1       1.773   3.449  17.994  0.00  0.00    +0.000 C 
BRANCH   8   9
ATOM      9  C   UNL     1       2.996   3.158  17.114  0.00  0.00    +0.000 C 
BRANCH   9  10
ATOM     10  N   UNL     1       4.238   3.720  17.668  0.00  0.00    +0.000 N 
ATOM     11  C   UNL     1       5.057   4.518  16.762  0.00  0.00    +0.000 C 
ATOM     12  C   UNL     1       5.671   5.693  17.477  0.00  0.00    +0.000 C 
ATOM     13  C   UNL     1       6.385   5.205  18.702  0.00  0.00    +0.000 C 
ATOM     14  O   UNL     1       7.310   5.826  19.217  0.00  0.00    +0.000 OA
ATOM     15  N   UNL     1       5.894   4.057  19.274  0.00  0.00    +0.000 N 
ATOM     16  C   UNL     1       4.809   3.317  18.866  0.00  0.00    +0.000 C 
ATOM     17  S   UNL     1       4.317   2.050  19.838  0.00  0.00    +0.000 S 
ATOM     18  H   UNL     1       6.332   3.783  20.143  0.00  0.00    +0.000 HD
ENDBRANCH   9  10
ENDBRANCH   8   9
ENDBRANCH   4   8
BRANCH   7  19
ATOM     19  O   UNL     1       1.853   8.513  20.625  0.00  0.00    +0.000 OA
BRANCH  19  20
ATOM     20  C   UNL     1       0.556   8.925  21.107  0.00  0.00    +0.000 C 
ATOM     21  C   UNL     1       0.659   9.368  22.564  0.00  0.00    +0.000 C 
ATOM     22  C   UNL     1       0.034  10.059  20.232  0.00  0.00    +0.000 C 
ENDBRANCH  19  20
ENDBRANCH   7  19
TORSDOF 5
ENDMDL
MODEL 6
REMARK VINA RESULT:      -6.7      1.927      2.364
REMARK  Name = 
REMARK  8 active torsions:
REMARK  status: ('A' for Active; 'I' for Inactive)
REMARK    1  A    between atoms: C_1  and  C_2
REMARK    2  A    between atoms: C_4  and  C_5
REMARK    3  A    between atoms: C_5  and  C_6
REMARK    4  A    between atoms: C_6  and  N_7
REMARK    5  A    between atoms: C_17  and  O_18
REMARK    6  A    between atoms: O_18  and  C_19
REMARK    7  A    between atoms: C_19  and  C_20
REMARK    8  A    between atoms: C_19  and  C_21
REMARK                            x       y       z     vdW  Elec       q    Type
REMARK                         _______ _______ _______ _____ _____    ______ ____
ROOT
ATOM      1  C   UNL     1       1.977  10.019  17.722  0.00  0.00    +0.000 C 
ATOM      2  C   UNL     1       1.606   9.222  18.943  0.00  0.00    +0.000 A 
ATOM      3  C   UNL     1       2.095   7.902  19.043  0.00  0.00    +0.000 A 
ATOM      4  C   UNL     1       1.830   7.106  20.165  0.00  0.00    +0.000 A 
ATOM      5  C   UNL     1       1.132   7.673  21.230  0.00  0.00    +0.000 A 
ATOM      6  C   UNL     1       0.640   8.976  21.142  0.00  0.00    +0.000 A 
ATOM      7  C   UNL     1       0.808   9.732  19.977  0.00  0.00    +0.000 A 
ENDROOT
BRANCH   4   8
ATOM      8  C   UNL     1       2.401   5.710  20.216  0.00  0.00    +0.000 C 
BRANCH   8   9
ATOM      9  C   UNL     1       2.470   4.980  18.869  0.00  0.00    +0.000 C 
BRANCH   9  10
ATOM     10  N   UNL     1       3.853   4.758  18.417  0.00  0.00    +0.000 N 
ATOM     11  C   UNL     1       4.274   5.477  17.220  0.00  0.00    +0.000 C 
ATOM     12  C   UNL     1       5.703   5.939  17.339  0.00  0.00    +0.000 C 
ATOM     13  C   UNL     1       6.570   4.771  17.705  0.00  0.00    +0.000 C 
ATOM     14  O   UNL     1       7.769   4.734  17.447  0.00  0.00    +0.000 OA
ATOM     15  N   UNL     1       5.965   3.769  18.424  0.00  0.00    +0.000 N 
ATOM     16  C   UNL     1       4.663   3.725  18.867  0.00  0.00    +0.000 C 
ATOM     17  S   UNL     1       4.221   2.464  19.869  0.00  0.00    +0.000 S 
ATOM     18  H   UNL     1       6.577   3.026  18.734  0.00  0.00    +0.000 HD
ENDBRANCH   9  10
ENDBRANCH   8   9
ENDBRANCH   4   8
BRANCH   7  19
ATOM     19  O   UNL     1       0.237  10.977  19.820  0.00  0.00    +0.000 OA
BRANCH  19  20
ATOM     20  C   UNL     1      -1.201  10.993  19.694  0.00  0.00    +0.000 C 
ATOM     21  C   UNL     1      -1.779  12.168  20.478  0.00  0.00    +0.000 C 
ATOM     22  C   UNL     1      -1.573  11.091  18.219  0.00  0.00    +0.000 C 
ENDBRANCH  19  20
ENDBRANCH   7  19
TORSDOF 5
ENDMDL
MODEL 7
REMARK VINA RESULT:      -6.7      1.870      2.854
REMARK  Name = 
REMARK  8 active torsions:
REMARK  status: ('A' for Active; 'I' for Inactive)
REMARK    1  A    between atoms: C_1  and  C_2
REMARK    2  A    between atoms: C_4  and  C_5
REMARK    3  A    between atoms: C_5  and  C_6
REMARK    4  A    between atoms: C_6  and  N_7
REMARK    5  A    between atoms: C_17  and  O_18
REMARK    6  A    between atoms: O_18  and  C_19
REMARK    7  A    between atoms: C_19  and  C_20
REMARK    8  A    between atoms: C_19  and  C_21
REMARK                            x       y       z     vdW  Elec       q    Type
REMARK                         _______ _______ _______ _____ _____    ______ ____
ROOT
ATOM      1  C   UNL     1       0.670   9.042  22.166  0.00  0.00    +0.000 C 
ATOM      2  C   UNL     1       1.042   9.255  20.723  0.00  0.00    +0.000 A 
ATOM      3  C   UNL     1       1.644   8.183  20.031  0.00  0.00    +0.000 A 
ATOM      4  C   UNL     1       1.985   8.285  18.676  0.00  0.00    +0.000 A 
ATOM      5  C   UNL     1       1.643   9.451  17.993  0.00  0.00    +0.000 A 
ATOM      6  C   UNL     1       1.051  10.520  18.667  0.00  0.00    +0.000 A 
ATOM      7  C   UNL     1       0.813  10.461  20.044  0.00  0.00    +0.000 A 
ENDROOT
BRANCH   4   8
ATOM      8  C   UNL     1       2.608   7.094  17.993  0.00  0.00    +0.000 C 
BRANCH   8   9
ATOM      9  C   UNL     1       3.381   6.139  18.912  0.00  0.00    +0.000 C 
BRANCH   9  10
ATOM     10  N   UNL     1       4.569   5.565  18.259  0.00  0.00    +0.000 N 
ATOM     11  C   UNL     1       5.448   6.497  17.563  0.00  0.00    +0.000 C 
ATOM     12  C   UNL     1       6.894   6.117  17.741  0.00  0.00    +0.000 C 
ATOM     13  C   UNL     1       7.076   4.678  17.357  0.00  0.00    +0.000 C 
ATOM     14  O   UNL     1       8.155   4.227  16.985  0.00  0.00    +0.000 OA
ATOM     15  N   UNL     1       5.983   3.864  17.523  0.00  0.00    +0.000 N 
ATOM     16  C   UNL     1       4.749   4.210  18.022  0.00  0.00    +0.000 C 
ATOM     17  S   UNL     1       3.638   2.988  18.278  0.00  0.00    +0.000 S 
ATOM     18  H   UNL     1       6.141   2.882  17.338  0.00  0.00    +0.000 HD
ENDBRANCH   9  10
ENDBRANCH   8   9
ENDBRANCH   4   8
BRANCH   7  19
ATOM     19  O   UNL     1       0.333  11.540  20.756  0.00  0.00    +0.000 OA
BRANCH  19  20
ATOM     20  C   UNL     1      -1.103  11.688  20.770  0.00  0.00    +0.000 C 
ATOM     21  C   UNL     1      -1.592  11.878  22.204  0.00  0.00    +0.000 C 
ATOM     22  C   UNL     1      -1.491  12.882  19.904  0.00  0.00    +0.000 C 
ENDBRANCH  19  20
ENDBRANCH   7  19
TORSDOF 5
ENDMDL
MODEL 8
REMARK VINA RESULT:      -6.6      2.771      3.841
REMARK  Name = 
REMARK  8 active torsions:
REMARK  status: ('A' for Active; 'I' for Inactive)
REMARK    1  A    between atoms: C_1  and  C_2
REMARK    2  A    between atoms: C_4  and  C_5
REMARK    3  A    between atoms: C_5  and  C_6
REMARK    4  A    between atoms: C_6  and  N_7
REMARK    5  A    between atoms: C_17  and  O_18
REMARK    6  A    between atoms: O_18  and  C_19
REMARK    7  A    between atoms: C_19  and  C_20
REMARK    8  A    between atoms: C_19  and  C_21
REMARK                            x       y       z     vdW  Elec       q    Type
REMARK                         _______ _______ _______ _____ _____    ______ ____
ROOT
ATOM      1  C   UNL     1       0.559   8.744  21.693  0.00  0.00    +0.000 C 
ATOM      2  C   UNL     1       1.120   8.923  20.309  0.00  0.00    +0.000 A 
ATOM      3  C   UNL     1       1.861   7.858  19.754  0.00  0.00    +0.000 A 
ATOM      4  C   UNL     1       2.384   7.928  18.456  0.00  0.00    +0.000 A 
ATOM      5  C   UNL     1       2.091   9.049  17.683  0.00  0.00    +0.000 A 
ATOM      6  C   UNL     1       1.363  10.112  18.221  0.00  0.00    +0.000 A 
ATOM      7  C   UNL     1       0.936  10.091  19.553  0.00  0.00    +0.000 A 
ENDROOT
BRANCH   4   8
ATOM      8  C   UNL     1       3.150   6.745  17.918  0.00  0.00    +0.000 C 
BRANCH   8   9
ATOM      9  C   UNL     1       2.470   5.382  18.106  0.00  0.00    +0.000 C 
BRANCH   9  10
ATOM     10  N   UNL     1       3.320   4.423  18.829  0.00  0.00    +0.000 N 
ATOM     11  C   UNL     1       2.982   4.171  20.226  0.00  0.00    +0.000 C 
ATOM     12  C   UNL     1       3.185   2.722  20.581  0.00  0.00    +0.000 C 
ATOM     13  C   UNL     1       4.572   2.307  20.187  0.00  0.00    +0.000 C 
ATOM     14  O   UNL     1       5.157   1.370  20.724  0.00  0.00    +0.000 OA
ATOM     15  N   UNL     1       5.129   2.981  19.129  0.00  0.00    +0.000 N 
ATOM     16  C   UNL     1       4.553   3.977  18.374  0.00  0.00    +0.000 C 
ATOM     17  S   UNL     1       5.385   4.520  17.031  0.00  0.00    +0.000 S 
ATOM     18  H   UNL     1       6.029   2.640  18.821  0.00  0.00    +0.000 HD
ENDBRANCH   9  10
ENDBRANCH   8   9
ENDBRANCH   4   8
BRANCH   7  19
ATOM     19  O   UNL     1       0.314  11.170  20.144  0.00  0.00    +0.000 OA
BRANCH  19  20
ATOM     20  C   UNL     1      -0.496  11.980  19.265  0.00  0.00    +0.000 C 
ATOM     21  C   UNL     1      -1.973  11.808  19.611  0.00  0.00    +0.000 C 
ATOM     22  C   UNL     1      -0.075  13.440  19.402  0.00  0.00    +0.000 C 
ENDBRANCH  19  20
ENDBRANCH   7  19
TORSDOF 5
ENDMDL
MODEL 9
REMARK VINA RESULT:      -6.6      1.830      2.702
REMARK  Name = 
REMARK  8 active torsions:
REMARK  status: ('A' for Active; 'I' for Inactive)
REMARK    1  A    between atoms: C_1  and  C_2
REMARK    2  A    between atoms: C_4  and  C_5
REMARK    3  A    between atoms: C_5  and  C_6
REMARK    4  A    between atoms: C_6  and  N_7
REMARK    5  A    between atoms: C_17  and  O_18
REMARK    6  A    between atoms: O_18  and  C_19
REMARK    7  A    between atoms: C_19  and  C_20
REMARK    8  A    between atoms: C_19  and  C_21
REMARK                            x       y       z     vdW  Elec       q    Type
REMARK                         _______ _______ _______ _____ _____    ______ ____
ROOT
ATOM      1  C   UNL     1      -0.922  11.008  18.048  0.00  0.00    +0.000 C 
ATOM      2  C   UNL     1      -0.030  10.046  18.785  0.00  0.00    +0.000 A 
ATOM      3  C   UNL     1       0.911   9.310  18.035  0.00  0.00    +0.000 A 
ATOM      4  C   UNL     1       1.805   8.424  18.649  0.00  0.00    +0.000 A 
ATOM      5  C   UNL     1       1.803   8.337  20.040  0.00  0.00    +0.000 A 
ATOM      6  C   UNL     1       0.874   9.056  20.794  0.00  0.00    +0.000 A 
ATOM      7  C   UNL     1      -0.093   9.856  20.174  0.00  0.00    +0.000 A 
ENDROOT
BRANCH   4   8
ATOM      8  C   UNL     1       2.799   7.684  17.788  0.00  0.00    +0.000 C 
BRANCH   8   9
ATOM      9  C   UNL     1       2.943   6.186  18.091  0.00  0.00    +0.000 C 
BRANCH   9  10
ATOM     10  N   UNL     1       4.233   5.640  17.639  0.00  0.00    +0.000 N 
ATOM     11  C   UNL     1       5.154   6.576  17.005  0.00  0.00    +0.000 C 
ATOM     12  C   UNL     1       6.579   6.285  17.397  0.00  0.00    +0.000 C 
ATOM     13  C   UNL     1       6.876   4.838  17.135  0.00  0.00    +0.000 C 
ATOM     14  O   UNL     1       8.015   4.425  16.939  0.00  0.00    +0.000 OA
ATOM     15  N   UNL     1       5.809   3.977  17.208  0.00  0.00    +0.000 N 
ATOM     16  C   UNL     1       4.505   4.285  17.516  0.00  0.00    +0.000 C 
ATOM     17  S   UNL     1       3.426   3.022  17.702  0.00  0.00    +0.000 S 
ATOM     18  H   UNL     1       6.035   2.996  17.110  0.00  0.00    +0.000 HD
ENDBRANCH   9  10
ENDBRANCH   8   9
ENDBRANCH   4   8
BRANCH   7  19
ATOM     19  O   UNL     1      -1.090  10.488  20.884  0.00  0.00    +0.000 OA
BRANCH  19  20
ATOM     20  C   UNL     1      -0.644  11.355  21.949  0.00  0.00    +0.000 C 
ATOM     21  C   UNL     1      -1.113  12.784  21.688  0.00  0.00    +0.000 C 
ATOM     22  C   UNL     1      -1.192  10.840  23.276  0.00  0.00    +0.000 C 
ENDBRANCH  19  20
ENDBRANCH   7  19
TORSDOF 5
ENDMDL
