MODEL 1
REMARK VINA RESULT:      -7.8      0.000      0.000
REMARK  Name = 
REMARK  12 active torsions:
REMARK  status: ('A' for Active; 'I' for Inactive)
REMARK    1  A    between atoms: C_1  and  C_2
REMARK    2  A    between atoms: C_2  and  C_3
REMARK    3  A    between atoms: C_3  and  C_4
REMARK    4  A    between atoms: C_4  and  N_5
REMARK    5  A    between atoms: N_5  and  C_6
REMARK    6  A    between atoms: N_5  and  C_8
REMARK    7  A    between atoms: C_6  and  C_7
REMARK    8  A    between atoms: C_8  and  C_9
REMARK    9  A    between atoms: C_9  and  N_10
REMARK   10  A    between atoms: C_11  and  C_13
REMARK   11  A    between atoms: N_18  and  C_19
REMARK   12  A    between atoms: N_27  and  C_28
REMARK                            x       y       z     vdW  Elec       q    Type
REMARK                         _______ _______ _______ _____ _____    ______ ____
ROOT
ATOM      1  C   UNL     1       5.659   4.682  16.552  0.00  0.00    +0.000 A 
ATOM      2  C   UNL     1       5.341   3.554  17.280  0.00  0.00    +0.000 A 
ATOM      3  C   UNL     1       4.403   3.922  18.270  0.00  0.00    +0.000 A 
ATOM      4  C   UNL     1       3.809   3.068  19.286  0.00  0.00    +0.000 A 
ATOM      5  O   UNL     1       4.105   1.877  19.354  0.00  0.00    +0.000 OA
ATOM      6  N   UNL     1       2.904   3.689  20.158  0.00  0.00    +0.000 N 
ATOM      7  C   UNL     1       2.307   2.864  21.195  0.00  0.00    +0.000 C 
ATOM      8  C   UNL     1       2.553   5.084  20.053  0.00  0.00    +0.000 A 
ATOM      9  C   UNL     1       1.610   5.639  20.949  0.00  0.00    +0.000 A 
ATOM     10  C   UNL     1       1.241   6.973  20.878  0.00  0.00    +0.000 A 
ATOM     11  C   UNL     1       1.809   7.787  19.910  0.00  0.00    +0.000 A 
ATOM     12  C   UNL     1       2.746   7.260  19.013  0.00  0.00    +0.000 A 
ATOM     13  C   UNL     1       3.141   5.916  19.054  0.00  0.00    +0.000 A 
ATOM     14  C   UNL     1       4.116   5.275  18.142  0.00  0.00    +0.000 A 
ATOM     15  N   UNL     1       4.906   5.736  17.092  0.00  0.00    +0.000 N 
ATOM     16  C   UNL     1       5.009   7.061  16.518  0.00  0.00    +0.000 C 
ENDROOT
BRANCH   1  18
ATOM     17  N   UNL     1       6.299   4.152  14.299  0.00  0.00    +0.000 N 
ATOM     18  C   UNL     1       6.623   4.813  15.470  0.00  0.00    +0.000 C 
ATOM     19  O   UNL     1       7.652   5.478  15.559  0.00  0.00    +0.000 OA
ATOM     20  H   UNL     1       5.344   3.846  14.157  0.00  0.00    +0.000 HD
BRANCH  17  21
ATOM     21  C   UNL     1       7.161   4.294  13.143  0.00  0.00    +0.000 C 
BRANCH  21  22
ATOM     22  C   UNL     1       6.670   3.562  11.876  0.00  0.00    +0.000 C 
BRANCH  22  23
ATOM     23  N   UNL     1       5.332   2.931  11.983  0.00  0.00    +0.000 NA
BRANCH  23  24
ATOM     24  C   UNL     1       5.307   1.614  11.307  0.00  0.00    +0.000 C 
ATOM     25  C   UNL     1       6.649   0.938  11.020  0.00  0.00    +0.000 C 
ENDBRANCH  23  24
BRANCH  23  26
ATOM     26  C   UNL     1       4.276   3.845  11.510  0.00  0.00    +0.000 C 
BRANCH  26  27
ATOM     27  C   UNL     1       3.288   3.276  10.486  0.00  0.00    +0.000 C 
BRANCH  27  29
ATOM     28  C   UNL     1       2.081   4.984   9.128  0.00  0.00    +0.000 C 
ATOM     29  C   UNL     1       3.266   4.031   9.157  0.00  0.00    +0.000 C 
ENDBRANCH  27  29
ENDBRANCH  26  27
ENDBRANCH  23  26
ENDBRANCH  22  23
ENDBRANCH  21  22
ENDBRANCH  17  21
ENDBRANCH   1  18
TORSDOF 8
ENDMDL
MODEL 2
REMARK VINA RESULT:      -7.4      3.216      5.990
REMARK  Name = 
REMARK  12 active torsions:
REMARK  status: ('A' for Active; 'I' for Inactive)
REMARK    1  A    between atoms: C_1  and  C_2
REMARK    2  A    between atoms: C_2  and  C_3
REMARK    3  A    between atoms: C_3  and  C_4
REMARK    4  A    between atoms: C_4  and  N_5
REMARK    5  A    between atoms: N_5  and  C_6
REMARK    6  A    between atoms: N_5  and  C_8
REMARK    7  A    between atoms: C_6  and  C_7
REMARK    8  A    between atoms: C_8  and  C_9
REMARK    9  A    between atoms: C_9  and  N_10
REMARK   10  A    between atoms: C_11  and  C_13
REMARK   11  A    between atoms: N_18  and  C_19
REMARK   12  A    between atoms: N_27  and  C_28
REMARK                            x       y       z     vdW  Elec       q    Type
REMARK                         _______ _______ _______ _____ _____    ______ ____
ROOT
ATOM      1  C   UNL     1       2.495   6.930  18.694  0.00  0.00    +0.000 A 
ATOM      2  C   UNL     1       2.555   8.135  18.024  0.00  0.00    +0.000 A 
ATOM      3  C   UNL     1       1.873   9.100  18.796  0.00  0.00    +0.000 A 
ATOM      4  C   UNL     1       1.654  10.500  18.470  0.00  0.00    +0.000 A 
ATOM      5  O   UNL     1       2.083  10.972  17.420  0.00  0.00    +0.000 OA
ATOM      6  N   UNL     1       0.935  11.245  19.415  0.00  0.00    +0.000 N 
ATOM      7  C   UNL     1       0.685  12.644  19.109  0.00  0.00    +0.000 C 
ATOM      8  C   UNL     1       0.454  10.681  20.652  0.00  0.00    +0.000 A 
ATOM      9  C   UNL     1      -0.241  11.498  21.573  0.00  0.00    +0.000 A 
ATOM     10  C   UNL     1      -0.713  10.995  22.775  0.00  0.00    +0.000 A 
ATOM     11  C   UNL     1      -0.505   9.660  23.084  0.00  0.00    +0.000 A 
ATOM     12  C   UNL     1       0.179   8.830  22.187  0.00  0.00    +0.000 A 
ATOM     13  C   UNL     1       0.672   9.305  20.964  0.00  0.00    +0.000 A 
ATOM     14  C   UNL     1       1.411   8.503  19.963  0.00  0.00    +0.000 A 
ATOM     15  N   UNL     1       1.787   7.165  19.882  0.00  0.00    +0.000 N 
ATOM     16  C   UNL     1       1.575   6.081  20.819  0.00  0.00    +0.000 C 
ENDROOT
BRANCH   1  18
ATOM     17  N   UNL     1       4.330   5.388  18.554  0.00  0.00    +0.000 N 
ATOM     18  C   UNL     1       3.001   5.635  18.264  0.00  0.00    +0.000 C 
ATOM     19  O   UNL     1       2.307   4.792  17.700  0.00  0.00    +0.000 OA
ATOM     20  H   UNL     1       4.798   5.964  19.242  0.00  0.00    +0.000 HD
BRANCH  17  21
ATOM     21  C   UNL     1       4.896   4.091  18.235  0.00  0.00    +0.000 C 
BRANCH  21  22
ATOM     22  C   UNL     1       5.278   3.899  16.752  0.00  0.00    +0.000 C 
BRANCH  22  23
ATOM     23  N   UNL     1       6.706   4.131  16.426  0.00  0.00    +0.000 NA
BRANCH  23  24
ATOM     24  C   UNL     1       7.332   5.060  17.394  0.00  0.00    +0.000 C 
ATOM     25  C   UNL     1       7.334   6.550  17.047  0.00  0.00    +0.000 C 
ENDBRANCH  23  24
BRANCH  23  26
ATOM     26  C   UNL     1       6.866   4.561  15.024  0.00  0.00    +0.000 C 
BRANCH  26  27
ATOM     27  C   UNL     1       5.738   4.181  14.060  0.00  0.00    +0.000 C 
BRANCH  27  29
ATOM     28  C   UNL     1       7.329   4.509  12.168  0.00  0.00    +0.000 C 
ATOM     29  C   UNL     1       6.225   3.622  12.723  0.00  0.00    +0.000 C 
ENDBRANCH  27  29
ENDBRANCH  26  27
ENDBRANCH  23  26
ENDBRANCH  22  23
ENDBRANCH  21  22
ENDBRANCH  17  21
ENDBRANCH   1  18
TORSDOF 8
ENDMDL
MODEL 3
REMARK VINA RESULT:      -7.3      1.565      2.697
REMARK  Name = 
REMARK  12 active torsions:
REMARK  status: ('A' for Active; 'I' for Inactive)
REMARK    1  A    between atoms: C_1  and  C_2
REMARK    2  A    between atoms: C_2  and  C_3
REMARK    3  A    between atoms: C_3  and  C_4
REMARK    4  A    between atoms: C_4  and  N_5
REMARK    5  A    between atoms: N_5  and  C_6
REMARK    6  A    between atoms: N_5  and  C_8
REMARK    7  A    between atoms: C_6  and  C_7
REMARK    8  A    between atoms: C_8  and  C_9
REMARK    9  A    between atoms: C_9  and  N_10
REMARK   10  A    between atoms: C_11  and  C_13
REMARK   11  A    between atoms: N_18  and  C_19
REMARK   12  A    between atoms: N_27  and  C_28
REMARK                            x       y       z     vdW  Elec       q    Type
REMARK                         _______ _______ _______ _____ _____    ______ ____
ROOT
ATOM      1  C   UNL     1       5.589   5.281  16.221  0.00  0.00    +0.000 A 
ATOM      2  C   UNL     1       5.018   6.486  16.574  0.00  0.00    +0.000 A 
ATOM      3  C   UNL     1       4.068   6.240  17.588  0.00  0.00    +0.000 A 
ATOM      4  C   UNL     1       3.201   7.207  18.243  0.00  0.00    +0.000 A 
ATOM      5  O   UNL     1       3.244   8.395  17.933  0.00  0.00    +0.000 OA
ATOM      6  N   UNL     1       2.337   6.695  19.221  0.00  0.00    +0.000 N 
ATOM      7  C   UNL     1       1.447   7.635  19.881  0.00  0.00    +0.000 C 
ATOM      8  C   UNL     1       2.313   5.300  19.586  0.00  0.00    +0.000 A 
ATOM      9  C   UNL     1       1.435   4.857  20.603  0.00  0.00    +0.000 A 
ATOM     10  C   UNL     1       1.385   3.525  20.987  0.00  0.00    +0.000 A 
ATOM     11  C   UNL     1       2.211   2.604  20.361  0.00  0.00    +0.000 A 
ATOM     12  C   UNL     1       3.086   3.019  19.351  0.00  0.00    +0.000 A 
ATOM     13  C   UNL     1       3.165   4.356  18.938  0.00  0.00    +0.000 A 
ATOM     14  C   UNL     1       4.066   4.883  17.887  0.00  0.00    +0.000 A 
ATOM     15  N   UNL     1       4.995   4.301  17.029  0.00  0.00    +0.000 N 
ATOM     16  C   UNL     1       5.408   2.919  16.905  0.00  0.00    +0.000 C 
ENDROOT
BRANCH   1  18
ATOM     17  N   UNL     1       6.092   4.392  14.047  0.00  0.00    +0.000 N 
ATOM     18  C   UNL     1       6.574   5.022  15.180  0.00  0.00    +0.000 C 
ATOM     19  O   UNL     1       7.753   5.353  15.268  0.00  0.00    +0.000 OA
ATOM     20  H   UNL     1       5.093   4.376  13.882  0.00  0.00    +0.000 HD
BRANCH  17  21
ATOM     21  C   UNL     1       6.984   4.169  12.926  0.00  0.00    +0.000 C 
BRANCH  21  22
ATOM     22  C   UNL     1       6.294   3.662  11.642  0.00  0.00    +0.000 C 
BRANCH  22  23
ATOM     23  N   UNL     1       5.653   2.328  11.745  0.00  0.00    +0.000 NA
BRANCH  23  24
ATOM     24  C   UNL     1       6.477   1.287  11.092  0.00  0.00    +0.000 C 
ATOM     25  C   UNL     1       6.053  -0.172  11.274  0.00  0.00    +0.000 C 
ENDBRANCH  23  24
BRANCH  23  26
ATOM     26  C   UNL     1       4.266   2.367  11.246  0.00  0.00    +0.000 C 
BRANCH  26  27
ATOM     27  C   UNL     1       3.762   3.720  10.732  0.00  0.00    +0.000 C 
BRANCH  27  29
ATOM     28  C   UNL     1       2.492   4.963   8.983  0.00  0.00    +0.000 C 
ATOM     29  C   UNL     1       2.682   3.612   9.656  0.00  0.00    +0.000 C 
ENDBRANCH  27  29
ENDBRANCH  26  27
ENDBRANCH  23  26
ENDBRANCH  22  23
ENDBRANCH  21  22
ENDBRANCH  17  21
ENDBRANCH   1  18
TORSDOF 8
ENDMDL
MODEL 4
REMARK VINA RESULT:      -7.2      5.118      9.018
REMARK  Name = 
REMARK  12 active torsions:
REMARK  status: ('A' for Active; 'I' for Inactive)
REMARK    1  A    between atoms: C_1  and  C_2
REMARK    2  A    between atoms: C_2  and  C_3
REMARK    3  A    between atoms: C_3  and  C_4
REMARK    4  A    between atoms: C_4  and  N_5
REMARK    5  A    between atoms: N_5  and  C_6
REMARK    6  A    between atoms: N_5  and  C_8
REMARK    7  A    between atoms: C_6  and  C_7
REMARK    8  A    between atoms: C_8  and  C_9
REMARK    9  A    between atoms: C_9  and  N_10
REMARK   10  A    between atoms: C_11  and  C_13
REMARK   11  A    between atoms: N_18  and  C_19
REMARK   12  A    between atoms: N_27  and  C_28
REMARK                            x       y       z     vdW  Elec       q    Type
REMARK                         _______ _______ _______ _____ _____    ______ ____
ROOT
ATOM      1  C   UNL     1       1.650   8.962  18.770  0.00  0.00    +0.000 A 
ATOM      2  C   UNL     1       2.560   8.531  17.826  0.00  0.00    +0.000 A 
ATOM      3  C   UNL     1       2.974   7.229  18.181  0.00  0.00    +0.000 A 
ATOM      4  C   UNL     1       3.946   6.392  17.496  0.00  0.00    +0.000 A 
ATOM      5  O   UNL     1       4.514   6.795  16.483  0.00  0.00    +0.000 OA
ATOM      6  N   UNL     1       4.182   5.133  18.064  0.00  0.00    +0.000 N 
ATOM      7  C   UNL     1       5.161   4.281  17.410  0.00  0.00    +0.000 C 
ATOM      8  C   UNL     1       3.493   4.668  19.242  0.00  0.00    +0.000 A 
ATOM      9  C   UNL     1       3.759   3.373  19.745  0.00  0.00    +0.000 A 
ATOM     10  C   UNL     1       3.114   2.887  20.872  0.00  0.00    +0.000 A 
ATOM     11  C   UNL     1       2.188   3.686  21.525  0.00  0.00    +0.000 A 
ATOM     12  C   UNL     1       1.910   4.972  21.047  0.00  0.00    +0.000 A 
ATOM     13  C   UNL     1       2.540   5.495  19.911  0.00  0.00    +0.000 A 
ATOM     14  C   UNL     1       2.301   6.837  19.331  0.00  0.00    +0.000 A 
ATOM     15  N   UNL     1       1.501   7.917  19.693  0.00  0.00    +0.000 N 
ATOM     16  C   UNL     1       0.584   8.064  20.804  0.00  0.00    +0.000 C 
ENDROOT
BRANCH   1  18
ATOM     17  N   UNL     1      -0.208  10.368  18.189  0.00  0.00    +0.000 N 
ATOM     18  C   UNL     1       0.995  10.259  18.861  0.00  0.00    +0.000 C 
ATOM     19  O   UNL     1       1.450  11.202  19.505  0.00  0.00    +0.000 OA
ATOM     20  H   UNL     1      -0.689   9.524  17.902  0.00  0.00    +0.000 HD
BRANCH  17  21
ATOM     21  C   UNL     1      -0.970  11.598  18.294  0.00  0.00    +0.000 C 
BRANCH  21  22
ATOM     22  C   UNL     1      -2.473  11.404  18.589  0.00  0.00    +0.000 C 
BRANCH  22  23
ATOM     23  N   UNL     1      -3.292  10.933  17.445  0.00  0.00    +0.000 NA
BRANCH  23  24
ATOM     24  C   UNL     1      -2.521  10.975  16.182  0.00  0.00    +0.000 C 
ATOM     25  C   UNL     1      -3.105  10.246  14.970  0.00  0.00    +0.000 C 
ENDBRANCH  23  24
BRANCH  23  26
ATOM     26  C   UNL     1      -4.569  11.667  17.370  0.00  0.00    +0.000 C 
BRANCH  26  27
ATOM     27  C   UNL     1      -5.432  11.667  18.635  0.00  0.00    +0.000 C 
BRANCH  27  29
ATOM     28  C   UNL     1      -7.147  10.537  20.050  0.00  0.00    +0.000 C 
ATOM     29  C   UNL     1      -6.411  10.496  18.719  0.00  0.00    +0.000 C 
ENDBRANCH  27  29
ENDBRANCH  26  27
ENDBRANCH  23  26
ENDBRANCH  22  23
ENDBRANCH  21  22
ENDBRANCH  17  21
ENDBRANCH   1  18
TORSDOF 8
ENDMDL
MODEL 5
REMARK VINA RESULT:      -7.2      4.932      8.620
REMARK  Name = 
REMARK  12 active torsions:
REMARK  status: ('A' for Active; 'I' for Inactive)
REMARK    1  A    between atoms: C_1  and  C_2
REMARK    2  A    between atoms: C_2  and  C_3
REMARK    3  A    between atoms: C_3  and  C_4
REMARK    4  A    between atoms: C_4  and  N_5
REMARK    5  A    between atoms: N_5  and  C_6
REMARK    6  A    between atoms: N_5  and  C_8
REMARK    7  A    between atoms: C_6  and  C_7
REMARK    8  A    between atoms: C_8  and  C_9
REMARK    9  A    between atoms: C_9  and  N_10
REMARK   10  A    between atoms: C_11  and  C_13
REMARK   11  A    between atoms: N_18  and  C_19
REMARK   12  A    between atoms: N_27  and  C_28
REMARK                            x       y       z     vdW  Elec       q    Type
REMARK                         _______ _______ _______ _____ _____    ______ ____
ROOT
ATOM      1  C   UNL     1       1.390   8.521  19.937  0.00  0.00    +0.000 A 
ATOM      2  C   UNL     1       1.463   7.345  20.655  0.00  0.00    +0.000 A 
ATOM      3  C   UNL     1       2.304   6.454  19.954  0.00  0.00    +0.000 A 
ATOM      4  C   UNL     1       2.646   5.089  20.317  0.00  0.00    +0.000 A 
ATOM      5  O   UNL     1       2.192   4.581  21.341  0.00  0.00    +0.000 OA
ATOM      6  N   UNL     1       3.504   4.415  19.437  0.00  0.00    +0.000 N 
ATOM      7  C   UNL     1       3.851   3.042  19.766  0.00  0.00    +0.000 C 
ATOM      8  C   UNL     1       4.044   5.031  18.250  0.00  0.00    +0.000 A 
ATOM      9  C   UNL     1       4.927   4.302  17.421  0.00  0.00    +0.000 A 
ATOM     10  C   UNL     1       5.471   4.860  16.275  0.00  0.00    +0.000 A 
ATOM     11  C   UNL     1       5.143   6.161  15.928  0.00  0.00    +0.000 A 
ATOM     12  C   UNL     1       4.270   6.903  16.732  0.00  0.00    +0.000 A 
ATOM     13  C   UNL     1       3.702   6.372  17.899  0.00  0.00    +0.000 A 
ATOM     14  C   UNL     1       2.778   7.085  18.810  0.00  0.00    +0.000 A 
ATOM     15  N   UNL     1       2.197   8.350  18.803  0.00  0.00    +0.000 N 
ATOM     16  C   UNL     1       2.342   9.434  17.853  0.00  0.00    +0.000 C 
ENDROOT
BRANCH   1  18
ATOM     17  N   UNL     1      -0.493   9.913  19.406  0.00  0.00    +0.000 N 
ATOM     18  C   UNL     1       0.598   9.707  20.230  0.00  0.00    +0.000 C 
ATOM     19  O   UNL     1       0.849  10.475  21.155  0.00  0.00    +0.000 OA
ATOM     20  H   UNL     1      -0.834   9.145  18.841  0.00  0.00    +0.000 HD
BRANCH  17  21
ATOM     21  C   UNL     1      -1.385  11.024  19.676  0.00  0.00    +0.000 C 
BRANCH  21  22
ATOM     22  C   UNL     1      -1.754  11.871  18.440  0.00  0.00    +0.000 C 
BRANCH  22  23
ATOM     23  N   UNL     1      -2.991  11.460  17.731  0.00  0.00    +0.000 NA
BRANCH  23  24
ATOM     24  C   UNL     1      -4.196  11.789  18.525  0.00  0.00    +0.000 C 
ATOM     25  C   UNL     1      -5.428  12.292  17.769  0.00  0.00    +0.000 C 
ENDBRANCH  23  24
BRANCH  23  26
ATOM     26  C   UNL     1      -2.928  10.041  17.335  0.00  0.00    +0.000 C 
BRANCH  26  27
ATOM     27  C   UNL     1      -2.694   9.757  15.848  0.00  0.00    +0.000 C 
BRANCH  27  29
ATOM     28  C   UNL     1      -3.478   9.939  13.488  0.00  0.00    +0.000 C 
ATOM     29  C   UNL     1      -3.785  10.309  14.931  0.00  0.00    +0.000 C 
ENDBRANCH  27  29
ENDBRANCH  26  27
ENDBRANCH  23  26
ENDBRANCH  22  23
ENDBRANCH  21  22
ENDBRANCH  17  21
ENDBRANCH   1  18
TORSDOF 8
ENDMDL
MODEL 6
REMARK VINA RESULT:      -7.1      4.920      8.972
REMARK  Name = 
REMARK  12 active torsions:
REMARK  status: ('A' for Active; 'I' for Inactive)
REMARK    1  A    between atoms: C_1  and  C_2
REMARK    2  A    between atoms: C_2  and  C_3
REMARK    3  A    between atoms: C_3  and  C_4
REMARK    4  A    between atoms: C_4  and  N_5
REMARK    5  A    between atoms: N_5  and  C_6
REMARK    6  A    between atoms: N_5  and  C_8
REMARK    7  A    between atoms: C_6  and  C_7
REMARK    8  A    between atoms: C_8  and  C_9
REMARK    9  A    between atoms: C_9  and  N_10
REMARK   10  A    between atoms: C_11  and  C_13
REMARK   11  A    between atoms: N_18  and  C_19
REMARK   12  A    between atoms: N_27  and  C_28
REMARK                            x       y       z     vdW  Elec       q    Type
REMARK                         _______ _______ _______ _____ _____    ______ ____
ROOT
ATOM      1  C   UNL     1       1.472   8.371  19.913  0.00  0.00    +0.000 A 
ATOM      2  C   UNL     1       1.513   7.202  20.645  0.00  0.00    +0.000 A 
ATOM      3  C   UNL     1       2.336   6.283  19.957  0.00  0.00    +0.000 A 
ATOM      4  C   UNL     1       2.644   4.914  20.338  0.00  0.00    +0.000 A 
ATOM      5  O   UNL     1       2.173   4.429  21.364  0.00  0.00    +0.000 OA
ATOM      6  N   UNL     1       3.489   4.210  19.470  0.00  0.00    +0.000 N 
ATOM      7  C   UNL     1       3.802   2.833  19.816  0.00  0.00    +0.000 C 
ATOM      8  C   UNL     1       4.050   4.800  18.279  0.00  0.00    +0.000 A 
ATOM      9  C   UNL     1       4.919   4.040  17.463  0.00  0.00    +0.000 A 
ATOM     10  C   UNL     1       5.483   4.572  16.313  0.00  0.00    +0.000 A 
ATOM     11  C   UNL     1       5.187   5.877  15.950  0.00  0.00    +0.000 A 
ATOM     12  C   UNL     1       4.328   6.648  16.741  0.00  0.00    +0.000 A 
ATOM     13  C   UNL     1       3.742   6.145  17.911  0.00  0.00    +0.000 A 
ATOM     14  C   UNL     1       2.831   6.890  18.809  0.00  0.00    +0.000 A 
ATOM     15  N   UNL     1       2.281   8.168  18.784  0.00  0.00    +0.000 N 
ATOM     16  C   UNL     1       2.456   9.237  17.824  0.00  0.00    +0.000 C 
ENDROOT
BRANCH   1  18
ATOM     17  N   UNL     1      -0.212   9.935  19.219  0.00  0.00    +0.000 N 
ATOM     18  C   UNL     1       0.708   9.579  20.188  0.00  0.00    +0.000 C 
ATOM     19  O   UNL     1       0.837  10.241  21.214  0.00  0.00    +0.000 OA
ATOM     20  H   UNL     1      -0.492   9.247  18.531  0.00  0.00    +0.000 HD
BRANCH  17  21
ATOM     21  C   UNL     1      -1.076  11.077  19.448  0.00  0.00    +0.000 C 
BRANCH  21  22
ATOM     22  C   UNL     1      -1.858  11.555  18.206  0.00  0.00    +0.000 C 
BRANCH  22  23
ATOM     23  N   UNL     1      -3.004  10.701  17.807  0.00  0.00    +0.000 NA
BRANCH  23  24
ATOM     24  C   UNL     1      -2.697   9.935  16.578  0.00  0.00    +0.000 C 
ATOM     25  C   UNL     1      -3.024  10.591  15.234  0.00  0.00    +0.000 C 
ENDBRANCH  23  24
BRANCH  23  26
ATOM     26  C   UNL     1      -4.244  11.494  17.701  0.00  0.00    +0.000 C 
BRANCH  26  27
ATOM     27  C   UNL     1      -5.522  10.836  18.230  0.00  0.00    +0.000 C 
BRANCH  27  29
ATOM     28  C   UNL     1      -5.162  12.492  20.059  0.00  0.00    +0.000 C 
ATOM     29  C   UNL     1      -6.187  11.600  19.375  0.00  0.00    +0.000 C 
ENDBRANCH  27  29
ENDBRANCH  26  27
ENDBRANCH  23  26
ENDBRANCH  22  23
ENDBRANCH  21  22
ENDBRANCH  17  21
ENDBRANCH   1  18
TORSDOF 8
ENDMDL
MODEL 7
REMARK VINA RESULT:      -7.0      4.926      9.158
REMARK  Name = 
REMARK  12 active torsions:
REMARK  status: ('A' for Active; 'I' for Inactive)
REMARK    1  A    between atoms: C_1  and  C_2
REMARK    2  A    between atoms: C_2  and  C_3
REMARK    3  A    between atoms: C_3  and  C_4
REMARK    4  A    between atoms: C_4  and  N_5
REMARK    5  A    between atoms: N_5  and  C_6
REMARK    6  A    between atoms: N_5  and  C_8
REMARK    7  A    between atoms: C_6  and  C_7
REMARK    8  A    between atoms: C_8  and  C_9
REMARK    9  A    between atoms: C_9  and  N_10
REMARK   10  A    between atoms: C_11  and  C_13
REMARK   11  A    between atoms: N_18  and  C_19
REMARK   12  A    between atoms: N_27  and  C_28
REMARK                            x       y       z     vdW  Elec       q    Type
REMARK                         _______ _______ _______ _____ _____    ______ ____
ROOT
ATOM      1  C   UNL     1       1.763   8.796  18.902  0.00  0.00    +0.000 A 
ATOM      2  C   UNL     1       2.644   8.409  17.914  0.00  0.00    +0.000 A 
ATOM      3  C   UNL     1       3.078   7.097  18.204  0.00  0.00    +0.000 A 
ATOM      4  C   UNL     1       4.032   6.295  17.456  0.00  0.00    +0.000 A 
ATOM      5  O   UNL     1       4.564   6.740  16.441  0.00  0.00    +0.000 OA
ATOM      6  N   UNL     1       4.294   5.016  17.966  0.00  0.00    +0.000 N 
ATOM      7  C   UNL     1       5.257   4.197  17.249  0.00  0.00    +0.000 C 
ATOM      8  C   UNL     1       3.648   4.501  19.148  0.00  0.00    +0.000 A 
ATOM      9  C   UNL     1       3.938   3.190  19.592  0.00  0.00    +0.000 A 
ATOM     10  C   UNL     1       3.334   2.656  20.719  0.00  0.00    +0.000 A 
ATOM     11  C   UNL     1       2.425   3.423  21.433  0.00  0.00    +0.000 A 
ATOM     12  C   UNL     1       2.123   4.723  21.014  0.00  0.00    +0.000 A 
ATOM     13  C   UNL     1       2.712   5.295  19.879  0.00  0.00    +0.000 A 
ATOM     14  C   UNL     1       2.445   6.656  19.360  0.00  0.00    +0.000 A 
ATOM     15  N   UNL     1       1.651   7.715  19.789  0.00  0.00    +0.000 N 
ATOM     16  C   UNL     1       0.770   7.813  20.934  0.00  0.00    +0.000 C 
ENDROOT
BRANCH   1  18
ATOM     17  N   UNL     1      -0.027  10.276  18.293  0.00  0.00    +0.000 N 
ATOM     18  C   UNL     1       1.103  10.084  19.065  0.00  0.00    +0.000 C 
ATOM     19  O   UNL     1       1.492  10.948  19.847  0.00  0.00    +0.000 OA
ATOM     20  H   UNL     1      -0.477   9.473  17.872  0.00  0.00    +0.000 HD
BRANCH  17  21
ATOM     21  C   UNL     1      -0.794  11.497  18.451  0.00  0.00    +0.000 C 
BRANCH  21  22
ATOM     22  C   UNL     1      -1.997  11.384  19.412  0.00  0.00    +0.000 C 
BRANCH  22  23
ATOM     23  N   UNL     1      -3.112  12.327  19.153  0.00  0.00    +0.000 NA
BRANCH  23  24
ATOM     24  C   UNL     1      -3.384  13.171  20.338  0.00  0.00    +0.000 C 
ATOM     25  C   UNL     1      -4.633  12.853  21.164  0.00  0.00    +0.000 C 
ENDBRANCH  23  24
BRANCH  23  26
ATOM     26  C   UNL     1      -4.306  11.613  18.663  0.00  0.00    +0.000 C 
BRANCH  26  27
ATOM     27  C   UNL     1      -4.074  10.562  17.572  0.00  0.00    +0.000 C 
BRANCH  27  29
ATOM     28  C   UNL     1      -2.850  10.385  15.407  0.00  0.00    +0.000 C 
ATOM     29  C   UNL     1      -3.924  11.148  16.168  0.00  0.00    +0.000 C 
ENDBRANCH  27  29
ENDBRANCH  26  27
ENDBRANCH  23  26
ENDBRANCH  22  23
ENDBRANCH  21  22
ENDBRANCH  17  21
ENDBRANCH   1  18
TORSDOF 8
ENDMDL
MODEL 8
REMARK VINA RESULT:      -7.0      3.826      6.921
REMARK  Name = 
REMARK  12 active torsions:
REMARK  status: ('A' for Active; 'I' for Inactive)
REMARK    1  A    between atoms: C_1  and  C_2
REMARK    2  A    between atoms: C_2  and  C_3
REMARK    3  A    between atoms: C_3  and  C_4
REMARK    4  A    between atoms: C_4  and  N_5
REMARK    5  A    between atoms: N_5  and  C_6
REMARK    6  A    between atoms: N_5  and  C_8
REMARK    7  A    between atoms: C_6  and  C_7
REMARK    8  A    between atoms: C_8  and  C_9
REMARK    9  A    between atoms: C_9  and  N_10
REMARK   10  A    between atoms: C_11  and  C_13
REMARK   11  A    between atoms: N_18  and  C_19
REMARK   12  A    between atoms: N_27  and  C_28
REMARK                            x       y       z     vdW  Elec       q    Type
REMARK                         _______ _______ _______ _____ _____    ______ ____
ROOT
ATOM      1  C   UNL     1       1.927   7.185  19.764  0.00  0.00    +0.000 A 
ATOM      2  C   UNL     1       1.181   7.383  20.908  0.00  0.00    +0.000 A 
ATOM      3  C   UNL     1       0.807   8.743  20.957  0.00  0.00    +0.000 A 
ATOM      4  C   UNL     1       0.042   9.414  21.995  0.00  0.00    +0.000 A 
ATOM      5  O   UNL     1      -0.364   8.791  22.974  0.00  0.00    +0.000 OA
ATOM      6  N   UNL     1      -0.187  10.783  21.803  0.00  0.00    +0.000 N 
ATOM      7  C   UNL     1      -0.935  11.484  22.833  0.00  0.00    +0.000 C 
ATOM      8  C   UNL     1       0.280  11.496  20.639  0.00  0.00    +0.000 A 
ATOM      9  C   UNL     1      -0.012  12.872  20.496  0.00  0.00    +0.000 A 
ATOM     10  C   UNL     1       0.414  13.591  19.389  0.00  0.00    +0.000 A 
ATOM     11  C   UNL     1       1.145  12.951  18.401  0.00  0.00    +0.000 A 
ATOM     12  C   UNL     1       1.448  11.590  18.521  0.00  0.00    +0.000 A 
ATOM     13  C   UNL     1       1.032  10.831  19.624  0.00  0.00    +0.000 A 
ATOM     14  C   UNL     1       1.299   9.389  19.829  0.00  0.00    +0.000 A 
ATOM     15  N   UNL     1       1.999   8.423  19.110  0.00  0.00    +0.000 N 
ATOM     16  C   UNL     1       2.709   8.533  17.854  0.00  0.00    +0.000 C 
ENDROOT
BRANCH   1  18
ATOM     17  N   UNL     1       3.869   5.772  19.782  0.00  0.00    +0.000 N 
ATOM     18  C   UNL     1       2.581   5.963  19.317  0.00  0.00    +0.000 C 
ATOM     19  O   UNL     1       2.038   5.132  18.593  0.00  0.00    +0.000 OA
ATOM     20  H   UNL     1       4.190   6.314  20.575  0.00  0.00    +0.000 HD
BRANCH  17  21
ATOM     21  C   UNL     1       4.566   4.543  19.454  0.00  0.00    +0.000 C 
BRANCH  21  22
ATOM     22  C   UNL     1       5.737   4.710  18.462  0.00  0.00    +0.000 C 
BRANCH  22  23
ATOM     23  N   UNL     1       5.357   5.125  17.090  0.00  0.00    +0.000 NA
BRANCH  23  24
ATOM     24  C   UNL     1       5.286   3.961  16.179  0.00  0.00    +0.000 C 
ATOM     25  C   UNL     1       5.597   4.198  14.699  0.00  0.00    +0.000 C 
ENDBRANCH  23  24
BRANCH  23  26
ATOM     26  C   UNL     1       6.245   6.195  16.595  0.00  0.00    +0.000 C 
BRANCH  26  27
ATOM     27  C   UNL     1       6.461   7.389  17.530  0.00  0.00    +0.000 C 
BRANCH  27  29
ATOM     28  C   UNL     1       8.213   9.112  17.955  0.00  0.00    +0.000 C 
ATOM     29  C   UNL     1       7.923   7.620  17.915  0.00  0.00    +0.000 C 
ENDBRANCH  27  29
ENDBRANCH  26  27
ENDBRANCH  23  26
ENDBRANCH  22  23
ENDBRANCH  21  22
ENDBRANCH  17  21
ENDBRANCH   1  18
TORSDOF 8
ENDMDL
MODEL 9
REMARK VINA RESULT:      -6.9      4.478      8.889
REMARK  Name = 
REMARK  12 active torsions:
REMARK  status: ('A' for Active; 'I' for Inactive)
REMARK    1  A    between atoms: C_1  and  C_2
REMARK    2  A    between atoms: C_2  and  C_3
REMARK    3  A    between atoms: C_3  and  C_4
REMARK    4  A    between atoms: C_4  and  N_5
REMARK    5  A    between atoms: N_5  and  C_6
REMARK    6  A    between atoms: N_5  and  C_8
REMARK    7  A    between atoms: C_6  and  C_7
REMARK    8  A    between atoms: C_8  and  C_9
REMARK    9  A    between atoms: C_9  and  N_10
REMARK   10  A    between atoms: C_11  and  C_13
REMARK   11  A    between atoms: N_18  and  C_19
REMARK   12  A    between atoms: N_27  and  C_28
REMARK                            x       y       z     vdW  Elec       q    Type
REMARK                         _______ _______ _______ _____ _____    ______ ____
ROOT
ATOM      1  C   UNL     1       1.344   8.264  20.028  0.00  0.00    +0.000 A 
ATOM      2  C   UNL     1       1.460   7.094  20.749  0.00  0.00    +0.000 A 
ATOM      3  C   UNL     1       2.320   6.226  20.042  0.00  0.00    +0.000 A 
ATOM      4  C   UNL     1       2.707   4.873  20.406  0.00  0.00    +0.000 A 
ATOM      5  O   UNL     1       2.279   4.355  21.435  0.00  0.00    +0.000 OA
ATOM      6  N   UNL     1       3.576   4.223  19.519  0.00  0.00    +0.000 N 
ATOM      7  C   UNL     1       3.968   2.862  19.848  0.00  0.00    +0.000 C 
ATOM      8  C   UNL     1       4.085   4.851  18.324  0.00  0.00    +0.000 A 
ATOM      9  C   UNL     1       4.981   4.146  17.488  0.00  0.00    +0.000 A 
ATOM     10  C   UNL     1       5.497   4.717  16.335  0.00  0.00    +0.000 A 
ATOM     11  C   UNL     1       5.126   6.006  15.988  0.00  0.00    +0.000 A 
ATOM     12  C   UNL     1       4.239   6.723  16.799  0.00  0.00    +0.000 A 
ATOM     13  C   UNL     1       3.699   6.180  17.972  0.00  0.00    +0.000 A 
ATOM     14  C   UNL     1       2.763   6.868  18.891  0.00  0.00    +0.000 A 
ATOM     15  N   UNL     1       2.145   8.115  18.886  0.00  0.00    +0.000 N 
ATOM     16  C   UNL     1       2.246   9.199  17.932  0.00  0.00    +0.000 C 
ENDROOT
BRANCH   1  18
ATOM     17  N   UNL     1       1.132  10.653  20.146  0.00  0.00    +0.000 N 
ATOM     18  C   UNL     1       0.520   9.427  20.325  0.00  0.00    +0.000 C 
ATOM     19  O   UNL     1      -0.651   9.349  20.690  0.00  0.00    +0.000 OA
ATOM     20  H   UNL     1       1.982  10.703  19.597  0.00  0.00    +0.000 HD
BRANCH  17  21
ATOM     21  C   UNL     1       0.361  11.866  20.339  0.00  0.00    +0.000 C 
BRANCH  21  22
ATOM     22  C   UNL     1      -0.260  12.449  19.051  0.00  0.00    +0.000 C 
BRANCH  22  23
ATOM     23  N   UNL     1      -1.722  12.693  19.101  0.00  0.00    +0.000 NA
BRANCH  23  24
ATOM     24  C   UNL     1      -2.163  13.020  20.476  0.00  0.00    +0.000 C 
ATOM     25  C   UNL     1      -3.604  12.675  20.859  0.00  0.00    +0.000 C 
ENDBRANCH  23  24
BRANCH  23  26
ATOM     26  C   UNL     1      -2.467  11.567  18.506  0.00  0.00    +0.000 C 
BRANCH  26  27
ATOM     27  C   UNL     1      -1.665  10.608  17.621  0.00  0.00    +0.000 C 
BRANCH  27  29
ATOM     28  C   UNL     1      -2.998  10.904  15.534  0.00  0.00    +0.000 C 
ATOM     29  C   UNL     1      -2.502   9.896  16.559  0.00  0.00    +0.000 C 
ENDBRANCH  27  29
ENDBRANCH  26  27
ENDBRANCH  23  26
ENDBRANCH  22  23
ENDBRANCH  21  22
ENDBRANCH  17  21
ENDBRANCH   1  18
TORSDOF 8
ENDMDL
