MODEL 1
REMARK VINA RESULT:      -6.6      0.000      0.000
REMARK  Name = 
REMARK  5 active torsions:
REMARK  status: ('A' for Active; 'I' for Inactive)
REMARK    1  A    between atoms: C_1  and  C_2
REMARK    2  A    between atoms: C_2  and  O_3
REMARK    3  A    between atoms: O_3  and  C_4
REMARK    4  A    between atoms: N_9  and  C_10
REMARK    5  A    between atoms: C_10  and  C_11
REMARK                            x       y       z     vdW  Elec       q    Type
REMARK                         _______ _______ _______ _____ _____    ______ ____
ROOT
ATOM      1  C   UNL     1      -2.124  13.150  20.736  0.00  0.00    +0.000 C 
ATOM      2  O   UNL     1      -3.182  13.724  20.484  0.00  0.00    +0.000 OA
ATOM      3  N   UNL     1      -1.760  11.873  20.236  0.00  0.00    +0.000 N 
ATOM      4  C   UNL     1      -0.930  10.983  20.995  0.00  0.00    +0.000 A 
ATOM      5  C   UNL     1      -1.117  10.901  22.386  0.00  0.00    +0.000 A 
ATOM      6  C   UNL     1      -0.319  10.069  23.172  0.00  0.00    +0.000 A 
ATOM      7  C   UNL     1       0.655   9.284  22.572  0.00  0.00    +0.000 A 
ATOM      8  C   UNL     1       0.821   9.315  21.188  0.00  0.00    +0.000 A 
ATOM      9  C   UNL     1       0.019  10.146  20.395  0.00  0.00    +0.000 A 
ATOM     10  S   UNL     1       0.248  10.137  18.636  0.00  0.00    +0.000 S 
ATOM     11  C   UNL     1      -1.428  10.539  18.172  0.00  0.00    +0.000 A 
ATOM     12  C   UNL     1      -1.899  10.038  16.949  0.00  0.00    +0.000 A 
ATOM     13  C   UNL     1      -3.195  10.317  16.530  0.00  0.00    +0.000 A 
ATOM     14  C   UNL     1      -4.016  11.116  17.318  0.00  0.00    +0.000 A 
ATOM     15  C   UNL     1      -3.538  11.648  18.521  0.00  0.00    +0.000 A 
ATOM     16  C   UNL     1      -2.243  11.362  18.979  0.00  0.00    +0.000 A 
ENDROOT
BRANCH   1  17
ATOM     17  C   UNL     1      -0.945  13.846  21.486  0.00  0.00    +0.000 C 
BRANCH  17  23
ATOM     18  C   UNL     1       3.713  14.506  19.757  0.00  0.00    +0.000 C 
ATOM     19  O   UNL     1       4.597  15.000  20.448  0.00  0.00    +0.000 OA
ATOM     20  N   UNL     1       2.454  14.195  20.223  0.00  0.00    +0.000 N 
ATOM     21  C   UNL     1       2.079  14.557  21.584  0.00  0.00    +0.000 C 
ATOM     22  C   UNL     1       0.841  15.485  21.598  0.00  0.00    +0.000 C 
ATOM     23  N   UNL     1      -0.317  15.000  20.796  0.00  0.00    +0.000 NA
ATOM     24  C   UNL     1       0.159  14.693  19.428  0.00  0.00    +0.000 C 
ATOM     25  C   UNL     1       1.360  13.730  19.367  0.00  0.00    +0.000 C 
BRANCH  18  26
ATOM     26  O   UNL     1       3.837  14.278  18.423  0.00  0.00    +0.000 OA
BRANCH  26  28
ATOM     27  C   UNL     1       3.240  16.352  17.416  0.00  0.00    +0.000 C 
ATOM     28  C   UNL     1       4.370  15.369  17.667  0.00  0.00    +0.000 C 
ENDBRANCH  26  28
ENDBRANCH  18  26
ENDBRANCH  17  23
ENDBRANCH   1  17
TORSDOF 4
ENDMDL
MODEL 2
REMARK VINA RESULT:      -6.4      5.446      7.589
REMARK  Name = 
REMARK  5 active torsions:
REMARK  status: ('A' for Active; 'I' for Inactive)
REMARK    1  A    between atoms: C_1  and  C_2
REMARK    2  A    between atoms: C_2  and  O_3
REMARK    3  A    between atoms: O_3  and  C_4
REMARK    4  A    between atoms: N_9  and  C_10
REMARK    5  A    between atoms: C_10  and  C_11
REMARK                            x       y       z     vdW  Elec       q    Type
REMARK                         _______ _______ _______ _____ _____    ______ ____
ROOT
ATOM      1  C   UNL     1       2.815   7.425  18.180  0.00  0.00    +0.000 C 
ATOM      2  O   UNL     1       2.810   8.180  17.209  0.00  0.00    +0.000 OA
ATOM      3  N   UNL     1       3.423   6.144  18.202  0.00  0.00    +0.000 N 
ATOM      4  C   UNL     1       2.894   5.080  19.004  0.00  0.00    +0.000 A 
ATOM      5  C   UNL     1       1.500   4.932  19.102  0.00  0.00    +0.000 A 
ATOM      6  C   UNL     1       0.935   3.929  19.889  0.00  0.00    +0.000 A 
ATOM      7  C   UNL     1       1.759   3.038  20.564  0.00  0.00    +0.000 A 
ATOM      8  C   UNL     1       3.144   3.138  20.438  0.00  0.00    +0.000 A 
ATOM      9  C   UNL     1       3.715   4.143  19.645  0.00  0.00    +0.000 A 
ATOM     10  S   UNL     1       5.481   4.219  19.494  0.00  0.00    +0.000 S 
ATOM     11  C   UNL     1       5.553   4.921  17.855  0.00  0.00    +0.000 A 
ATOM     12  C   UNL     1       6.659   4.590  17.058  0.00  0.00    +0.000 A 
ATOM     13  C   UNL     1       6.775   5.105  15.771  0.00  0.00    +0.000 A 
ATOM     14  C   UNL     1       5.801   5.971  15.287  0.00  0.00    +0.000 A 
ATOM     15  C   UNL     1       4.715   6.333  16.092  0.00  0.00    +0.000 A 
ATOM     16  C   UNL     1       4.560   5.808  17.385  0.00  0.00    +0.000 A 
ENDROOT
BRANCH   1  17
ATOM     17  C   UNL     1       2.319   7.865  19.593  0.00  0.00    +0.000 C 
BRANCH  17  23
ATOM     18  C   UNL     1      -0.004  11.733  21.776  0.00  0.00    +0.000 C 
ATOM     19  O   UNL     1      -0.367  11.694  22.946  0.00  0.00    +0.000 OA
ATOM     20  N   UNL     1       0.741  10.746  21.167  0.00  0.00    +0.000 N 
ATOM     21  C   UNL     1       1.045   9.521  21.895  0.00  0.00    +0.000 C 
ATOM     22  C   UNL     1       0.504   8.277  21.151  0.00  0.00    +0.000 C 
ATOM     23  N   UNL     1       0.877   8.194  19.711  0.00  0.00    +0.000 NA
ATOM     24  C   UNL     1       0.498   9.468  19.058  0.00  0.00    +0.000 C 
ATOM     25  C   UNL     1       1.060  10.731  19.738  0.00  0.00    +0.000 C 
BRANCH  18  26
ATOM     26  O   UNL     1      -0.360  12.716  20.908  0.00  0.00    +0.000 OA
BRANCH  26  28
ATOM     27  C   UNL     1      -2.349  12.293  19.666  0.00  0.00    +0.000 C 
ATOM     28  C   UNL     1      -1.759  13.013  20.867  0.00  0.00    +0.000 C 
ENDBRANCH  26  28
ENDBRANCH  18  26
ENDBRANCH  17  23
ENDBRANCH   1  17
TORSDOF 4
ENDMDL
MODEL 3
REMARK VINA RESULT:      -6.2      1.421      1.943
REMARK  Name = 
REMARK  5 active torsions:
REMARK  status: ('A' for Active; 'I' for Inactive)
REMARK    1  A    between atoms: C_1  and  C_2
REMARK    2  A    between atoms: C_2  and  O_3
REMARK    3  A    between atoms: O_3  and  C_4
REMARK    4  A    between atoms: N_9  and  C_10
REMARK    5  A    between atoms: C_10  and  C_11
REMARK                            x       y       z     vdW  Elec       q    Type
REMARK                         _______ _______ _______ _____ _____    ______ ____
ROOT
ATOM      1  C   UNL     1      -1.354  13.012  20.565  0.00  0.00    +0.000 C 
ATOM      2  O   UNL     1      -2.347  13.725  20.432  0.00  0.00    +0.000 OA
ATOM      3  N   UNL     1      -1.228  11.698  20.046  0.00  0.00    +0.000 N 
ATOM      4  C   UNL     1      -0.440  10.704  20.716  0.00  0.00    +0.000 A 
ATOM      5  C   UNL     1      -0.469  10.647  22.120  0.00  0.00    +0.000 A 
ATOM      6  C   UNL     1       0.297   9.715  22.820  0.00  0.00    +0.000 A 
ATOM      7  C   UNL     1       1.078   8.804  22.120  0.00  0.00    +0.000 A 
ATOM      8  C   UNL     1       1.080   8.813  20.726  0.00  0.00    +0.000 A 
ATOM      9  C   UNL     1       0.308   9.746  20.021  0.00  0.00    +0.000 A 
ATOM     10  S   UNL     1       0.322   9.706  18.247  0.00  0.00    +0.000 S 
ATOM     11  C   UNL     1      -1.328  10.332  17.979  0.00  0.00    +0.000 A 
ATOM     12  C   UNL     1      -2.004   9.900  16.829  0.00  0.00    +0.000 A 
ATOM     13  C   UNL     1      -3.292  10.352  16.561  0.00  0.00    +0.000 A 
ATOM     14  C   UNL     1      -3.897  11.255  17.428  0.00  0.00    +0.000 A 
ATOM     15  C   UNL     1      -3.212  11.717  18.558  0.00  0.00    +0.000 A 
ATOM     16  C   UNL     1      -1.922  11.258  18.864  0.00  0.00    +0.000 A 
ENDROOT
BRANCH   1  17
ATOM     17  C   UNL     1      -0.011  13.542  21.159  0.00  0.00    +0.000 C 
BRANCH  17  23
ATOM     18  C   UNL     1       2.807  17.044  18.941  0.00  0.00    +0.000 C 
ATOM     19  O   UNL     1       2.566  17.447  17.808  0.00  0.00    +0.000 OA
ATOM     20  N   UNL     1       1.996  16.173  19.636  0.00  0.00    +0.000 N 
ATOM     21  C   UNL     1       0.829  15.595  18.982  0.00  0.00    +0.000 C 
ATOM     22  C   UNL     1       0.901  14.050  18.968  0.00  0.00    +0.000 C 
ATOM     23  N   UNL     1       1.185  13.422  20.289  0.00  0.00    +0.000 NA
ATOM     24  C   UNL     1       2.401  14.052  20.853  0.00  0.00    +0.000 C 
ATOM     25  C   UNL     1       2.350  15.590  20.933  0.00  0.00    +0.000 C 
BRANCH  18  26
ATOM     26  O   UNL     1       3.945  17.340  19.621  0.00  0.00    +0.000 OA
BRANCH  26  28
ATOM     27  C   UNL     1       6.316  17.517  19.755  0.00  0.00    +0.000 C 
ATOM     28  C   UNL     1       5.155  16.885  19.008  0.00  0.00    +0.000 C 
ENDBRANCH  26  28
ENDBRANCH  18  26
ENDBRANCH  17  23
ENDBRANCH   1  17
TORSDOF 4
ENDMDL
MODEL 4
REMARK VINA RESULT:      -6.1      1.526      1.760
REMARK  Name = 
REMARK  5 active torsions:
REMARK  status: ('A' for Active; 'I' for Inactive)
REMARK    1  A    between atoms: C_1  and  C_2
REMARK    2  A    between atoms: C_2  and  O_3
REMARK    3  A    between atoms: O_3  and  C_4
REMARK    4  A    between atoms: N_9  and  C_10
REMARK    5  A    between atoms: C_10  and  C_11
REMARK                            x       y       z     vdW  Elec       q    Type
REMARK                         _______ _______ _______ _____ _____    ______ ____
ROOT
ATOM      1  C   UNL     1      -1.905  13.083  20.588  0.00  0.00    +0.000 C 
ATOM      2  O   UNL     1      -2.973  13.675  20.442  0.00  0.00    +0.000 OA
ATOM      3  N   UNL     1      -1.615  11.799  20.059  0.00  0.00    +0.000 N 
ATOM      4  C   UNL     1      -0.729  10.896  20.733  0.00  0.00    +0.000 A 
ATOM      5  C   UNL     1      -0.778  10.818  22.136  0.00  0.00    +0.000 A 
ATOM      6  C   UNL     1       0.080   9.973  22.841  0.00  0.00    +0.000 A 
ATOM      7  C   UNL     1       0.975   9.170  22.149  0.00  0.00    +0.000 A 
ATOM      8  C   UNL     1       1.003   9.197  20.755  0.00  0.00    +0.000 A 
ATOM      9  C   UNL     1       0.140  10.041  20.044  0.00  0.00    +0.000 A 
ATOM     10  S   UNL     1       0.192  10.026  18.270  0.00  0.00    +0.000 S 
ATOM     11  C   UNL     1      -1.514  10.457  17.975  0.00  0.00    +0.000 A 
ATOM     12  C   UNL     1      -2.113   9.964  16.807  0.00  0.00    +0.000 A 
ATOM     13  C   UNL     1      -3.440  10.264  16.518  0.00  0.00    +0.000 A 
ATOM     14  C   UNL     1      -4.164  11.079  17.382  0.00  0.00    +0.000 A 
ATOM     15  C   UNL     1      -3.559  11.604  18.530  0.00  0.00    +0.000 A 
ATOM     16  C   UNL     1      -2.230  11.295  18.858  0.00  0.00    +0.000 A 
ENDROOT
BRANCH   1  17
ATOM     17  C   UNL     1      -0.645  13.759  21.215  0.00  0.00    +0.000 C 
BRANCH  17  23
ATOM     18  C   UNL     1       2.302  16.858  18.601  0.00  0.00    +0.000 C 
ATOM     19  O   UNL     1       3.362  17.279  19.053  0.00  0.00    +0.000 OA
ATOM     20  N   UNL     1       1.518  15.915  19.229  0.00  0.00    +0.000 N 
ATOM     21  C   UNL     1       1.884  15.443  20.559  0.00  0.00    +0.000 C 
ATOM     22  C   UNL     1       0.752  15.709  21.580  0.00  0.00    +0.000 C 
ATOM     23  N   UNL     1      -0.598  15.241  21.159  0.00  0.00    +0.000 NA
ATOM     24  C   UNL     1      -0.887  15.799  19.819  0.00  0.00    +0.000 C 
ATOM     25  C   UNL     1       0.192  15.512  18.756  0.00  0.00    +0.000 C 
BRANCH  18  26
ATOM     26  O   UNL     1       1.726  17.330  17.465  0.00  0.00    +0.000 OA
BRANCH  26  28
ATOM     27  C   UNL     1      -0.151  18.618  16.766  0.00  0.00    +0.000 C 
ATOM     28  C   UNL     1       1.133  18.627  17.576  0.00  0.00    +0.000 C 
ENDBRANCH  26  28
ENDBRANCH  18  26
ENDBRANCH  17  23
ENDBRANCH   1  17
TORSDOF 4
ENDMDL
MODEL 5
REMARK VINA RESULT:      -6.0      5.624      8.097
REMARK  Name = 
REMARK  5 active torsions:
REMARK  status: ('A' for Active; 'I' for Inactive)
REMARK    1  A    between atoms: C_1  and  C_2
REMARK    2  A    between atoms: C_2  and  O_3
REMARK    3  A    between atoms: O_3  and  C_4
REMARK    4  A    between atoms: N_9  and  C_10
REMARK    5  A    between atoms: C_10  and  C_11
REMARK                            x       y       z     vdW  Elec       q    Type
REMARK                         _______ _______ _______ _____ _____    ______ ____
ROOT
ATOM      1  C   UNL     1       2.494   6.976  18.137  0.00  0.00    +0.000 C 
ATOM      2  O   UNL     1       2.567   7.834  17.258  0.00  0.00    +0.000 OA
ATOM      3  N   UNL     1       3.222   5.759  18.138  0.00  0.00    +0.000 N 
ATOM      4  C   UNL     1       2.684   4.568  18.729  0.00  0.00    +0.000 A 
ATOM      5  C   UNL     1       1.316   4.289  18.570  0.00  0.00    +0.000 A 
ATOM      6  C   UNL     1       0.739   3.157  19.146  0.00  0.00    +0.000 A 
ATOM      7  C   UNL     1       1.532   2.271  19.862  0.00  0.00    +0.000 A 
ATOM      8  C   UNL     1       2.901   2.504  19.988  0.00  0.00    +0.000 A 
ATOM      9  C   UNL     1       3.484   3.639  19.407  0.00  0.00    +0.000 A 
ATOM     10  S   UNL     1       5.233   3.885  19.571  0.00  0.00    +0.000 S 
ATOM     11  C   UNL     1       5.496   4.773  18.046  0.00  0.00    +0.000 A 
ATOM     12  C   UNL     1       6.745   4.633  17.423  0.00  0.00    +0.000 A 
ATOM     13  C   UNL     1       7.014   5.300  16.232  0.00  0.00    +0.000 A 
ATOM     14  C   UNL     1       6.046   6.127  15.674  0.00  0.00    +0.000 A 
ATOM     15  C   UNL     1       4.811   6.299  16.312  0.00  0.00    +0.000 A 
ATOM     16  C   UNL     1       4.506   5.618  17.500  0.00  0.00    +0.000 A 
ENDROOT
BRANCH   1  17
ATOM     17  C   UNL     1       1.732   7.207  19.479  0.00  0.00    +0.000 C 
BRANCH  17  23
ATOM     18  C   UNL     1      -1.056  11.042  21.107  0.00  0.00    +0.000 C 
ATOM     19  O   UNL     1      -1.226  12.051  20.432  0.00  0.00    +0.000 OA
ATOM     20  N   UNL     1      -0.400   9.916  20.657  0.00  0.00    +0.000 N 
ATOM     21  C   UNL     1       0.233   9.927  19.345  0.00  0.00    +0.000 C 
ATOM     22  C   UNL     1       1.749   9.633  19.450  0.00  0.00    +0.000 C 
ATOM     23  N   UNL     1       2.102   8.423  20.244  0.00  0.00    +0.000 NA
ATOM     24  C   UNL     1       1.440   8.525  21.565  0.00  0.00    +0.000 C 
ATOM     25  C   UNL     1      -0.081   8.765  21.505  0.00  0.00    +0.000 C 
BRANCH  18  26
ATOM     26  O   UNL     1      -1.420  10.936  22.411  0.00  0.00    +0.000 OA
BRANCH  26  28
ATOM     27  C   UNL     1      -3.100  12.273  23.443  0.00  0.00    +0.000 C 
ATOM     28  C   UNL     1      -1.626  12.179  23.088  0.00  0.00    +0.000 C 
ENDBRANCH  26  28
ENDBRANCH  18  26
ENDBRANCH  17  23
ENDBRANCH   1  17
TORSDOF 4
ENDMDL
MODEL 6
REMARK VINA RESULT:      -6.0      2.541      4.230
REMARK  Name = 
REMARK  5 active torsions:
REMARK  status: ('A' for Active; 'I' for Inactive)
REMARK    1  A    between atoms: C_1  and  C_2
REMARK    2  A    between atoms: C_2  and  O_3
REMARK    3  A    between atoms: O_3  and  C_4
REMARK    4  A    between atoms: N_9  and  C_10
REMARK    5  A    between atoms: C_10  and  C_11
REMARK                            x       y       z     vdW  Elec       q    Type
REMARK                         _______ _______ _______ _____ _____    ______ ____
ROOT
ATOM      1  C   UNL     1      -0.745  13.139  22.186  0.00  0.00    +0.000 C 
ATOM      2  O   UNL     1      -0.425  13.164  23.373  0.00  0.00    +0.000 OA
ATOM      3  N   UNL     1      -1.982  12.651  21.694  0.00  0.00    +0.000 N 
ATOM      4  C   UNL     1      -2.082  12.034  20.403  0.00  0.00    +0.000 A 
ATOM      5  C   UNL     1      -1.046  11.185  19.975  0.00  0.00    +0.000 A 
ATOM      6  C   UNL     1      -1.083  10.580  18.719  0.00  0.00    +0.000 A 
ATOM      7  C   UNL     1      -2.174  10.791  17.887  0.00  0.00    +0.000 A 
ATOM      8  C   UNL     1      -3.234  11.589  18.315  0.00  0.00    +0.000 A 
ATOM      9  C   UNL     1      -3.202  12.195  19.578  0.00  0.00    +0.000 A 
ATOM     10  S   UNL     1      -4.582  13.183  20.092  0.00  0.00    +0.000 S 
ATOM     11  C   UNL     1      -4.446  12.894  21.848  0.00  0.00    +0.000 A 
ATOM     12  C   UNL     1      -5.628  12.922  22.602  0.00  0.00    +0.000 A 
ATOM     13  C   UNL     1      -5.590  12.705  23.975  0.00  0.00    +0.000 A 
ATOM     14  C   UNL     1      -4.369  12.485  24.602  0.00  0.00    +0.000 A 
ATOM     15  C   UNL     1      -3.182  12.493  23.859  0.00  0.00    +0.000 A 
ATOM     16  C   UNL     1      -3.196  12.684  22.469  0.00  0.00    +0.000 A 
ENDROOT
BRANCH   1  17
ATOM     17  C   UNL     1       0.100  13.831  21.071  0.00  0.00    +0.000 C 
BRANCH  17  23
ATOM     18  C   UNL     1       3.773  15.903  18.360  0.00  0.00    +0.000 C 
ATOM     19  O   UNL     1       4.340  15.291  17.462  0.00  0.00    +0.000 OA
ATOM     20  N   UNL     1       2.682  15.421  19.052  0.00  0.00    +0.000 N 
ATOM     21  C   UNL     1       2.211  14.066  18.800  0.00  0.00    +0.000 C 
ATOM     22  C   UNL     1       2.234  13.214  20.092  0.00  0.00    +0.000 C 
ATOM     23  N   UNL     1       1.570  13.841  21.270  0.00  0.00    +0.000 NA
ATOM     24  C   UNL     1       2.140  15.194  21.460  0.00  0.00    +0.000 C 
ATOM     25  C   UNL     1       2.089  16.094  20.210  0.00  0.00    +0.000 C 
BRANCH  18  26
ATOM     26  O   UNL     1       4.199  17.099  18.844  0.00  0.00    +0.000 OA
BRANCH  26  28
ATOM     27  C   UNL     1       5.594  17.503  20.731  0.00  0.00    +0.000 C 
ATOM     28  C   UNL     1       5.568  17.135  19.258  0.00  0.00    +0.000 C 
ENDBRANCH  26  28
ENDBRANCH  18  26
ENDBRANCH  17  23
ENDBRANCH   1  17
TORSDOF 4
ENDMDL
MODEL 7
REMARK VINA RESULT:      -5.9      5.191      7.726
REMARK  Name = 
REMARK  5 active torsions:
REMARK  status: ('A' for Active; 'I' for Inactive)
REMARK    1  A    between atoms: C_1  and  C_2
REMARK    2  A    between atoms: C_2  and  O_3
REMARK    3  A    between atoms: O_3  and  C_4
REMARK    4  A    between atoms: N_9  and  C_10
REMARK    5  A    between atoms: C_10  and  C_11
REMARK                            x       y       z     vdW  Elec       q    Type
REMARK                         _______ _______ _______ _____ _____    ______ ____
ROOT
ATOM      1  C   UNL     1       2.123   7.002  19.778  0.00  0.00    +0.000 C 
ATOM      2  O   UNL     1       1.786   7.202  20.944  0.00  0.00    +0.000 OA
ATOM      3  N   UNL     1       2.702   5.799  19.301  0.00  0.00    +0.000 N 
ATOM      4  C   UNL     1       3.641   5.801  18.216  0.00  0.00    +0.000 A 
ATOM      5  C   UNL     1       4.591   6.833  18.143  0.00  0.00    +0.000 A 
ATOM      6  C   UNL     1       5.510   6.895  17.095  0.00  0.00    +0.000 A 
ATOM      7  C   UNL     1       5.510   5.903  16.123  0.00  0.00    +0.000 A 
ATOM      8  C   UNL     1       4.608   4.843  16.207  0.00  0.00    +0.000 A 
ATOM      9  C   UNL     1       3.687   4.777  17.261  0.00  0.00    +0.000 A 
ATOM     10  S   UNL     1       2.573   3.399  17.343  0.00  0.00    +0.000 S 
ATOM     11  C   UNL     1       2.384   3.346  19.117  0.00  0.00    +0.000 A 
ATOM     12  C   UNL     1       2.135   2.096  19.704  0.00  0.00    +0.000 A 
ATOM     13  C   UNL     1       1.977   1.987  21.081  0.00  0.00    +0.000 A 
ATOM     14  C   UNL     1       2.043   3.128  21.873  0.00  0.00    +0.000 A 
ATOM     15  C   UNL     1       2.255   4.382  21.288  0.00  0.00    +0.000 A 
ATOM     16  C   UNL     1       2.443   4.517  19.903  0.00  0.00    +0.000 A 
ENDROOT
BRANCH   1  17
ATOM     17  C   UNL     1       1.769   7.985  18.618  0.00  0.00    +0.000 C 
BRANCH  17  23
ATOM     18  C   UNL     1      -1.716  11.525  19.285  0.00  0.00    +0.000 C 
ATOM     19  O   UNL     1      -2.135  12.205  18.355  0.00  0.00    +0.000 OA
ATOM     20  N   UNL     1      -0.849  10.464  19.135  0.00  0.00    +0.000 N 
ATOM     21  C   UNL     1      -0.296  10.167  17.820  0.00  0.00    +0.000 C 
ATOM     22  C   UNL     1       1.251  10.223  17.836  0.00  0.00    +0.000 C 
ATOM     23  N   UNL     1       1.897   9.432  18.921  0.00  0.00    +0.000 NA
ATOM     24  C   UNL     1       1.291   9.830  20.211  0.00  0.00    +0.000 C 
ATOM     25  C   UNL     1      -0.246   9.739  20.255  0.00  0.00    +0.000 C 
BRANCH  18  26
ATOM     26  O   UNL     1      -1.987  11.784  20.591  0.00  0.00    +0.000 OA
BRANCH  26  28
ATOM     27  C   UNL     1      -0.933  12.767  22.488  0.00  0.00    +0.000 C 
ATOM     28  C   UNL     1      -1.464  13.020  21.087  0.00  0.00    +0.000 C 
ENDBRANCH  26  28
ENDBRANCH  18  26
ENDBRANCH  17  23
ENDBRANCH   1  17
TORSDOF 4
ENDMDL
MODEL 8
REMARK VINA RESULT:      -5.8      1.130      1.270
REMARK  Name = 
REMARK  5 active torsions:
REMARK  status: ('A' for Active; 'I' for Inactive)
REMARK    1  A    between atoms: C_1  and  C_2
REMARK    2  A    between atoms: C_2  and  O_3
REMARK    3  A    between atoms: O_3  and  C_4
REMARK    4  A    between atoms: N_9  and  C_10
REMARK    5  A    between atoms: C_10  and  C_11
REMARK                            x       y       z     vdW  Elec       q    Type
REMARK                         _______ _______ _______ _____ _____    ______ ____
ROOT
ATOM      1  C   UNL     1      -1.167  13.017  20.614  0.00  0.00    +0.000 C 
ATOM      2  O   UNL     1      -2.143  13.759  20.508  0.00  0.00    +0.000 OA
ATOM      3  N   UNL     1      -1.092  11.704  20.085  0.00  0.00    +0.000 N 
ATOM      4  C   UNL     1      -0.318  10.683  20.730  0.00  0.00    +0.000 A 
ATOM      5  C   UNL     1      -0.316  10.617  22.134  0.00  0.00    +0.000 A 
ATOM      6  C   UNL     1       0.438   9.659  22.811  0.00  0.00    +0.000 A 
ATOM      7  C   UNL     1       1.176   8.731  22.089  0.00  0.00    +0.000 A 
ATOM      8  C   UNL     1       1.147   8.748  20.695  0.00  0.00    +0.000 A 
ATOM      9  C   UNL     1       0.386   9.708  20.013  0.00  0.00    +0.000 A 
ATOM     10  S   UNL     1       0.358   9.678  18.239  0.00  0.00    +0.000 S 
ATOM     11  C   UNL     1      -1.278  10.354  18.013  0.00  0.00    +0.000 A 
ATOM     12  C   UNL     1      -1.993   9.949  16.876  0.00  0.00    +0.000 A 
ATOM     13  C   UNL     1      -3.273  10.439  16.641  0.00  0.00    +0.000 A 
ATOM     14  C   UNL     1      -3.832  11.354  17.526  0.00  0.00    +0.000 A 
ATOM     15  C   UNL     1      -3.108  11.789  18.642  0.00  0.00    +0.000 A 
ATOM     16  C   UNL     1      -1.825  11.291  18.916  0.00  0.00    +0.000 A 
ENDROOT
BRANCH   1  17
ATOM     17  C   UNL     1       0.204  13.504  21.180  0.00  0.00    +0.000 C 
BRANCH  17  23
ATOM     18  C   UNL     1       4.819  15.164  20.145  0.00  0.00    +0.000 C 
ATOM     19  O   UNL     1       5.517  15.708  20.993  0.00  0.00    +0.000 OA
ATOM     20  N   UNL     1       3.596  14.586  20.409  0.00  0.00    +0.000 N 
ATOM     21  C   UNL     1       3.017  14.700  21.742  0.00  0.00    +0.000 C 
ATOM     22  C   UNL     1       1.635  15.394  21.696  0.00  0.00    +0.000 C 
ATOM     23  N   UNL     1       0.678  14.827  20.705  0.00  0.00    +0.000 NA
ATOM     24  C   UNL     1       1.347  14.785  19.385  0.00  0.00    +0.000 C 
ATOM     25  C   UNL     1       2.705  14.056  19.374  0.00  0.00    +0.000 C 
BRANCH  18  26
ATOM     26  O   UNL     1       5.125  15.134  18.822  0.00  0.00    +0.000 OA
BRANCH  26  28
ATOM     27  C   UNL     1       7.275  15.830  18.070  0.00  0.00    +0.000 C 
ATOM     28  C   UNL     1       6.434  14.646  18.511  0.00  0.00    +0.000 C 
ENDBRANCH  26  28
ENDBRANCH  18  26
ENDBRANCH  17  23
ENDBRANCH   1  17
TORSDOF 4
ENDMDL
MODEL 9
REMARK VINA RESULT:      -5.7      1.681      2.302
REMARK  Name = 
REMARK  5 active torsions:
REMARK  status: ('A' for Active; 'I' for Inactive)
REMARK    1  A    between atoms: C_1  and  C_2
REMARK    2  A    between atoms: C_2  and  O_3
REMARK    3  A    between atoms: O_3  and  C_4
REMARK    4  A    between atoms: N_9  and  C_10
REMARK    5  A    between atoms: C_10  and  C_11
REMARK                            x       y       z     vdW  Elec       q    Type
REMARK                         _______ _______ _______ _____ _____    ______ ____
ROOT
ATOM      1  C   UNL     1      -2.640  13.688  20.969  0.00  0.00    +0.000 C 
ATOM      2  O   UNL     1      -3.587  14.168  21.591  0.00  0.00    +0.000 OA
ATOM      3  N   UNL     1      -2.724  12.553  20.122  0.00  0.00    +0.000 N 
ATOM      4  C   UNL     1      -1.615  11.659  19.959  0.00  0.00    +0.000 A 
ATOM      5  C   UNL     1      -0.827  11.343  21.080  0.00  0.00    +0.000 A 
ATOM      6  C   UNL     1       0.277  10.499  20.970  0.00  0.00    +0.000 A 
ATOM      7  C   UNL     1       0.589   9.932  19.742  0.00  0.00    +0.000 A 
ATOM      8  C   UNL     1      -0.210  10.194  18.630  0.00  0.00    +0.000 A 
ATOM      9  C   UNL     1      -1.322  11.039  18.738  0.00  0.00    +0.000 A 
ATOM     10  S   UNL     1      -2.326  11.325  17.303  0.00  0.00    +0.000 S 
ATOM     11  C   UNL     1      -3.877  11.599  18.144  0.00  0.00    +0.000 A 
ATOM     12  C   UNL     1      -5.051  11.240  17.466  0.00  0.00    +0.000 A 
ATOM     13  C   UNL     1      -6.292  11.428  18.066  0.00  0.00    +0.000 A 
ATOM     14  C   UNL     1      -6.364  11.998  19.332  0.00  0.00    +0.000 A 
ATOM     15  C   UNL     1      -5.196  12.391  19.997  0.00  0.00    +0.000 A 
ATOM     16  C   UNL     1      -3.931  12.189  19.425  0.00  0.00    +0.000 A 
ENDROOT
BRANCH   1  17
ATOM     17  C   UNL     1      -1.250  14.392  20.873  0.00  0.00    +0.000 C 
BRANCH  17  23
ATOM     18  C   UNL     1       2.850  16.807  19.298  0.00  0.00    +0.000 C 
ATOM     19  O   UNL     1       3.063  17.979  19.589  0.00  0.00    +0.000 OA
ATOM     20  N   UNL     1       1.802  16.067  19.802  0.00  0.00    +0.000 N 
ATOM     21  C   UNL     1       0.809  16.710  20.653  0.00  0.00    +0.000 C 
ATOM     22  C   UNL     1      -0.612  16.584  20.051  0.00  0.00    +0.000 C 
ATOM     23  N   UNL     1      -1.006  15.203  19.655  0.00  0.00    +0.000 NA
ATOM     24  C   UNL     1       0.046  14.654  18.771  0.00  0.00    +0.000 C 
ATOM     25  C   UNL     1       1.471  14.712  19.354  0.00  0.00    +0.000 C 
BRANCH  18  26
ATOM     26  O   UNL     1       3.571  16.115  18.379  0.00  0.00    +0.000 OA
BRANCH  26  28
ATOM     27  C   UNL     1       5.475  14.786  17.846  0.00  0.00    +0.000 C 
ATOM     28  C   UNL     1       4.950  15.922  18.707  0.00  0.00    +0.000 C 
ENDBRANCH  26  28
ENDBRANCH  18  26
ENDBRANCH  17  23
ENDBRANCH   1  17
TORSDOF 4
ENDMDL
