MODEL 1
REMARK VINA RESULT:      -6.7      0.000      0.000
REMARK  Name = 
REMARK  3 active torsions:
REMARK  status: ('A' for Active; 'I' for Inactive)
REMARK    1  A    between atoms: C_1  and  N_2
REMARK    2  A    between atoms: C_3  and  C_5
REMARK    3  A    between atoms: C_7  and  C_8
REMARK                            x       y       z     vdW  Elec       q    Type
REMARK                         _______ _______ _______ _____ _____    ______ ____
ROOT
ATOM      1  C   UNL     1       5.872   4.290  16.135  0.00  0.00    +0.000 A 
ATOM      2  C   UNL     1       4.531   4.080  16.417  0.00  0.00    +0.000 A 
ATOM      3  C   UNL     1       4.366   4.011  17.831  0.00  0.00    +0.000 A 
ATOM      4  C   UNL     1       5.621   4.187  18.375  0.00  0.00    +0.000 A 
ATOM      5  N   UNL     1       6.517   4.349  17.351  0.00  0.00    +0.000 N 
ATOM      6  H   UNL     1       7.516   4.487  17.448  0.00  0.00    +0.000 HD
ENDROOT
BRANCH   3   7
ATOM      7  C   UNL     1       3.157   3.777  18.606  0.00  0.00    +0.000 A 
ATOM      8  C   UNL     1       2.164   2.928  18.113  0.00  0.00    +0.000 A 
ATOM      9  C   UNL     1       1.023   2.728  18.873  0.00  0.00    +0.000 A 
ATOM     10  N   UNL     1       0.807   3.312  20.069  0.00  0.00    +0.000 NA
ATOM     11  C   UNL     1       1.778   4.132  20.526  0.00  0.00    +0.000 A 
ATOM     12  C   UNL     1       2.953   4.393  19.842  0.00  0.00    +0.000 A 
ENDBRANCH   3   7
BRANCH   1  15
ATOM     13  C   UNL     1       6.760   3.691  12.557  0.00  0.00    +0.000 C 
ATOM     14  N   UNL     1       6.124   3.674  13.846  0.00  0.00    +0.000 N 
ATOM     15  C   UNL     1       6.597   4.433  14.891  0.00  0.00    +0.000 C 
ATOM     16  O   UNL     1       7.566   5.179  14.781  0.00  0.00    +0.000 OA
ATOM     17  H   UNL     1       5.331   3.068  13.991  0.00  0.00    +0.000 HD
ENDBRANCH   1  15
TORSDOF 2
ENDMDL
MODEL 2
REMARK VINA RESULT:      -6.7      0.699      1.118
REMARK  Name = 
REMARK  3 active torsions:
REMARK  status: ('A' for Active; 'I' for Inactive)
REMARK    1  A    between atoms: C_1  and  N_2
REMARK    2  A    between atoms: C_3  and  C_5
REMARK    3  A    between atoms: C_7  and  C_8
REMARK                            x       y       z     vdW  Elec       q    Type
REMARK                         _______ _______ _______ _____ _____    ______ ____
ROOT
ATOM      1  C   UNL     1       6.007   4.278  15.991  0.00  0.00    +0.000 A 
ATOM      2  C   UNL     1       4.708   3.954  16.351  0.00  0.00    +0.000 A 
ATOM      3  C   UNL     1       4.621   3.923  17.774  0.00  0.00    +0.000 A 
ATOM      4  C   UNL     1       5.879   4.235  18.244  0.00  0.00    +0.000 A 
ATOM      5  N   UNL     1       6.703   4.442  17.169  0.00  0.00    +0.000 N 
ATOM      6  H   UNL     1       7.688   4.676  17.208  0.00  0.00    +0.000 HD
ENDROOT
BRANCH   3   7
ATOM      7  C   UNL     1       3.479   3.606  18.619  0.00  0.00    +0.000 A 
ATOM      8  C   UNL     1       3.679   3.056  19.887  0.00  0.00    +0.000 A 
ATOM      9  C   UNL     1       2.571   2.764  20.666  0.00  0.00    +0.000 A 
ATOM     10  N   UNL     1       1.299   2.975  20.270  0.00  0.00    +0.000 NA
ATOM     11  C   UNL     1       1.129   3.505  19.040  0.00  0.00    +0.000 A 
ATOM     12  C   UNL     1       2.171   3.833  18.189  0.00  0.00    +0.000 A 
ENDBRANCH   3   7
BRANCH   1  15
ATOM     13  C   UNL     1       6.734   3.663  12.380  0.00  0.00    +0.000 C 
ATOM     14  N   UNL     1       6.172   3.633  13.703  0.00  0.00    +0.000 N 
ATOM     15  C   UNL     1       6.651   4.441  14.706  0.00  0.00    +0.000 C 
ATOM     16  O   UNL     1       7.562   5.245  14.531  0.00  0.00    +0.000 OA
ATOM     17  H   UNL     1       5.429   2.980  13.902  0.00  0.00    +0.000 HD
ENDBRANCH   1  15
TORSDOF 2
ENDMDL
MODEL 3
REMARK VINA RESULT:      -6.6      1.211      1.265
REMARK  Name = 
REMARK  3 active torsions:
REMARK  status: ('A' for Active; 'I' for Inactive)
REMARK    1  A    between atoms: C_1  and  N_2
REMARK    2  A    between atoms: C_3  and  C_5
REMARK    3  A    between atoms: C_7  and  C_8
REMARK                            x       y       z     vdW  Elec       q    Type
REMARK                         _______ _______ _______ _____ _____    ______ ____
ROOT
ATOM      1  C   UNL     1       5.333   5.127  15.841  0.00  0.00    +0.000 A 
ATOM      2  C   UNL     1       4.527   4.317  16.624  0.00  0.00    +0.000 A 
ATOM      3  C   UNL     1       3.821   5.135  17.554  0.00  0.00    +0.000 A 
ATOM      4  C   UNL     1       4.218   6.432  17.305  0.00  0.00    +0.000 A 
ATOM      5  N   UNL     1       5.126   6.416  16.280  0.00  0.00    +0.000 N 
ATOM      6  H   UNL     1       5.598   7.223  15.888  0.00  0.00    +0.000 HD
ENDROOT
BRANCH   3   7
ATOM      7  C   UNL     1       2.883   4.745  18.596  0.00  0.00    +0.000 A 
ATOM      8  C   UNL     1       1.852   3.849  18.308  0.00  0.00    +0.000 A 
ATOM      9  C   UNL     1       0.974   3.499  19.321  0.00  0.00    +0.000 A 
ATOM     10  N   UNL     1       1.051   3.979  20.579  0.00  0.00    +0.000 NA
ATOM     11  C   UNL     1       2.053   4.846  20.835  0.00  0.00    +0.000 A 
ATOM     12  C   UNL     1       2.981   5.254  19.892  0.00  0.00    +0.000 A 
ENDBRANCH   3   7
BRANCH   1  15
ATOM     13  C   UNL     1       6.550   3.657  12.629  0.00  0.00    +0.000 C 
ATOM     14  N   UNL     1       5.745   4.051  13.754  0.00  0.00    +0.000 N 
ATOM     15  C   UNL     1       6.253   4.837  14.761  0.00  0.00    +0.000 C 
ATOM     16  O   UNL     1       7.403   5.264  14.751  0.00  0.00    +0.000 OA
ATOM     17  H   UNL     1       4.796   3.715  13.815  0.00  0.00    +0.000 HD
ENDBRANCH   1  15
TORSDOF 2
ENDMDL
MODEL 4
REMARK VINA RESULT:      -6.5      1.436      1.889
REMARK  Name = 
REMARK  3 active torsions:
REMARK  status: ('A' for Active; 'I' for Inactive)
REMARK    1  A    between atoms: C_1  and  N_2
REMARK    2  A    between atoms: C_3  and  C_5
REMARK    3  A    between atoms: C_7  and  C_8
REMARK                            x       y       z     vdW  Elec       q    Type
REMARK                         _______ _______ _______ _____ _____    ______ ____
ROOT
ATOM      1  C   UNL     1       5.520   5.302  15.677  0.00  0.00    +0.000 A 
ATOM      2  C   UNL     1       4.617   4.574  16.436  0.00  0.00    +0.000 A 
ATOM      3  C   UNL     1       4.017   5.444  17.393  0.00  0.00    +0.000 A 
ATOM      4  C   UNL     1       4.573   6.689  17.185  0.00  0.00    +0.000 A 
ATOM      5  N   UNL     1       5.475   6.593  16.158  0.00  0.00    +0.000 N 
ATOM      6  H   UNL     1       6.045   7.346  15.791  0.00  0.00    +0.000 HD
ENDROOT
BRANCH   3   7
ATOM      7  C   UNL     1       3.035   5.141  18.423  0.00  0.00    +0.000 A 
ATOM      8  C   UNL     1       2.900   5.981  19.530  0.00  0.00    +0.000 A 
ATOM      9  C   UNL     1       1.958   5.663  20.494  0.00  0.00    +0.000 A 
ATOM     10  N   UNL     1       1.158   4.579  20.433  0.00  0.00    +0.000 NA
ATOM     11  C   UNL     1       1.306   3.779  19.356  0.00  0.00    +0.000 A 
ATOM     12  C   UNL     1       2.217   4.013  18.339  0.00  0.00    +0.000 A 
ENDBRANCH   3   7
BRANCH   1  15
ATOM     13  C   UNL     1       6.615   3.611  12.532  0.00  0.00    +0.000 C 
ATOM     14  N   UNL     1       5.852   4.085  13.656  0.00  0.00    +0.000 N 
ATOM     15  C   UNL     1       6.399   4.935  14.587  0.00  0.00    +0.000 C 
ATOM     16  O   UNL     1       7.549   5.355  14.506  0.00  0.00    +0.000 OA
ATOM     17  H   UNL     1       4.905   3.759  13.774  0.00  0.00    +0.000 HD
ENDBRANCH   1  15
TORSDOF 2
ENDMDL
MODEL 5
REMARK VINA RESULT:      -6.4      1.347      1.633
REMARK  Name = 
REMARK  3 active torsions:
REMARK  status: ('A' for Active; 'I' for Inactive)
REMARK    1  A    between atoms: C_1  and  N_2
REMARK    2  A    between atoms: C_3  and  C_5
REMARK    3  A    between atoms: C_7  and  C_8
REMARK                            x       y       z     vdW  Elec       q    Type
REMARK                         _______ _______ _______ _____ _____    ______ ____
ROOT
ATOM      1  C   UNL     1       6.338   4.566  15.724  0.00  0.00    +0.000 A 
ATOM      2  C   UNL     1       5.192   4.132  16.372  0.00  0.00    +0.000 A 
ATOM      3  C   UNL     1       5.316   4.418  17.763  0.00  0.00    +0.000 A 
ATOM      4  C   UNL     1       6.543   5.027  17.924  0.00  0.00    +0.000 A 
ATOM      5  N   UNL     1       7.149   5.108  16.698  0.00  0.00    +0.000 N 
ATOM      6  H   UNL     1       8.065   5.498  16.509  0.00  0.00    +0.000 HD
ENDROOT
BRANCH   3   7
ATOM      7  C   UNL     1       4.390   4.129  18.847  0.00  0.00    +0.000 A 
ATOM      8  C   UNL     1       3.600   5.148  19.382  0.00  0.00    +0.000 A 
ATOM      9  C   UNL     1       2.729   4.840  20.415  0.00  0.00    +0.000 A 
ATOM     10  N   UNL     1       2.600   3.607  20.946  0.00  0.00    +0.000 NA
ATOM     11  C   UNL     1       3.375   2.637  20.415  0.00  0.00    +0.000 A 
ATOM     12  C   UNL     1       4.272   2.844  19.381  0.00  0.00    +0.000 A 
ENDBRANCH   3   7
BRANCH   1  15
ATOM     13  C   UNL     1       6.525   3.340  12.201  0.00  0.00    +0.000 C 
ATOM     14  N   UNL     1       6.189   3.521  13.588  0.00  0.00    +0.000 N 
ATOM     15  C   UNL     1       6.750   4.527  14.337  0.00  0.00    +0.000 C 
ATOM     16  O   UNL     1       7.545   5.337  13.870  0.00  0.00    +0.000 OA
ATOM     17  H   UNL     1       5.550   2.873  14.022  0.00  0.00    +0.000 HD
ENDBRANCH   1  15
TORSDOF 2
ENDMDL
MODEL 6
REMARK VINA RESULT:      -6.4      1.365      1.753
REMARK  Name = 
REMARK  3 active torsions:
REMARK  status: ('A' for Active; 'I' for Inactive)
REMARK    1  A    between atoms: C_1  and  N_2
REMARK    2  A    between atoms: C_3  and  C_5
REMARK    3  A    between atoms: C_7  and  C_8
REMARK                            x       y       z     vdW  Elec       q    Type
REMARK                         _______ _______ _______ _____ _____    ______ ____
ROOT
ATOM      1  C   UNL     1       6.155   4.656  15.950  0.00  0.00    +0.000 A 
ATOM      2  C   UNL     1       4.939   5.101  16.444  0.00  0.00    +0.000 A 
ATOM      3  C   UNL     1       4.919   4.905  17.856  0.00  0.00    +0.000 A 
ATOM      4  C   UNL     1       6.136   4.346  18.186  0.00  0.00    +0.000 A 
ATOM      5  N   UNL     1       6.868   4.197  17.037  0.00  0.00    +0.000 N 
ATOM      6  H   UNL     1       7.798   3.803  16.969  0.00  0.00    +0.000 HD
ENDROOT
BRANCH   3   7
ATOM      7  C   UNL     1       3.856   5.188  18.809  0.00  0.00    +0.000 A 
ATOM      8  C   UNL     1       3.229   6.436  18.807  0.00  0.00    +0.000 A 
ATOM      9  C   UNL     1       2.222   6.674  19.728  0.00  0.00    +0.000 A 
ATOM     10  N   UNL     1       1.809   5.770  20.639  0.00  0.00    +0.000 NA
ATOM     11  C   UNL     1       2.430   4.572  20.626  0.00  0.00    +0.000 A 
ATOM     12  C   UNL     1       3.444   4.237  19.744  0.00  0.00    +0.000 A 
ENDBRANCH   3   7
BRANCH   1  15
ATOM     13  C   UNL     1       6.595   3.507  12.424  0.00  0.00    +0.000 C 
ATOM     14  N   UNL     1       6.132   3.687  13.773  0.00  0.00    +0.000 N 
ATOM     15  C   UNL     1       6.708   4.610  14.614  0.00  0.00    +0.000 C 
ATOM     16  O   UNL     1       7.627   5.343  14.262  0.00  0.00    +0.000 OA
ATOM     17  H   UNL     1       5.386   3.100  14.115  0.00  0.00    +0.000 HD
ENDBRANCH   1  15
TORSDOF 2
ENDMDL
MODEL 7
REMARK VINA RESULT:      -6.3      1.049      1.166
REMARK  Name = 
REMARK  3 active torsions:
REMARK  status: ('A' for Active; 'I' for Inactive)
REMARK    1  A    between atoms: C_1  and  N_2
REMARK    2  A    between atoms: C_3  and  C_5
REMARK    3  A    between atoms: C_7  and  C_8
REMARK                            x       y       z     vdW  Elec       q    Type
REMARK                         _______ _______ _______ _____ _____    ______ ____
ROOT
ATOM      1  C   UNL     1       5.374   4.419  16.498  0.00  0.00    +0.000 A 
ATOM      2  C   UNL     1       4.110   4.173  17.012  0.00  0.00    +0.000 A 
ATOM      3  C   UNL     1       4.220   3.972  18.420  0.00  0.00    +0.000 A 
ATOM      4  C   UNL     1       5.557   4.108  18.726  0.00  0.00    +0.000 A 
ATOM      5  N   UNL     1       6.241   4.371  17.569  0.00  0.00    +0.000 N 
ATOM      6  H   UNL     1       7.241   4.507  17.484  0.00  0.00    +0.000 HD
ENDROOT
BRANCH   3   7
ATOM      7  C   UNL     1       3.179   3.659  19.387  0.00  0.00    +0.000 A 
ATOM      8  C   UNL     1       1.909   4.225  19.257  0.00  0.00    +0.000 A 
ATOM      9  C   UNL     1       0.941   3.908  20.196  0.00  0.00    +0.000 A 
ATOM     10  N   UNL     1       1.152   3.082  21.242  0.00  0.00    +0.000 NA
ATOM     11  C   UNL     1       2.387   2.548  21.350  0.00  0.00    +0.000 A 
ATOM     12  C   UNL     1       3.419   2.801  20.463  0.00  0.00    +0.000 A 
ENDBRANCH   3   7
BRANCH   1  15
ATOM     13  C   UNL     1       6.447   3.678  12.998  0.00  0.00    +0.000 C 
ATOM     14  N   UNL     1       5.962   3.576  14.349  0.00  0.00    +0.000 N 
ATOM     15  C   UNL     1       5.847   4.682  15.157  0.00  0.00    +0.000 C 
ATOM     16  O   UNL     1       6.127   5.814  14.773  0.00  0.00    +0.000 OA
ATOM     17  H   UNL     1       5.730   2.665  14.715  0.00  0.00    +0.000 HD
ENDBRANCH   1  15
TORSDOF 2
ENDMDL
MODEL 8
REMARK VINA RESULT:      -6.3      1.375      1.529
REMARK  Name = 
REMARK  3 active torsions:
REMARK  status: ('A' for Active; 'I' for Inactive)
REMARK    1  A    between atoms: C_1  and  N_2
REMARK    2  A    between atoms: C_3  and  C_5
REMARK    3  A    between atoms: C_7  and  C_8
REMARK                            x       y       z     vdW  Elec       q    Type
REMARK                         _______ _______ _______ _____ _____    ______ ____
ROOT
ATOM      1  C   UNL     1       5.699   5.031  15.463  0.00  0.00    +0.000 A 
ATOM      2  C   UNL     1       5.044   4.169  16.328  0.00  0.00    +0.000 A 
ATOM      3  C   UNL     1       4.343   4.941  17.299  0.00  0.00    +0.000 A 
ATOM      4  C   UNL     1       4.589   6.263  16.993  0.00  0.00    +0.000 A 
ATOM      5  N   UNL     1       5.405   6.306  15.894  0.00  0.00    +0.000 N 
ATOM      6  H   UNL     1       5.762   7.143  15.448  0.00  0.00    +0.000 HD
ENDROOT
BRANCH   3   7
ATOM      7  C   UNL     1       3.538   4.491  18.425  0.00  0.00    +0.000 A 
ATOM      8  C   UNL     1       3.976   3.428  19.218  0.00  0.00    +0.000 A 
ATOM      9  C   UNL     1       3.185   3.022  20.281  0.00  0.00    +0.000 A 
ATOM     10  N   UNL     1       2.004   3.592  20.598  0.00  0.00    +0.000 NA
ATOM     11  C   UNL     1       1.598   4.615  19.817  0.00  0.00    +0.000 A 
ATOM     12  C   UNL     1       2.318   5.095  18.735  0.00  0.00    +0.000 A 
ENDBRANCH   3   7
BRANCH   1  15
ATOM     13  C   UNL     1       6.790   3.581  12.197  0.00  0.00    +0.000 C 
ATOM     14  N   UNL     1       6.046   3.928  13.379  0.00  0.00    +0.000 N 
ATOM     15  C   UNL     1       6.548   4.802  14.313  0.00  0.00    +0.000 C 
ATOM     16  O   UNL     1       7.640   5.349  14.188  0.00  0.00    +0.000 OA
ATOM     17  H   UNL     1       5.148   3.495  13.534  0.00  0.00    +0.000 HD
ENDBRANCH   1  15
TORSDOF 2
ENDMDL
MODEL 9
REMARK VINA RESULT:      -6.3      2.229      2.608
REMARK  Name = 
REMARK  3 active torsions:
REMARK  status: ('A' for Active; 'I' for Inactive)
REMARK    1  A    between atoms: C_1  and  N_2
REMARK    2  A    between atoms: C_3  and  C_5
REMARK    3  A    between atoms: C_7  and  C_8
REMARK                            x       y       z     vdW  Elec       q    Type
REMARK                         _______ _______ _______ _____ _____    ______ ____
ROOT
ATOM      1  C   UNL     1       5.934   4.861  15.478  0.00  0.00    +0.000 A 
ATOM      2  C   UNL     1       5.114   5.887  15.919  0.00  0.00    +0.000 A 
ATOM      3  C   UNL     1       4.593   5.538  17.200  0.00  0.00    +0.000 A 
ATOM      4  C   UNL     1       5.119   4.300  17.507  0.00  0.00    +0.000 A 
ATOM      5  N   UNL     1       5.918   3.901  16.467  0.00  0.00    +0.000 N 
ATOM      6  H   UNL     1       6.428   3.028  16.407  0.00  0.00    +0.000 HD
ENDROOT
BRANCH   3   7
ATOM      7  C   UNL     1       3.671   6.276  18.050  0.00  0.00    +0.000 A 
ATOM      8  C   UNL     1       3.217   7.537  17.660  0.00  0.00    +0.000 A 
ATOM      9  C   UNL     1       2.342   8.215  18.492  0.00  0.00    +0.000 A 
ATOM     10  N   UNL     1       1.899   7.730  19.670  0.00  0.00    +0.000 NA
ATOM     11  C   UNL     1       2.352   6.510  20.029  0.00  0.00    +0.000 A 
ATOM     12  C   UNL     1       3.225   5.754  19.266  0.00  0.00    +0.000 A 
ENDBRANCH   3   7
BRANCH   1  15
ATOM     13  C   UNL     1       6.881   3.442  12.155  0.00  0.00    +0.000 C 
ATOM     14  N   UNL     1       6.206   3.749  13.387  0.00  0.00    +0.000 N 
ATOM     15  C   UNL     1       6.706   4.680  14.267  0.00  0.00    +0.000 C 
ATOM     16  O   UNL     1       7.733   5.314  14.047  0.00  0.00    +0.000 OA
ATOM     17  H   UNL     1       5.364   3.246  13.620  0.00  0.00    +0.000 HD
ENDBRANCH   1  15
TORSDOF 2
ENDMDL
