MODEL 1
REMARK VINA RESULT:      -7.0      0.000      0.000
REMARK  Name = 
REMARK  10 active torsions:
REMARK  status: ('A' for Active; 'I' for Inactive)
REMARK    1  A    between atoms: C_1  and  C_2
REMARK    2  A    between atoms: C_2  and  O_3
REMARK    3  A    between atoms: O_3  and  C_4
REMARK    4  A    between atoms: C_4  and  C_5
REMARK    5  A    between atoms: C_4  and  C_10
REMARK    6  A    between atoms: C_5  and  O_6
REMARK    7  A    between atoms: O_6  and  C_7
REMARK    8  A    between atoms: C_11  and  N_12
REMARK    9  A    between atoms: C_17  and  C_18
REMARK   10  A    between atoms: C_19  and  N_20
REMARK                            x       y       z     vdW  Elec       q    Type
REMARK                         _______ _______ _______ _____ _____    ______ ____
ROOT
ATOM      1  C   UNL     1       4.434   5.986  18.131  0.00  0.00    +0.000 C 
ATOM      2  C   UNL     1       3.384   6.772  18.471  0.00  0.00    +0.000 C 
ATOM      3  C   UNL     1       2.548   6.318  19.654  0.00  0.00    +0.000 C 
ATOM      4  O   UNL     1       1.980   7.125  20.387  0.00  0.00    +0.000 OA
ATOM      5  C   UNL     1       2.380   4.862  19.886  0.00  0.00    +0.000 C 
ATOM      6  C   UNL     1       1.188   4.478  20.704  0.00  0.00    +0.000 C 
ATOM      7  C   UNL     1       3.282   4.014  19.371  0.00  0.00    +0.000 C 
ATOM      8  C   UNL     1       4.513   4.640  18.772  0.00  0.00    +0.000 C 
ATOM      9  O   UNL     1       5.552   3.989  18.799  0.00  0.00    +0.000 OA
ENDROOT
BRANCH   2  10
ATOM     10  N   UNL     1       2.860   7.921  17.884  0.00  0.00    +0.000 N 
ATOM     11  C   UNL     1       2.072   8.966  18.487  0.00  0.00    +0.000 C 
ATOM     12  C   UNL     1       1.434   7.955  17.565  0.00  0.00    +0.000 C 
ENDBRANCH   2  10
BRANCH   7  13
ATOM     13  N   UNL     1       3.325   2.625  19.322  0.00  0.00    +0.000 N 
ATOM     14  C   UNL     1       2.114   1.932  18.878  0.00  0.00    +0.000 C 
ATOM     15  C   UNL     1       3.427   1.784  18.154  0.00  0.00    +0.000 C 
ENDBRANCH   7  13
BRANCH   1  16
ATOM     16  C   UNL     1       5.536   6.340  17.128  0.00  0.00    +0.000 C 
BRANCH  16  17
ATOM     17  O   UNL     1       6.197   7.575  17.495  0.00  0.00    +0.000 OA
BRANCH  17  19
ATOM     18  C   UNL     1       7.967   6.528  18.706  0.00  0.00    +0.000 C 
ATOM     19  C   UNL     1       7.617   7.509  17.603  0.00  0.00    +0.000 C 
ENDBRANCH  17  19
ENDBRANCH  16  17
BRANCH  16  20
ATOM     20  C   UNL     1       5.299   6.322  15.578  0.00  0.00    +0.000 C 
BRANCH  20  21
ATOM     21  O   UNL     1       6.314   5.742  14.737  0.00  0.00    +0.000 OA
BRANCH  21  22
ATOM     22  C   UNL     1       6.904   4.598  15.087  0.00  0.00    +0.000 C 
ATOM     23  N   UNL     1       6.294   3.565  14.456  0.00  0.00    +0.000 N 
ATOM     24  O   UNL     1       7.808   4.463  15.888  0.00  0.00    +0.000 OA
ATOM     25  H   UNL     1       5.410   3.754  14.007  0.00  0.00    +0.000 HD
ATOM     26  H   UNL     1       6.539   2.623  14.721  0.00  0.00    +0.000 HD
ENDBRANCH  21  22
ENDBRANCH  20  21
ENDBRANCH  16  20
ENDBRANCH   1  16
TORSDOF 8
ENDMDL
MODEL 2
REMARK VINA RESULT:      -6.9      1.413      2.428
REMARK  Name = 
REMARK  10 active torsions:
REMARK  status: ('A' for Active; 'I' for Inactive)
REMARK    1  A    between atoms: C_1  and  C_2
REMARK    2  A    between atoms: C_2  and  O_3
REMARK    3  A    between atoms: O_3  and  C_4
REMARK    4  A    between atoms: C_4  and  C_5
REMARK    5  A    between atoms: C_4  and  C_10
REMARK    6  A    between atoms: C_5  and  O_6
REMARK    7  A    between atoms: O_6  and  C_7
REMARK    8  A    between atoms: C_11  and  N_12
REMARK    9  A    between atoms: C_17  and  C_18
REMARK   10  A    between atoms: C_19  and  N_20
REMARK                            x       y       z     vdW  Elec       q    Type
REMARK                         _______ _______ _______ _____ _____    ______ ____
ROOT
ATOM      1  C   UNL     1       4.152   6.073  17.774  0.00  0.00    +0.000 C 
ATOM      2  C   UNL     1       3.277   6.847  18.462  0.00  0.00    +0.000 C 
ATOM      3  C   UNL     1       2.476   6.162  19.554  0.00  0.00    +0.000 C 
ATOM      4  O   UNL     1       2.110   6.769  20.559  0.00  0.00    +0.000 OA
ATOM      5  C   UNL     1       2.088   4.743  19.365  0.00  0.00    +0.000 C 
ATOM      6  C   UNL     1       0.918   4.285  20.178  0.00  0.00    +0.000 C 
ATOM      7  C   UNL     1       2.792   3.985  18.512  0.00  0.00    +0.000 C 
ATOM      8  C   UNL     1       4.058   4.597  17.973  0.00  0.00    +0.000 C 
ATOM      9  O   UNL     1       4.973   3.837  17.673  0.00  0.00    +0.000 OA
ENDROOT
BRANCH   2  10
ATOM     10  N   UNL     1       2.906   8.180  18.313  0.00  0.00    +0.000 N 
ATOM     11  C   UNL     1       1.802   8.884  18.914  0.00  0.00    +0.000 C 
ATOM     12  C   UNL     1       1.765   8.496  17.456  0.00  0.00    +0.000 C 
ENDBRANCH   2  10
BRANCH   7  13
ATOM     13  N   UNL     1       2.600   2.688  18.049  0.00  0.00    +0.000 N 
ATOM     14  C   UNL     1       3.208   1.604  18.823  0.00  0.00    +0.000 C 
ATOM     15  C   UNL     1       1.721   1.678  18.587  0.00  0.00    +0.000 C 
ENDBRANCH   7  13
BRANCH   1  16
ATOM     16  C   UNL     1       5.213   6.572  16.789  0.00  0.00    +0.000 C 
BRANCH  16  17
ATOM     17  O   UNL     1       4.991   6.028  15.465  0.00  0.00    +0.000 OA
BRANCH  17  19
ATOM     18  C   UNL     1       5.616   4.119  14.177  0.00  0.00    +0.000 C 
ATOM     19  C   UNL     1       6.109   5.376  14.868  0.00  0.00    +0.000 C 
ENDBRANCH  17  19
ENDBRANCH  16  17
BRANCH  16  20
ATOM     20  C   UNL     1       6.746   6.531  17.112  0.00  0.00    +0.000 C 
BRANCH  20  21
ATOM     21  O   UNL     1       7.157   6.589  18.492  0.00  0.00    +0.000 OA
BRANCH  21  22
ATOM     22  C   UNL     1       7.590   5.489  19.110  0.00  0.00    +0.000 C 
ATOM     23  N   UNL     1       7.789   4.507  18.196  0.00  0.00    +0.000 N 
ATOM     24  O   UNL     1       7.738   5.339  20.307  0.00  0.00    +0.000 OA
ATOM     25  H   UNL     1       7.411   4.653  17.271  0.00  0.00    +0.000 HD
ATOM     26  H   UNL     1       7.988   3.575  18.524  0.00  0.00    +0.000 HD
ENDBRANCH  21  22
ENDBRANCH  20  21
ENDBRANCH  16  20
ENDBRANCH   1  16
TORSDOF 8
ENDMDL
MODEL 3
REMARK VINA RESULT:      -6.7      2.077      4.535
REMARK  Name = 
REMARK  10 active torsions:
REMARK  status: ('A' for Active; 'I' for Inactive)
REMARK    1  A    between atoms: C_1  and  C_2
REMARK    2  A    between atoms: C_2  and  O_3
REMARK    3  A    between atoms: O_3  and  C_4
REMARK    4  A    between atoms: C_4  and  C_5
REMARK    5  A    between atoms: C_4  and  C_10
REMARK    6  A    between atoms: C_5  and  O_6
REMARK    7  A    between atoms: O_6  and  C_7
REMARK    8  A    between atoms: C_11  and  N_12
REMARK    9  A    between atoms: C_17  and  C_18
REMARK   10  A    between atoms: C_19  and  N_20
REMARK                            x       y       z     vdW  Elec       q    Type
REMARK                         _______ _______ _______ _____ _____    ______ ____
ROOT
ATOM      1  C   UNL     1       4.071   5.052  17.486  0.00  0.00    +0.000 C 
ATOM      2  C   UNL     1       3.548   3.881  17.923  0.00  0.00    +0.000 C 
ATOM      3  C   UNL     1       2.189   3.952  18.595  0.00  0.00    +0.000 C 
ATOM      4  O   UNL     1       1.390   3.020  18.528  0.00  0.00    +0.000 OA
ATOM      5  C   UNL     1       1.853   5.157  19.391  0.00  0.00    +0.000 C 
ATOM      6  C   UNL     1       0.774   4.971  20.410  0.00  0.00    +0.000 C 
ATOM      7  C   UNL     1       2.511   6.300  19.148  0.00  0.00    +0.000 C 
ATOM      8  C   UNL     1       3.397   6.307  17.931  0.00  0.00    +0.000 C 
ATOM      9  O   UNL     1       3.568   7.379  17.359  0.00  0.00    +0.000 OA
ENDROOT
BRANCH   2  10
ATOM     10  N   UNL     1       4.061   2.587  17.939  0.00  0.00    +0.000 N 
ATOM     11  C   UNL     1       3.457   1.380  18.444  0.00  0.00    +0.000 C 
ATOM     12  C   UNL     1       4.577   2.055  19.199  0.00  0.00    +0.000 C 
ENDBRANCH   2  10
BRANCH   7  13
ATOM     13  N   UNL     1       2.499   7.532  19.794  0.00  0.00    +0.000 N 
ATOM     14  C   UNL     1       1.504   8.511  19.352  0.00  0.00    +0.000 C 
ATOM     15  C   UNL     1       1.552   8.008  20.772  0.00  0.00    +0.000 C 
ENDBRANCH   7  13
BRANCH   1  16
ATOM     16  C   UNL     1       5.309   5.209  16.598  0.00  0.00    +0.000 C 
BRANCH  16  17
ATOM     17  O   UNL     1       5.127   4.539  15.328  0.00  0.00    +0.000 OA
BRANCH  17  19
ATOM     18  C   UNL     1       6.131   3.782  13.299  0.00  0.00    +0.000 C 
ATOM     19  C   UNL     1       6.276   3.877  14.806  0.00  0.00    +0.000 C 
ENDBRANCH  17  19
ENDBRANCH  16  17
BRANCH  16  20
ATOM     20  C   UNL     1       6.761   4.934  17.123  0.00  0.00    +0.000 C 
BRANCH  20  21
ATOM     21  O   UNL     1       6.942   4.660  18.526  0.00  0.00    +0.000 OA
BRANCH  21  22
ATOM     22  C   UNL     1       7.562   5.546  19.308  0.00  0.00    +0.000 C 
ATOM     23  N   UNL     1       7.911   6.630  18.573  0.00  0.00    +0.000 N 
ATOM     24  O   UNL     1       7.837   5.409  20.484  0.00  0.00    +0.000 OA
ATOM     25  H   UNL     1       7.855   6.545  17.568  0.00  0.00    +0.000 HD
ATOM     26  H   UNL     1       8.505   7.327  18.992  0.00  0.00    +0.000 HD
ENDBRANCH  21  22
ENDBRANCH  20  21
ENDBRANCH  16  20
ENDBRANCH   1  16
TORSDOF 8
ENDMDL
MODEL 4
REMARK VINA RESULT:      -6.6      1.625      2.562
REMARK  Name = 
REMARK  10 active torsions:
REMARK  status: ('A' for Active; 'I' for Inactive)
REMARK    1  A    between atoms: C_1  and  C_2
REMARK    2  A    between atoms: C_2  and  O_3
REMARK    3  A    between atoms: O_3  and  C_4
REMARK    4  A    between atoms: C_4  and  C_5
REMARK    5  A    between atoms: C_4  and  C_10
REMARK    6  A    between atoms: C_5  and  O_6
REMARK    7  A    between atoms: O_6  and  C_7
REMARK    8  A    between atoms: C_11  and  N_12
REMARK    9  A    between atoms: C_17  and  C_18
REMARK   10  A    between atoms: C_19  and  N_20
REMARK                            x       y       z     vdW  Elec       q    Type
REMARK                         _______ _______ _______ _____ _____    ______ ____
ROOT
ATOM      1  C   UNL     1       3.973   5.618  18.144  0.00  0.00    +0.000 C 
ATOM      2  C   UNL     1       2.894   6.292  18.611  0.00  0.00    +0.000 C 
ATOM      3  C   UNL     1       2.271   5.772  19.893  0.00  0.00    +0.000 C 
ATOM      4  O   UNL     1       1.714   6.527  20.688  0.00  0.00    +0.000 OA
ATOM      5  C   UNL     1       2.295   4.312  20.153  0.00  0.00    +0.000 C 
ATOM      6  C   UNL     1       1.267   3.816  21.119  0.00  0.00    +0.000 C 
ATOM      7  C   UNL     1       3.213   3.557  19.532  0.00  0.00    +0.000 C 
ATOM      8  C   UNL     1       4.282   4.302  18.777  0.00  0.00    +0.000 C 
ATOM      9  O   UNL     1       5.381   3.768  18.674  0.00  0.00    +0.000 OA
ENDROOT
BRANCH   2  10
ATOM     10  N   UNL     1       2.176   7.364  18.089  0.00  0.00    +0.000 N 
ATOM     11  C   UNL     1       2.659   8.648  17.650  0.00  0.00    +0.000 C 
ATOM     12  C   UNL     1       1.909   8.512  18.953  0.00  0.00    +0.000 C 
ENDBRANCH   2  10
BRANCH   7  13
ATOM     13  N   UNL     1       3.403   2.180  19.486  0.00  0.00    +0.000 N 
ATOM     14  C   UNL     1       2.314   1.372  18.933  0.00  0.00    +0.000 C 
ATOM     15  C   UNL     1       3.696   1.366  18.331  0.00  0.00    +0.000 C 
ENDBRANCH   7  13
BRANCH   1  16
ATOM     16  C   UNL     1       4.893   6.070  17.006  0.00  0.00    +0.000 C 
BRANCH  16  17
ATOM     17  O   UNL     1       5.049   5.024  16.016  0.00  0.00    +0.000 OA
BRANCH  17  19
ATOM     18  C   UNL     1       5.933   4.149  13.979  0.00  0.00    +0.000 C 
ATOM     19  C   UNL     1       5.985   5.292  14.975  0.00  0.00    +0.000 C 
ENDBRANCH  17  19
ENDBRANCH  16  17
BRANCH  16  20
ATOM     20  C   UNL     1       6.284   6.745  17.267  0.00  0.00    +0.000 C 
BRANCH  20  21
ATOM     21  O   UNL     1       7.345   5.938  17.816  0.00  0.00    +0.000 OA
BRANCH  21  22
ATOM     22  C   UNL     1       7.813   6.188  19.040  0.00  0.00    +0.000 C 
ATOM     23  N   UNL     1       8.535   7.335  19.021  0.00  0.00    +0.000 N 
ATOM     24  O   UNL     1       7.680   5.489  20.024  0.00  0.00    +0.000 OA
ATOM     25  H   UNL     1       8.786   7.709  18.117  0.00  0.00    +0.000 HD
ATOM     26  H   UNL     1       9.065   7.586  19.841  0.00  0.00    +0.000 HD
ENDBRANCH  21  22
ENDBRANCH  20  21
ENDBRANCH  16  20
ENDBRANCH   1  16
TORSDOF 8
ENDMDL
MODEL 5
REMARK VINA RESULT:      -6.5      1.113      1.223
REMARK  Name = 
REMARK  10 active torsions:
REMARK  status: ('A' for Active; 'I' for Inactive)
REMARK    1  A    between atoms: C_1  and  C_2
REMARK    2  A    between atoms: C_2  and  O_3
REMARK    3  A    between atoms: O_3  and  C_4
REMARK    4  A    between atoms: C_4  and  C_5
REMARK    5  A    between atoms: C_4  and  C_10
REMARK    6  A    between atoms: C_5  and  O_6
REMARK    7  A    between atoms: O_6  and  C_7
REMARK    8  A    between atoms: C_11  and  N_12
REMARK    9  A    between atoms: C_17  and  C_18
REMARK   10  A    between atoms: C_19  and  N_20
REMARK                            x       y       z     vdW  Elec       q    Type
REMARK                         _______ _______ _______ _____ _____    ______ ____
ROOT
ATOM      1  C   UNL     1       4.853   5.488  18.608  0.00  0.00    +0.000 C 
ATOM      2  C   UNL     1       3.878   6.412  18.791  0.00  0.00    +0.000 C 
ATOM      3  C   UNL     1       2.793   6.067  19.794  0.00  0.00    +0.000 C 
ATOM      4  O   UNL     1       2.222   6.938  20.447  0.00  0.00    +0.000 OA
ATOM      5  C   UNL     1       2.386   4.648  19.940  0.00  0.00    +0.000 C 
ATOM      6  C   UNL     1       1.027   4.428  20.525  0.00  0.00    +0.000 C 
ATOM      7  C   UNL     1       3.238   3.686  19.558  0.00  0.00    +0.000 C 
ATOM      8  C   UNL     1       4.631   4.137  19.203  0.00  0.00    +0.000 C 
ATOM      9  O   UNL     1       5.548   3.343  19.385  0.00  0.00    +0.000 OA
ENDROOT
BRANCH   2  10
ATOM     10  N   UNL     1       3.630   7.630  18.165  0.00  0.00    +0.000 N 
ATOM     11  C   UNL     1       2.366   8.238  17.838  0.00  0.00    +0.000 C 
ATOM     12  C   UNL     1       3.228   7.626  16.760  0.00  0.00    +0.000 C 
ENDBRANCH   2  10
BRANCH   7  13
ATOM     13  N   UNL     1       3.097   2.305  19.465  0.00  0.00    +0.000 N 
ATOM     14  C   UNL     1       1.987   1.798  18.656  0.00  0.00    +0.000 C 
ATOM     15  C   UNL     1       3.422   1.456  18.345  0.00  0.00    +0.000 C 
ENDBRANCH   7  13
BRANCH   1  16
ATOM     16  C   UNL     1       6.152   5.692  17.824  0.00  0.00    +0.000 C 
BRANCH  16  17
ATOM     17  O   UNL     1       6.920   6.794  18.367  0.00  0.00    +0.000 OA
BRANCH  17  19
ATOM     18  C   UNL     1       8.291   8.735  18.152  0.00  0.00    +0.000 C 
ATOM     19  C   UNL     1       7.496   7.678  17.409  0.00  0.00    +0.000 C 
ENDBRANCH  17  19
ENDBRANCH  16  17
BRANCH  16  20
ATOM     20  C   UNL     1       6.187   5.762  16.258  0.00  0.00    +0.000 C 
BRANCH  20  21
ATOM     21  O   UNL     1       6.099   4.530  15.516  0.00  0.00    +0.000 OA
BRANCH  21  22
ATOM     22  C   UNL     1       6.657   4.434  14.307  0.00  0.00    +0.000 C 
ATOM     23  N   UNL     1       7.608   5.391  14.172  0.00  0.00    +0.000 N 
ATOM     24  O   UNL     1       6.346   3.660  13.424  0.00  0.00    +0.000 OA
ATOM     25  H   UNL     1       7.623   6.129  14.861  0.00  0.00    +0.000 HD
ATOM     26  H   UNL     1       8.025   5.532  13.266  0.00  0.00    +0.000 HD
ENDBRANCH  21  22
ENDBRANCH  20  21
ENDBRANCH  16  20
ENDBRANCH   1  16
TORSDOF 8
ENDMDL
MODEL 6
REMARK VINA RESULT:      -6.4      1.512      2.691
REMARK  Name = 
REMARK  10 active torsions:
REMARK  status: ('A' for Active; 'I' for Inactive)
REMARK    1  A    between atoms: C_1  and  C_2
REMARK    2  A    between atoms: C_2  and  O_3
REMARK    3  A    between atoms: O_3  and  C_4
REMARK    4  A    between atoms: C_4  and  C_5
REMARK    5  A    between atoms: C_4  and  C_10
REMARK    6  A    between atoms: C_5  and  O_6
REMARK    7  A    between atoms: O_6  and  C_7
REMARK    8  A    between atoms: C_11  and  N_12
REMARK    9  A    between atoms: C_17  and  C_18
REMARK   10  A    between atoms: C_19  and  N_20
REMARK                            x       y       z     vdW  Elec       q    Type
REMARK                         _______ _______ _______ _____ _____    ______ ____
ROOT
ATOM      1  C   UNL     1       4.491   5.792  17.837  0.00  0.00    +0.000 C 
ATOM      2  C   UNL     1       3.474   6.637  18.135  0.00  0.00    +0.000 C 
ATOM      3  C   UNL     1       2.720   6.367  19.424  0.00  0.00    +0.000 C 
ATOM      4  O   UNL     1       2.212   7.279  20.074  0.00  0.00    +0.000 OA
ATOM      5  C   UNL     1       2.555   4.961  19.868  0.00  0.00    +0.000 C 
ATOM      6  C   UNL     1       1.420   4.717  20.811  0.00  0.00    +0.000 C 
ATOM      7  C   UNL     1       3.411   4.033  19.417  0.00  0.00    +0.000 C 
ATOM      8  C   UNL     1       4.603   4.547  18.653  0.00  0.00    +0.000 C 
ATOM      9  O   UNL     1       5.634   3.886  18.700  0.00  0.00    +0.000 OA
ENDROOT
BRANCH   2  10
ATOM     10  N   UNL     1       2.920   7.703  17.431  0.00  0.00    +0.000 N 
ATOM     11  C   UNL     1       2.805   9.084  17.823  0.00  0.00    +0.000 C 
ATOM     12  C   UNL     1       1.595   8.182  17.816  0.00  0.00    +0.000 C 
ENDBRANCH   2  10
BRANCH   7  13
ATOM     13  N   UNL     1       3.438   2.650  19.559  0.00  0.00    +0.000 N 
ATOM     14  C   UNL     1       2.231   1.914  19.178  0.00  0.00    +0.000 C 
ATOM     15  C   UNL     1       3.563   1.656  18.520  0.00  0.00    +0.000 C 
ENDBRANCH   7  13
BRANCH   1  16
ATOM     16  C   UNL     1       5.522   5.982  16.722  0.00  0.00    +0.000 C 
BRANCH  16  17
ATOM     17  O   UNL     1       5.506   4.865  15.801  0.00  0.00    +0.000 OA
BRANCH  17  19
ATOM     18  C   UNL     1       6.015   3.896  13.680  0.00  0.00    +0.000 C 
ATOM     19  C   UNL     1       6.388   4.968  14.686  0.00  0.00    +0.000 C 
ENDBRANCH  17  19
ENDBRANCH  16  17
BRANCH  16  20
ATOM     20  C   UNL     1       7.008   6.390  17.011  0.00  0.00    +0.000 C 
BRANCH  20  21
ATOM     21  O   UNL     1       7.335   7.792  17.071  0.00  0.00    +0.000 OA
BRANCH  21  22
ATOM     22  C   UNL     1       8.085   8.265  18.068  0.00  0.00    +0.000 C 
ATOM     23  N   UNL     1       8.413   7.250  18.905  0.00  0.00    +0.000 N 
ATOM     24  O   UNL     1       8.394   9.425  18.257  0.00  0.00    +0.000 OA
ATOM     25  H   UNL     1       7.913   6.380  18.796  0.00  0.00    +0.000 HD
ATOM     26  H   UNL     1       8.865   7.471  19.779  0.00  0.00    +0.000 HD
ENDBRANCH  21  22
ENDBRANCH  20  21
ENDBRANCH  16  20
ENDBRANCH   1  16
TORSDOF 8
ENDMDL
MODEL 7
REMARK VINA RESULT:      -6.3      1.498      2.548
REMARK  Name = 
REMARK  10 active torsions:
REMARK  status: ('A' for Active; 'I' for Inactive)
REMARK    1  A    between atoms: C_1  and  C_2
REMARK    2  A    between atoms: C_2  and  O_3
REMARK    3  A    between atoms: O_3  and  C_4
REMARK    4  A    between atoms: C_4  and  C_5
REMARK    5  A    between atoms: C_4  and  C_10
REMARK    6  A    between atoms: C_5  and  O_6
REMARK    7  A    between atoms: O_6  and  C_7
REMARK    8  A    between atoms: C_11  and  N_12
REMARK    9  A    between atoms: C_17  and  C_18
REMARK   10  A    between atoms: C_19  and  N_20
REMARK                            x       y       z     vdW  Elec       q    Type
REMARK                         _______ _______ _______ _____ _____    ______ ____
ROOT
ATOM      1  C   UNL     1       4.510   5.576  18.763  0.00  0.00    +0.000 C 
ATOM      2  C   UNL     1       3.473   6.402  19.043  0.00  0.00    +0.000 C 
ATOM      3  C   UNL     1       2.441   5.888  20.030  0.00  0.00    +0.000 C 
ATOM      4  O   UNL     1       1.821   6.653  20.768  0.00  0.00    +0.000 OA
ATOM      5  C   UNL     1       2.148   4.434  20.058  0.00  0.00    +0.000 C 
ATOM      6  C   UNL     1       0.824   4.060  20.645  0.00  0.00    +0.000 C 
ATOM      7  C   UNL     1       3.061   3.579  19.578  0.00  0.00    +0.000 C 
ATOM      8  C   UNL     1       4.406   4.166  19.241  0.00  0.00    +0.000 C 
ATOM      9  O   UNL     1       5.385   3.434  19.336  0.00  0.00    +0.000 OA
ENDROOT
BRANCH   2  10
ATOM     10  N   UNL     1       3.117   7.647  18.531  0.00  0.00    +0.000 N 
ATOM     11  C   UNL     1       1.886   8.047  17.899  0.00  0.00    +0.000 C 
ATOM     12  C   UNL     1       3.139   7.840  17.083  0.00  0.00    +0.000 C 
ENDBRANCH   2  10
BRANCH   7  13
ATOM     13  N   UNL     1       3.023   2.205  19.367  0.00  0.00    +0.000 N 
ATOM     14  C   UNL     1       1.988   1.693  18.466  0.00  0.00    +0.000 C 
ATOM     15  C   UNL     1       3.456   1.477  18.198  0.00  0.00    +0.000 C 
ENDBRANCH   7  13
BRANCH   1  16
ATOM     16  C   UNL     1       5.771   5.949  17.978  0.00  0.00    +0.000 C 
BRANCH  16  17
ATOM     17  O   UNL     1       5.686   5.489  16.607  0.00  0.00    +0.000 OA
BRANCH  17  19
ATOM     18  C   UNL     1       6.574   4.293  14.742  0.00  0.00    +0.000 C 
ATOM     19  C   UNL     1       6.573   4.431  16.253  0.00  0.00    +0.000 C 
ENDBRANCH  17  19
ENDBRANCH  16  17
BRANCH  16  20
ATOM     20  C   UNL     1       7.215   5.674  18.525  0.00  0.00    +0.000 C 
BRANCH  20  21
ATOM     21  O   UNL     1       8.043   6.802  18.868  0.00  0.00    +0.000 OA
BRANCH  21  22
ATOM     22  C   UNL     1       8.105   7.860  18.059  0.00  0.00    +0.000 C 
ATOM     23  N   UNL     1       7.904   7.461  16.779  0.00  0.00    +0.000 N 
ATOM     24  O   UNL     1       8.357   9.005  18.379  0.00  0.00    +0.000 OA
ATOM     25  H   UNL     1       7.945   6.470  16.591  0.00  0.00    +0.000 HD
ATOM     26  H   UNL     1       8.054   8.126  16.036  0.00  0.00    +0.000 HD
ENDBRANCH  21  22
ENDBRANCH  20  21
ENDBRANCH  16  20
ENDBRANCH   1  16
TORSDOF 8
ENDMDL
MODEL 8
REMARK VINA RESULT:      -6.3      1.911      4.236
REMARK  Name = 
REMARK  10 active torsions:
REMARK  status: ('A' for Active; 'I' for Inactive)
REMARK    1  A    between atoms: C_1  and  C_2
REMARK    2  A    between atoms: C_2  and  O_3
REMARK    3  A    between atoms: O_3  and  C_4
REMARK    4  A    between atoms: C_4  and  C_5
REMARK    5  A    between atoms: C_4  and  C_10
REMARK    6  A    between atoms: C_5  and  O_6
REMARK    7  A    between atoms: O_6  and  C_7
REMARK    8  A    between atoms: C_11  and  N_12
REMARK    9  A    between atoms: C_17  and  C_18
REMARK   10  A    between atoms: C_19  and  N_20
REMARK                            x       y       z     vdW  Elec       q    Type
REMARK                         _______ _______ _______ _____ _____    ______ ____
ROOT
ATOM      1  C   UNL     1       3.923   5.787  17.572  0.00  0.00    +0.000 C 
ATOM      2  C   UNL     1       3.537   4.535  17.920  0.00  0.00    +0.000 C 
ATOM      3  C   UNL     1       2.207   4.410  18.641  0.00  0.00    +0.000 C 
ATOM      4  O   UNL     1       1.502   3.410  18.517  0.00  0.00    +0.000 OA
ATOM      5  C   UNL     1       1.787   5.503  19.551  0.00  0.00    +0.000 C 
ATOM      6  C   UNL     1       0.775   5.122  20.584  0.00  0.00    +0.000 C 
ATOM      7  C   UNL     1       2.317   6.723  19.388  0.00  0.00    +0.000 C 
ATOM      8  C   UNL     1       3.147   6.924  18.148  0.00  0.00    +0.000 C 
ATOM      9  O   UNL     1       3.187   8.052  17.668  0.00  0.00    +0.000 OA
ENDROOT
BRANCH   2  10
ATOM     10  N   UNL     1       4.176   3.304  17.806  0.00  0.00    +0.000 N 
ATOM     11  C   UNL     1       3.695   1.997  18.174  0.00  0.00    +0.000 C 
ATOM     12  C   UNL     1       4.743   2.695  19.007  0.00  0.00    +0.000 C 
ENDBRANCH   2  10
BRANCH   7  13
ATOM     13  N   UNL     1       2.210   7.888  20.140  0.00  0.00    +0.000 N 
ATOM     14  C   UNL     1       1.105   8.794  19.820  0.00  0.00    +0.000 C 
ATOM     15  C   UNL     1       1.262   8.180  21.188  0.00  0.00    +0.000 C 
ENDBRANCH   7  13
BRANCH   1  16
ATOM     16  C   UNL     1       5.101   6.144  16.661  0.00  0.00    +0.000 C 
BRANCH  16  17
ATOM     17  O   UNL     1       5.574   4.981  15.941  0.00  0.00    +0.000 OA
BRANCH  17  19
ATOM     18  C   UNL     1       6.306   3.868  13.960  0.00  0.00    +0.000 C 
ATOM     19  C   UNL     1       5.677   5.127  14.527  0.00  0.00    +0.000 C 
ENDBRANCH  17  19
ENDBRANCH  16  17
BRANCH  16  20
ATOM     20  C   UNL     1       6.332   6.975  17.166  0.00  0.00    +0.000 C 
BRANCH  20  21
ATOM     21  O   UNL     1       7.570   6.282  17.415  0.00  0.00    +0.000 OA
BRANCH  21  22
ATOM     22  C   UNL     1       7.616   5.287  18.303  0.00  0.00    +0.000 C 
ATOM     23  N   UNL     1       8.047   4.157  17.692  0.00  0.00    +0.000 N 
ATOM     24  O   UNL     1       7.278   5.339  19.469  0.00  0.00    +0.000 OA
ATOM     25  H   UNL     1       8.069   4.156  16.682  0.00  0.00    +0.000 HD
ATOM     26  H   UNL     1       8.007   3.287  18.200  0.00  0.00    +0.000 HD
ENDBRANCH  21  22
ENDBRANCH  20  21
ENDBRANCH  16  20
ENDBRANCH   1  16
TORSDOF 8
ENDMDL
MODEL 9
REMARK VINA RESULT:      -6.2      2.040      4.488
REMARK  Name = 
REMARK  10 active torsions:
REMARK  status: ('A' for Active; 'I' for Inactive)
REMARK    1  A    between atoms: C_1  and  C_2
REMARK    2  A    between atoms: C_2  and  O_3
REMARK    3  A    between atoms: O_3  and  C_4
REMARK    4  A    between atoms: C_4  and  C_5
REMARK    5  A    between atoms: C_4  and  C_10
REMARK    6  A    between atoms: C_5  and  O_6
REMARK    7  A    between atoms: O_6  and  C_7
REMARK    8  A    between atoms: C_11  and  N_12
REMARK    9  A    between atoms: C_17  and  C_18
REMARK   10  A    between atoms: C_19  and  N_20
REMARK                            x       y       z     vdW  Elec       q    Type
REMARK                         _______ _______ _______ _____ _____    ______ ____
ROOT
ATOM      1  C   UNL     1       4.154   4.841  17.571  0.00  0.00    +0.000 C 
ATOM      2  C   UNL     1       3.596   3.704  18.053  0.00  0.00    +0.000 C 
ATOM      3  C   UNL     1       2.218   3.834  18.677  0.00  0.00    +0.000 C 
ATOM      4  O   UNL     1       1.404   2.913  18.634  0.00  0.00    +0.000 OA
ATOM      5  C   UNL     1       1.880   5.087  19.395  0.00  0.00    +0.000 C 
ATOM      6  C   UNL     1       0.767   4.975  20.388  0.00  0.00    +0.000 C 
ATOM      7  C   UNL     1       2.566   6.203  19.112  0.00  0.00    +0.000 C 
ATOM      8  C   UNL     1       3.490   6.130  17.925  0.00  0.00    +0.000 C 
ATOM      9  O   UNL     1       3.698   7.165  17.302  0.00  0.00    +0.000 OA
ENDROOT
BRANCH   2  10
ATOM     10  N   UNL     1       4.084   2.405  18.156  0.00  0.00    +0.000 N 
ATOM     11  C   UNL     1       3.435   1.233  18.687  0.00  0.00    +0.000 C 
ATOM     12  C   UNL     1       4.529   1.926  19.462  0.00  0.00    +0.000 C 
ENDBRANCH   2  10
BRANCH   7  13
ATOM     13  N   UNL     1       2.557   7.468  19.690  0.00  0.00    +0.000 N 
ATOM     14  C   UNL     1       1.592   8.437  19.166  0.00  0.00    +0.000 C 
ATOM     15  C   UNL     1       1.590   8.013  20.613  0.00  0.00    +0.000 C 
ENDBRANCH   7  13
BRANCH   1  16
ATOM     16  C   UNL     1       5.422   4.929  16.716  0.00  0.00    +0.000 C 
BRANCH  16  17
ATOM     17  O   UNL     1       5.397   3.951  15.647  0.00  0.00    +0.000 OA
BRANCH  17  19
ATOM     18  C   UNL     1       6.586   4.021  13.579  0.00  0.00    +0.000 C 
ATOM     19  C   UNL     1       5.348   4.481  14.325  0.00  0.00    +0.000 C 
ENDBRANCH  17  19
ENDBRANCH  16  17
BRANCH  16  20
ATOM     20  C   UNL     1       6.858   4.971  17.343  0.00  0.00    +0.000 C 
BRANCH  20  21
ATOM     21  O   UNL     1       7.737   6.050  16.969  0.00  0.00    +0.000 OA
BRANCH  21  22
ATOM     22  C   UNL     1       7.723   7.195  17.653  0.00  0.00    +0.000 C 
ATOM     23  N   UNL     1       8.271   6.995  18.877  0.00  0.00    +0.000 N 
ATOM     24  O   UNL     1       7.251   8.253  17.288  0.00  0.00    +0.000 OA
ATOM     25  H   UNL     1       8.410   6.040  19.172  0.00  0.00    +0.000 HD
ATOM     26  H   UNL     1       8.210   7.734  19.560  0.00  0.00    +0.000 HD
ENDBRANCH  21  22
ENDBRANCH  20  21
ENDBRANCH  16  20
ENDBRANCH   1  16
TORSDOF 8
ENDMDL
