MODEL 1
REMARK VINA RESULT:      -8.5      0.000      0.000
REMARK  Name = 
REMARK  8 active torsions:
REMARK  status: ('A' for Active; 'I' for Inactive)
REMARK    1  A    between atoms: C_1  and  O_2
REMARK    2  A    between atoms: O_2  and  C_3
REMARK    3  A    between atoms: C_6  and  C_7
REMARK    4  A    between atoms: C_7  and  N_8
REMARK    5  A    between atoms: N_8  and  C_9
REMARK    6  A    between atoms: C_16  and  C_17
REMARK    7  A    between atoms: C_24  and  O_25
REMARK    8  A    between atoms: O_25  and  C_26
REMARK                            x       y       z     vdW  Elec       q    Type
REMARK                         _______ _______ _______ _____ _____    ______ ____
ROOT
ATOM      1  C   UNL     1       4.742   6.451  18.007  0.00  0.00    +0.000 C 
ATOM      2  C   UNL     1       5.631   6.710  16.761  0.00  0.00    +0.000 C 
ATOM      3  C   UNL     1       7.100   6.657  17.218  0.00  0.00    +0.000 C 
ATOM      4  C   UNL     1       7.386   5.305  17.894  0.00  0.00    +0.000 C 
ATOM      5  N   UNL     1       6.235   4.376  17.767  0.00  0.00    +0.000 NA
ATOM      6  C   UNL     1       5.955   4.263  16.320  0.00  0.00    +0.000 C 
ATOM      7  C   UNL     1       5.425   5.582  15.736  0.00  0.00    +0.000 C 
ATOM      8  C   UNL     1       5.069   4.971  18.514  0.00  0.00    +0.000 C 
ENDROOT
BRANCH   8   9
ATOM      9  C   UNL     1       3.881   4.002  18.688  0.00  0.00    +0.000 A 
ATOM     10  C   UNL     1       3.459   3.215  17.599  0.00  0.00    +0.000 A 
ATOM     11  C   UNL     1       2.405   2.301  17.725  0.00  0.00    +0.000 A 
ATOM     12  C   UNL     1       1.738   2.160  18.940  0.00  0.00    +0.000 A 
ATOM     13  C   UNL     1       2.138   2.924  20.027  0.00  0.00    +0.000 A 
ATOM     14 CL   UNL     1       1.333   2.764  21.538  0.00  0.00    +0.000 Cl
ATOM     15  C   UNL     1       3.203   3.822  19.906  0.00  0.00    +0.000 A 
ENDBRANCH   8   9
BRANCH   1  16
ATOM     16  N   UNL     1       3.315   6.676  17.783  0.00  0.00    +0.000 NA
ATOM     17  H   UNL     1       3.057   6.290  16.879  0.00  0.00    +0.000 HD
BRANCH  16  18
ATOM     18  C   UNL     1       2.832   8.058  17.835  0.00  0.00    +0.000 C 
BRANCH  18  22
ATOM     19  C   UNL     1       0.387   8.747  21.360  0.00  0.00    +0.000 A 
ATOM     20  C   UNL     1       1.086   7.554  21.216  0.00  0.00    +0.000 A 
ATOM     21  C   UNL     1       1.895   7.350  20.105  0.00  0.00    +0.000 A 
ATOM     22  C   UNL     1       2.009   8.323  19.085  0.00  0.00    +0.000 A 
ATOM     23  C   UNL     1       1.315   9.538  19.246  0.00  0.00    +0.000 A 
ATOM     24  C   UNL     1       0.513   9.734  20.383  0.00  0.00    +0.000 A 
BRANCH  19  26
ATOM     25  C   UNL     1      -0.651  10.133  22.984  0.00  0.00    +0.000 C 
ATOM     26  O   UNL     1      -0.375   8.827  22.491  0.00  0.00    +0.000 OA
ENDBRANCH  19  26
BRANCH  23  27
ATOM     27  O   UNL     1       1.459  10.467  18.243  0.00  0.00    +0.000 OA
ATOM     28  C   UNL     1       1.517  11.835  18.635  0.00  0.00    +0.000 C 
ENDBRANCH  23  27
ENDBRANCH  18  22
ENDBRANCH  16  18
ENDBRANCH   1  16
TORSDOF 6
ENDMDL
MODEL 2
REMARK VINA RESULT:      -8.3      2.104      4.134
REMARK  Name = 
REMARK  8 active torsions:
REMARK  status: ('A' for Active; 'I' for Inactive)
REMARK    1  A    between atoms: C_1  and  O_2
REMARK    2  A    between atoms: O_2  and  C_3
REMARK    3  A    between atoms: C_6  and  C_7
REMARK    4  A    between atoms: C_7  and  N_8
REMARK    5  A    between atoms: N_8  and  C_9
REMARK    6  A    between atoms: C_16  and  C_17
REMARK    7  A    between atoms: C_24  and  O_25
REMARK    8  A    between atoms: O_25  and  C_26
REMARK                            x       y       z     vdW  Elec       q    Type
REMARK                         _______ _______ _______ _____ _____    ______ ____
ROOT
ATOM      1  C   UNL     1       1.849   5.373  19.567  0.00  0.00    +0.000 C 
ATOM      2  C   UNL     1       1.477   4.338  20.663  0.00  0.00    +0.000 C 
ATOM      3  C   UNL     1       0.671   3.214  19.987  0.00  0.00    +0.000 C 
ATOM      4  C   UNL     1       1.490   2.606  18.835  0.00  0.00    +0.000 C 
ATOM      5  N   UNL     1       2.873   3.146  18.804  0.00  0.00    +0.000 NA
ATOM      6  C   UNL     1       3.449   2.879  20.140  0.00  0.00    +0.000 C 
ATOM      7  C   UNL     1       2.760   3.708  21.234  0.00  0.00    +0.000 C 
ATOM      8  C   UNL     1       2.794   4.622  18.518  0.00  0.00    +0.000 C 
ENDROOT
BRANCH   8   9
ATOM      9  C   UNL     1       4.158   5.270  18.201  0.00  0.00    +0.000 A 
ATOM     10  C   UNL     1       4.303   6.059  17.043  0.00  0.00    +0.000 A 
ATOM     11  C   UNL     1       5.515   6.690  16.738  0.00  0.00    +0.000 A 
ATOM     12  C   UNL     1       6.618   6.538  17.575  0.00  0.00    +0.000 A 
ATOM     13  C   UNL     1       6.497   5.768  18.723  0.00  0.00    +0.000 A 
ATOM     14 CL   UNL     1       7.843   5.570  19.775  0.00  0.00    +0.000 Cl
ATOM     15  C   UNL     1       5.281   5.154  19.038  0.00  0.00    +0.000 A 
ENDBRANCH   8   9
BRANCH   1  16
ATOM     16  N   UNL     1       2.437   6.608  20.083  0.00  0.00    +0.000 NA
ATOM     17  H   UNL     1       2.237   6.680  21.076  0.00  0.00    +0.000 HD
BRANCH  16  18
ATOM     18  C   UNL     1       2.030   7.865  19.451  0.00  0.00    +0.000 C 
BRANCH  18  22
ATOM     19  C   UNL     1      -0.388  10.252  22.160  0.00  0.00    +0.000 A 
ATOM     20  C   UNL     1       0.503   9.311  22.663  0.00  0.00    +0.000 A 
ATOM     21  C   UNL     1       1.300   8.574  21.796  0.00  0.00    +0.000 A 
ATOM     22  C   UNL     1       1.212   8.733  20.394  0.00  0.00    +0.000 A 
ATOM     23  C   UNL     1       0.322   9.702  19.891  0.00  0.00    +0.000 A 
ATOM     24  C   UNL     1      -0.466  10.450  20.781  0.00  0.00    +0.000 A 
BRANCH  19  26
ATOM     25  C   UNL     1      -1.222  12.322  22.970  0.00  0.00    +0.000 C 
ATOM     26  O   UNL     1      -1.118  10.909  23.109  0.00  0.00    +0.000 OA
ENDBRANCH  19  26
BRANCH  23  27
ATOM     27  O   UNL     1       0.272   9.841  18.524  0.00  0.00    +0.000 OA
ATOM     28  C   UNL     1      -0.963  10.279  17.966  0.00  0.00    +0.000 C 
ENDBRANCH  23  27
ENDBRANCH  18  22
ENDBRANCH  16  18
ENDBRANCH   1  16
TORSDOF 6
ENDMDL
MODEL 3
REMARK VINA RESULT:      -8.2      2.266      4.181
REMARK  Name = 
REMARK  8 active torsions:
REMARK  status: ('A' for Active; 'I' for Inactive)
REMARK    1  A    between atoms: C_1  and  O_2
REMARK    2  A    between atoms: O_2  and  C_3
REMARK    3  A    between atoms: C_6  and  C_7
REMARK    4  A    between atoms: C_7  and  N_8
REMARK    5  A    between atoms: N_8  and  C_9
REMARK    6  A    between atoms: C_16  and  C_17
REMARK    7  A    between atoms: C_24  and  O_25
REMARK    8  A    between atoms: O_25  and  C_26
REMARK                            x       y       z     vdW  Elec       q    Type
REMARK                         _______ _______ _______ _____ _____    ______ ____
ROOT
ATOM      1  C   UNL     1       2.061   5.175  18.970  0.00  0.00    +0.000 C 
ATOM      2  C   UNL     1       1.423   4.494  20.211  0.00  0.00    +0.000 C 
ATOM      3  C   UNL     1       0.610   3.286  19.712  0.00  0.00    +0.000 C 
ATOM      4  C   UNL     1       1.520   2.343  18.906  0.00  0.00    +0.000 C 
ATOM      5  N   UNL     1       2.942   2.764  18.977  0.00  0.00    +0.000 NA
ATOM      6  C   UNL     1       3.283   2.823  20.414  0.00  0.00    +0.000 C 
ATOM      7  C   UNL     1       2.532   3.956  21.131  0.00  0.00    +0.000 C 
ATOM      8  C   UNL     1       3.064   4.113  18.319  0.00  0.00    +0.000 C 
ENDROOT
BRANCH   8   9
ATOM      9  C   UNL     1       4.522   4.564  18.088  0.00  0.00    +0.000 A 
ATOM     10  C   UNL     1       5.283   5.046  19.170  0.00  0.00    +0.000 A 
ATOM     11  C   UNL     1       6.618   5.435  19.007  0.00  0.00    +0.000 A 
ATOM     12  C   UNL     1       7.223   5.364  17.755  0.00  0.00    +0.000 A 
ATOM     13  C   UNL     1       6.493   4.891  16.674  0.00  0.00    +0.000 A 
ATOM     14 CL   UNL     1       7.220   4.790  15.118  0.00  0.00    +0.000 Cl
ATOM     15  C   UNL     1       5.165   4.484  16.841  0.00  0.00    +0.000 A 
ENDBRANCH   8   9
BRANCH   1  16
ATOM     16  N   UNL     1       2.695   6.462  19.252  0.00  0.00    +0.000 NA
ATOM     17  H   UNL     1       2.808   6.563  20.256  0.00  0.00    +0.000 HD
BRANCH  16  18
ATOM     18  C   UNL     1       2.030   7.667  18.751  0.00  0.00    +0.000 C 
BRANCH  18  22
ATOM     19  C   UNL     1       0.346  10.010  22.000  0.00  0.00    +0.000 A 
ATOM     20  C   UNL     1       1.144   8.906  22.275  0.00  0.00    +0.000 A 
ATOM     21  C   UNL     1       1.711   8.180  21.235  0.00  0.00    +0.000 A 
ATOM     22  C   UNL     1       1.472   8.516  19.883  0.00  0.00    +0.000 A 
ATOM     23  C   UNL     1       0.679   9.647  19.610  0.00  0.00    +0.000 A 
ATOM     24  C   UNL     1       0.127  10.380  20.673  0.00  0.00    +0.000 A 
BRANCH  19  26
ATOM     25  C   UNL     1      -1.425  11.266  22.960  0.00  0.00    +0.000 C 
ATOM     26  O   UNL     1      -0.155  10.639  23.104  0.00  0.00    +0.000 OA
ENDBRANCH  19  26
BRANCH  23  27
ATOM     27  O   UNL     1       0.480   9.954  18.285  0.00  0.00    +0.000 OA
ATOM     28  C   UNL     1      -0.864  10.185  17.872  0.00  0.00    +0.000 C 
ENDBRANCH  23  27
ENDBRANCH  18  22
ENDBRANCH  16  18
ENDBRANCH   1  16
TORSDOF 6
ENDMDL
MODEL 4
REMARK VINA RESULT:      -8.1      3.260      7.073
REMARK  Name = 
REMARK  8 active torsions:
REMARK  status: ('A' for Active; 'I' for Inactive)
REMARK    1  A    between atoms: C_1  and  O_2
REMARK    2  A    between atoms: O_2  and  C_3
REMARK    3  A    between atoms: C_6  and  C_7
REMARK    4  A    between atoms: C_7  and  N_8
REMARK    5  A    between atoms: N_8  and  C_9
REMARK    6  A    between atoms: C_16  and  C_17
REMARK    7  A    between atoms: C_24  and  O_25
REMARK    8  A    between atoms: O_25  and  C_26
REMARK                            x       y       z     vdW  Elec       q    Type
REMARK                         _______ _______ _______ _____ _____    ______ ____
ROOT
ATOM      1  C   UNL     1       3.751   4.623  20.073  0.00  0.00    +0.000 C 
ATOM      2  C   UNL     1       3.345   3.190  19.636  0.00  0.00    +0.000 C 
ATOM      3  C   UNL     1       2.696   2.500  20.848  0.00  0.00    +0.000 C 
ATOM      4  C   UNL     1       1.507   3.338  21.349  0.00  0.00    +0.000 C 
ATOM      5  N   UNL     1       1.214   4.471  20.435  0.00  0.00    +0.000 NA
ATOM      6  C   UNL     1       0.993   3.877  19.099  0.00  0.00    +0.000 C 
ATOM      7  C   UNL     1       2.283   3.270  18.525  0.00  0.00    +0.000 C 
ATOM      8  C   UNL     1       2.402   5.397  20.443  0.00  0.00    +0.000 C 
ENDROOT
BRANCH   8   9
ATOM      9  C   UNL     1       2.144   6.748  19.742  0.00  0.00    +0.000 A 
ATOM     10  C   UNL     1       2.422   6.884  18.368  0.00  0.00    +0.000 A 
ATOM     11  C   UNL     1       2.172   8.083  17.689  0.00  0.00    +0.000 A 
ATOM     12  C   UNL     1       1.649   9.181  18.369  0.00  0.00    +0.000 A 
ATOM     13  C   UNL     1       1.366   9.068  19.723  0.00  0.00    +0.000 A 
ATOM     14 CL   UNL     1       0.716  10.409  20.583  0.00  0.00    +0.000 Cl
ATOM     15  C   UNL     1       1.597   7.865  20.396  0.00  0.00    +0.000 A 
ENDBRANCH   8   9
BRANCH   1  16
ATOM     16  N   UNL     1       4.571   5.339  19.097  0.00  0.00    +0.000 NA
ATOM     17  H   UNL     1       4.049   5.432  18.230  0.00  0.00    +0.000 HD
BRANCH  16  18
ATOM     18  C   UNL     1       5.882   4.774  18.772  0.00  0.00    +0.000 C 
BRANCH  18  22
ATOM     19  C   UNL     1       6.545   4.341  14.499  0.00  0.00    +0.000 A 
ATOM     20  C   UNL     1       5.530   3.628  15.125  0.00  0.00    +0.000 A 
ATOM     21  C   UNL     1       5.297   3.795  16.484  0.00  0.00    +0.000 A 
ATOM     22  C   UNL     1       6.093   4.660  17.270  0.00  0.00    +0.000 A 
ATOM     23  C   UNL     1       7.106   5.396  16.627  0.00  0.00    +0.000 A 
ATOM     24  C   UNL     1       7.319   5.228  15.249  0.00  0.00    +0.000 A 
BRANCH  19  26
ATOM     25  C   UNL     1       5.563   3.487  12.514  0.00  0.00    +0.000 C 
ATOM     26  O   UNL     1       6.678   4.090  13.163  0.00  0.00    +0.000 OA
ENDBRANCH  19  26
BRANCH  23  27
ATOM     27  O   UNL     1       7.851   6.238  17.418  0.00  0.00    +0.000 OA
ATOM     28  C   UNL     1       7.497   7.618  17.403  0.00  0.00    +0.000 C 
ENDBRANCH  23  27
ENDBRANCH  18  22
ENDBRANCH  16  18
ENDBRANCH   1  16
TORSDOF 6
ENDMDL
MODEL 5
REMARK VINA RESULT:      -8.1      1.907      3.864
REMARK  Name = 
REMARK  8 active torsions:
REMARK  status: ('A' for Active; 'I' for Inactive)
REMARK    1  A    between atoms: C_1  and  O_2
REMARK    2  A    between atoms: O_2  and  C_3
REMARK    3  A    between atoms: C_6  and  C_7
REMARK    4  A    between atoms: C_7  and  N_8
REMARK    5  A    between atoms: N_8  and  C_9
REMARK    6  A    between atoms: C_16  and  C_17
REMARK    7  A    between atoms: C_24  and  O_25
REMARK    8  A    between atoms: O_25  and  C_26
REMARK                            x       y       z     vdW  Elec       q    Type
REMARK                         _______ _______ _______ _____ _____    ______ ____
ROOT
ATOM      1  C   UNL     1       2.666   5.697  18.079  0.00  0.00    +0.000 C 
ATOM      2  C   UNL     1       1.864   4.759  19.020  0.00  0.00    +0.000 C 
ATOM      3  C   UNL     1       1.421   3.539  18.194  0.00  0.00    +0.000 C 
ATOM      4  C   UNL     1       2.651   2.859  17.569  0.00  0.00    +0.000 C 
ATOM      5  N   UNL     1       3.917   3.455  18.067  0.00  0.00    +0.000 NA
ATOM      6  C   UNL     1       3.870   3.348  19.541  0.00  0.00    +0.000 C 
ATOM      7  C   UNL     1       2.781   4.248  20.145  0.00  0.00    +0.000 C 
ATOM      8  C   UNL     1       3.967   4.891  17.616  0.00  0.00    +0.000 C 
ENDROOT
BRANCH   8   9
ATOM      9  C   UNL     1       5.336   5.567  17.837  0.00  0.00    +0.000 A 
ATOM     10  C   UNL     1       5.742   6.614  16.986  0.00  0.00    +0.000 A 
ATOM     11  C   UNL     1       6.963   7.273  17.173  0.00  0.00    +0.000 A 
ATOM     12  C   UNL     1       7.816   6.895  18.208  0.00  0.00    +0.000 A 
ATOM     13  C   UNL     1       7.435   5.868  19.060  0.00  0.00    +0.000 A 
ATOM     14 CL   UNL     1       8.469   5.386  20.347  0.00  0.00    +0.000 Cl
ATOM     15  C   UNL     1       6.207   5.222  18.884  0.00  0.00    +0.000 A 
ENDBRANCH   8   9
BRANCH   1  16
ATOM     16  N   UNL     1       2.979   7.003  18.658  0.00  0.00    +0.000 NA
ATOM     17  H   UNL     1       3.029   6.914  19.668  0.00  0.00    +0.000 HD
BRANCH  16  18
ATOM     18  C   UNL     1       2.075   8.113  18.350  0.00  0.00    +0.000 C 
BRANCH  18  22
ATOM     19  C   UNL     1       0.552  10.049  21.930  0.00  0.00    +0.000 A 
ATOM     20  C   UNL     1       0.887   8.700  21.953  0.00  0.00    +0.000 A 
ATOM     21  C   UNL     1       1.407   8.092  20.817  0.00  0.00    +0.000 A 
ATOM     22  C   UNL     1       1.581   8.807  19.610  0.00  0.00    +0.000 A 
ATOM     23  C   UNL     1       1.259  10.177  19.598  0.00  0.00    +0.000 A 
ATOM     24  C   UNL     1       0.749  10.781  20.759  0.00  0.00    +0.000 A 
BRANCH  19  26
ATOM     25  C   UNL     1      -1.330  10.887  23.109  0.00  0.00    +0.000 C 
ATOM     26  O   UNL     1       0.048  10.530  23.105  0.00  0.00    +0.000 OA
ENDBRANCH  19  26
BRANCH  23  27
ATOM     27  O   UNL     1       1.455  10.845  18.412  0.00  0.00    +0.000 OA
ATOM     28  C   UNL     1       1.902  12.195  18.499  0.00  0.00    +0.000 C 
ENDBRANCH  23  27
ENDBRANCH  18  22
ENDBRANCH  16  18
ENDBRANCH   1  16
TORSDOF 6
ENDMDL
MODEL 6
REMARK VINA RESULT:      -8.1      1.996      3.864
REMARK  Name = 
REMARK  8 active torsions:
REMARK  status: ('A' for Active; 'I' for Inactive)
REMARK    1  A    between atoms: C_1  and  O_2
REMARK    2  A    between atoms: O_2  and  C_3
REMARK    3  A    between atoms: C_6  and  C_7
REMARK    4  A    between atoms: C_7  and  N_8
REMARK    5  A    between atoms: N_8  and  C_9
REMARK    6  A    between atoms: C_16  and  C_17
REMARK    7  A    between atoms: C_24  and  O_25
REMARK    8  A    between atoms: O_25  and  C_26
REMARK                            x       y       z     vdW  Elec       q    Type
REMARK                         _______ _______ _______ _____ _____    ______ ____
ROOT
ATOM      1  C   UNL     1       2.244   4.980  18.759  0.00  0.00    +0.000 C 
ATOM      2  C   UNL     1       1.658   4.401  20.075  0.00  0.00    +0.000 C 
ATOM      3  C   UNL     1       0.723   3.240  19.697  0.00  0.00    +0.000 C 
ATOM      4  C   UNL     1       1.495   2.198  18.869  0.00  0.00    +0.000 C 
ATOM      5  N   UNL     1       2.945   2.512  18.812  0.00  0.00    +0.000 NA
ATOM      6  C   UNL     1       3.402   2.604  20.215  0.00  0.00    +0.000 C 
ATOM      7  C   UNL     1       2.795   3.819  20.933  0.00  0.00    +0.000 C 
ATOM      8  C   UNL     1       3.113   3.820  18.085  0.00  0.00    +0.000 C 
ENDROOT
BRANCH   8   9
ATOM      9  C   UNL     1       4.576   4.149  17.722  0.00  0.00    +0.000 A 
ATOM     10  C   UNL     1       5.046   3.891  16.420  0.00  0.00    +0.000 A 
ATOM     11  C   UNL     1       6.357   4.204  16.043  0.00  0.00    +0.000 A 
ATOM     12  C   UNL     1       7.237   4.773  16.961  0.00  0.00    +0.000 A 
ATOM     13  C   UNL     1       6.795   5.038  18.249  0.00  0.00    +0.000 A 
ATOM     14 CL   UNL     1       7.861   5.743  19.400  0.00  0.00    +0.000 Cl
ATOM     15  C   UNL     1       5.479   4.742  18.621  0.00  0.00    +0.000 A 
ENDBRANCH   8   9
BRANCH   1  16
ATOM     16  N   UNL     1       2.990   6.226  18.932  0.00  0.00    +0.000 NA
ATOM     17  H   UNL     1       3.120   6.400  19.924  0.00  0.00    +0.000 HD
BRANCH  16  18
ATOM     18  C   UNL     1       2.428   7.439  18.334  0.00  0.00    +0.000 C 
BRANCH  18  22
ATOM     19  C   UNL     1       0.648  10.053  21.315  0.00  0.00    +0.000 A 
ATOM     20  C   UNL     1       0.898   8.719  21.615  0.00  0.00    +0.000 A 
ATOM     21  C   UNL     1       1.500   7.894  20.673  0.00  0.00    +0.000 A 
ATOM     22  C   UNL     1       1.844   8.370  19.386  0.00  0.00    +0.000 A 
ATOM     23  C   UNL     1       1.607   9.727  19.095  0.00  0.00    +0.000 A 
ATOM     24  C   UNL     1       1.013  10.551  20.064  0.00  0.00    +0.000 A 
BRANCH  19  26
ATOM     25  C   UNL     1      -0.641  10.004  23.308  0.00  0.00    +0.000 C 
ATOM     26  O   UNL     1       0.051  10.760  22.320  0.00  0.00    +0.000 OA
ENDBRANCH  19  26
BRANCH  23  27
ATOM     27  O   UNL     1       1.967  10.159  17.841  0.00  0.00    +0.000 OA
ATOM     28  C   UNL     1       2.377  11.518  17.720  0.00  0.00    +0.000 C 
ENDBRANCH  23  27
ENDBRANCH  18  22
ENDBRANCH  16  18
ENDBRANCH   1  16
TORSDOF 6
ENDMDL
MODEL 7
REMARK VINA RESULT:      -8.1      2.030      4.430
REMARK  Name = 
REMARK  8 active torsions:
REMARK  status: ('A' for Active; 'I' for Inactive)
REMARK    1  A    between atoms: C_1  and  O_2
REMARK    2  A    between atoms: O_2  and  C_3
REMARK    3  A    between atoms: C_6  and  C_7
REMARK    4  A    between atoms: C_7  and  N_8
REMARK    5  A    between atoms: N_8  and  C_9
REMARK    6  A    between atoms: C_16  and  C_17
REMARK    7  A    between atoms: C_24  and  O_25
REMARK    8  A    between atoms: O_25  and  C_26
REMARK                            x       y       z     vdW  Elec       q    Type
REMARK                         _______ _______ _______ _____ _____    ______ ____
ROOT
ATOM      1  C   UNL     1       2.045   4.845  18.682  0.00  0.00    +0.000 C 
ATOM      2  C   UNL     1       1.462   4.241  19.988  0.00  0.00    +0.000 C 
ATOM      3  C   UNL     1       0.603   3.026  19.596  0.00  0.00    +0.000 C 
ATOM      4  C   UNL     1       1.452   2.026  18.793  0.00  0.00    +0.000 C 
ATOM      5  N   UNL     1       2.883   2.421  18.767  0.00  0.00    +0.000 NA
ATOM      6  C   UNL     1       3.301   2.546  20.180  0.00  0.00    +0.000 C 
ATOM      7  C   UNL     1       2.610   3.729  20.876  0.00  0.00    +0.000 C 
ATOM      8  C   UNL     1       2.993   3.733  18.035  0.00  0.00    +0.000 C 
ENDROOT
BRANCH   8   9
ATOM      9  C   UNL     1       4.444   4.142  17.704  0.00  0.00    +0.000 A 
ATOM     10  C   UNL     1       4.915   4.027  16.382  0.00  0.00    +0.000 A 
ATOM     11  C   UNL     1       6.214   4.417  16.035  0.00  0.00    +0.000 A 
ATOM     12  C   UNL     1       7.080   4.921  17.003  0.00  0.00    +0.000 A 
ATOM     13  C   UNL     1       6.636   5.046  18.312  0.00  0.00    +0.000 A 
ATOM     14 CL   UNL     1       7.684   5.670  19.524  0.00  0.00    +0.000 Cl
ATOM     15  C   UNL     1       5.332   4.674  18.654  0.00  0.00    +0.000 A 
ENDBRANCH   8   9
BRANCH   1  16
ATOM     16  N   UNL     1       2.715   6.132  18.863  0.00  0.00    +0.000 NA
ATOM     17  H   UNL     1       3.719   5.981  18.895  0.00  0.00    +0.000 HD
BRANCH  16  18
ATOM     18  C   UNL     1       2.345   6.928  20.036  0.00  0.00    +0.000 C 
BRANCH  18  22
ATOM     19  C   UNL     1       0.655  10.773  18.920  0.00  0.00    +0.000 A 
ATOM     20  C   UNL     1       1.310   9.995  17.972  0.00  0.00    +0.000 A 
ATOM     21  C   UNL     1       1.818   8.751  18.323  0.00  0.00    +0.000 A 
ATOM     22  C   UNL     1       1.714   8.255  19.643  0.00  0.00    +0.000 A 
ATOM     23  C   UNL     1       1.031   9.037  20.593  0.00  0.00    +0.000 A 
ATOM     24  C   UNL     1       0.509  10.286  20.220  0.00  0.00    +0.000 A 
BRANCH  19  26
ATOM     25  C   UNL     1      -1.200  12.092  18.246  0.00  0.00    +0.000 C 
ATOM     26  O   UNL     1       0.203  11.975  18.456  0.00  0.00    +0.000 OA
ENDBRANCH  19  26
BRANCH  23  27
ATOM     27  O   UNL     1       0.936   8.518  21.863  0.00  0.00    +0.000 OA
ATOM     28  C   UNL     1       0.364   9.358  22.861  0.00  0.00    +0.000 C 
ENDBRANCH  23  27
ENDBRANCH  18  22
ENDBRANCH  16  18
ENDBRANCH   1  16
TORSDOF 6
ENDMDL
MODEL 8
REMARK VINA RESULT:      -8.0      0.895      2.384
REMARK  Name = 
REMARK  8 active torsions:
REMARK  status: ('A' for Active; 'I' for Inactive)
REMARK    1  A    between atoms: C_1  and  O_2
REMARK    2  A    between atoms: O_2  and  C_3
REMARK    3  A    between atoms: C_6  and  C_7
REMARK    4  A    between atoms: C_7  and  N_8
REMARK    5  A    between atoms: N_8  and  C_9
REMARK    6  A    between atoms: C_16  and  C_17
REMARK    7  A    between atoms: C_24  and  O_25
REMARK    8  A    between atoms: O_25  and  C_26
REMARK                            x       y       z     vdW  Elec       q    Type
REMARK                         _______ _______ _______ _____ _____    ______ ____
ROOT
ATOM      1  C   UNL     1       4.630   6.375  18.181  0.00  0.00    +0.000 C 
ATOM      2  C   UNL     1       5.452   6.725  16.911  0.00  0.00    +0.000 C 
ATOM      3  C   UNL     1       6.940   6.707  17.302  0.00  0.00    +0.000 C 
ATOM      4  C   UNL     1       7.305   5.337  17.898  0.00  0.00    +0.000 C 
ATOM      5  N   UNL     1       6.184   4.372  17.777  0.00  0.00    +0.000 NA
ATOM      6  C   UNL     1       5.844   4.315  16.339  0.00  0.00    +0.000 C 
ATOM      7  C   UNL     1       5.240   5.639  15.843  0.00  0.00    +0.000 C 
ATOM      8  C   UNL     1       5.032   4.886  18.601  0.00  0.00    +0.000 C 
ENDROOT
BRANCH   8   9
ATOM      9  C   UNL     1       3.889   3.865  18.779  0.00  0.00    +0.000 A 
ATOM     10  C   UNL     1       3.466   3.094  17.679  0.00  0.00    +0.000 A 
ATOM     11  C   UNL     1       2.453   2.135  17.807  0.00  0.00    +0.000 A 
ATOM     12  C   UNL     1       1.829   1.931  19.036  0.00  0.00    +0.000 A 
ATOM     13  C   UNL     1       2.232   2.678  20.133  0.00  0.00    +0.000 A 
ATOM     14 CL   UNL     1       1.479   2.441  21.662  0.00  0.00    +0.000 Cl
ATOM     15  C   UNL     1       3.256   3.622  20.010  0.00  0.00    +0.000 A 
ENDBRANCH   8   9
BRANCH   1  16
ATOM     16  N   UNL     1       3.187   6.555  18.029  0.00  0.00    +0.000 NA
ATOM     17  H   UNL     1       3.012   7.222  17.283  0.00  0.00    +0.000 HD
BRANCH  16  18
ATOM     18  C   UNL     1       2.433   6.992  19.206  0.00  0.00    +0.000 C 
BRANCH  18  22
ATOM     19  C   UNL     1       1.133  11.122  18.832  0.00  0.00    +0.000 A 
ATOM     20  C   UNL     1       1.898  10.536  17.830  0.00  0.00    +0.000 A 
ATOM     21  C   UNL     1       2.282   9.205  17.935  0.00  0.00    +0.000 A 
ATOM     22  C   UNL     1       1.939   8.423  19.062  0.00  0.00    +0.000 A 
ATOM     23  C   UNL     1       1.147   9.016  20.065  0.00  0.00    +0.000 A 
ATOM     24  C   UNL     1       0.753  10.358  19.936  0.00  0.00    +0.000 A 
BRANCH  19  26
ATOM     25  C   UNL     1       1.904  13.305  18.307  0.00  0.00    +0.000 C 
ATOM     26  O   UNL     1       0.821  12.434  18.616  0.00  0.00    +0.000 OA
ENDBRANCH  19  26
BRANCH  23  27
ATOM     27  O   UNL     1       0.820   8.223  21.139  0.00  0.00    +0.000 OA
ATOM     28  C   UNL     1      -0.271   8.653  21.949  0.00  0.00    +0.000 C 
ENDBRANCH  23  27
ENDBRANCH  18  22
ENDBRANCH  16  18
ENDBRANCH   1  16
TORSDOF 6
ENDMDL
MODEL 9
REMARK VINA RESULT:      -7.9      2.225      4.722
REMARK  Name = 
REMARK  8 active torsions:
REMARK  status: ('A' for Active; 'I' for Inactive)
REMARK    1  A    between atoms: C_1  and  O_2
REMARK    2  A    between atoms: O_2  and  C_3
REMARK    3  A    between atoms: C_6  and  C_7
REMARK    4  A    between atoms: C_7  and  N_8
REMARK    5  A    between atoms: N_8  and  C_9
REMARK    6  A    between atoms: C_16  and  C_17
REMARK    7  A    between atoms: C_24  and  O_25
REMARK    8  A    between atoms: O_25  and  C_26
REMARK                            x       y       z     vdW  Elec       q    Type
REMARK                         _______ _______ _______ _____ _____    ______ ____
ROOT
ATOM      1  C   UNL     1       2.011   4.916  19.103  0.00  0.00    +0.000 C 
ATOM      2  C   UNL     1       1.422   4.128  20.304  0.00  0.00    +0.000 C 
ATOM      3  C   UNL     1       0.631   2.936  19.736  0.00  0.00    +0.000 C 
ATOM      4  C   UNL     1       1.549   2.081  18.843  0.00  0.00    +0.000 C 
ATOM      5  N   UNL     1       2.960   2.538  18.914  0.00  0.00    +0.000 NA
ATOM      6  C   UNL     1       3.332   2.503  20.345  0.00  0.00    +0.000 C 
ATOM      7  C   UNL     1       2.567   3.558  21.159  0.00  0.00    +0.000 C 
ATOM      8  C   UNL     1       3.028   3.935  18.355  0.00  0.00    +0.000 C 
ENDROOT
BRANCH   8   9
ATOM      9  C   UNL     1       4.466   4.446  18.126  0.00  0.00    +0.000 A 
ATOM     10  C   UNL     1       5.199   4.972  19.207  0.00  0.00    +0.000 A 
ATOM     11  C   UNL     1       6.518   5.416  19.047  0.00  0.00    +0.000 A 
ATOM     12  C   UNL     1       7.133   5.357  17.798  0.00  0.00    +0.000 A 
ATOM     13  C   UNL     1       6.430   4.840  16.720  0.00  0.00    +0.000 A 
ATOM     14 CL   UNL     1       7.170   4.752  15.169  0.00  0.00    +0.000 Cl
ATOM     15  C   UNL     1       5.120   4.379  16.884  0.00  0.00    +0.000 A 
ENDBRANCH   8   9
BRANCH   1  16
ATOM     16  N   UNL     1       2.614   6.197  19.465  0.00  0.00    +0.000 NA
ATOM     17  H   UNL     1       3.576   6.041  19.752  0.00  0.00    +0.000 HD
BRANCH  16  18
ATOM     18  C   UNL     1       1.957   6.983  20.511  0.00  0.00    +0.000 C 
BRANCH  18  22
ATOM     19  C   UNL     1       0.950  10.969  19.104  0.00  0.00    +0.000 A 
ATOM     20  C   UNL     1       1.463  10.025  18.222  0.00  0.00    +0.000 A 
ATOM     21  C   UNL     1       1.750   8.741  18.667  0.00  0.00    +0.000 A 
ATOM     22  C   UNL     1       1.562   8.366  20.017  0.00  0.00    +0.000 A 
ATOM     23  C   UNL     1       1.024   9.320  20.901  0.00  0.00    +0.000 A 
ATOM     24  C   UNL     1       0.723  10.610  20.433  0.00  0.00    +0.000 A 
BRANCH  19  26
ATOM     25  C   UNL     1       1.802  13.108  18.525  0.00  0.00    +0.000 C 
ATOM     26  O   UNL     1       0.710  12.195  18.550  0.00  0.00    +0.000 OA
ENDBRANCH  19  26
BRANCH  23  27
ATOM     27  O   UNL     1       0.840   8.918  22.203  0.00  0.00    +0.000 OA
ATOM     28  C   UNL     1      -0.186   9.574  22.942  0.00  0.00    +0.000 C 
ENDBRANCH  23  27
ENDBRANCH  18  22
ENDBRANCH  16  18
ENDBRANCH   1  16
TORSDOF 6
ENDMDL
