MODEL 1
REMARK VINA RESULT:      -8.5      0.000      0.000
REMARK  Name = 
REMARK  2 active torsions:
REMARK  status: ('A' for Active; 'I' for Inactive)
REMARK    1  A    between atoms: C_2  and  C_3
REMARK    2  A    between atoms: C_17  and  C_19
REMARK                            x       y       z     vdW  Elec       q    Type
REMARK                         _______ _______ _______ _____ _____    ______ ____
ROOT
ATOM      1  O   UNL     1       1.645   6.753  21.053  0.00  0.00    +0.000 OA
ATOM      2  C   UNL     1       1.855   7.371  20.009  0.00  0.00    +0.000 C 
ATOM      3  N   UNL     1       1.467   8.733  19.845  0.00  0.00    +0.000 N 
ATOM      4  C   UNL     1       1.702   9.494  18.646  0.00  0.00    +0.000 C 
ATOM      5  C   UNL     1       1.605  10.925  19.048  0.00  0.00    +0.000 C 
ATOM      6  N   UNL     1       0.753  10.955  20.206  0.00  0.00    +0.000 N 
ATOM      7  C   UNL     1       0.189  12.157  20.721  0.00  0.00    +0.000 C 
ATOM      8  O   UNL     1      -0.551  12.178  21.700  0.00  0.00    +0.000 OA
ATOM      9  C   UNL     1       0.721   9.599  20.763  0.00  0.00    +0.000 C 
ATOM     10  S   UNL     1      -0.025   9.132  22.178  0.00  0.00    +0.000 S 
ENDROOT
BRANCH   2  11
ATOM     11  C   UNL     1       2.609   6.638  18.909  0.00  0.00    +0.000 A 
ATOM     12  C   UNL     1       3.496   7.362  18.091  0.00  0.00    +0.000 A 
ATOM     13  C   UNL     1       4.337   6.732  17.184  0.00  0.00    +0.000 A 
ATOM     14  C   UNL     1       4.197   5.375  16.960  0.00  0.00    +0.000 A 
ATOM     15  C   UNL     1       3.215   4.638  17.624  0.00  0.00    +0.000 A 
ATOM     16  C   UNL     1       3.035   3.296  17.260  0.00  0.00    +0.000 A 
ATOM     17  C   UNL     1       2.048   2.513  17.854  0.00  0.00    +0.000 A 
ATOM     18  C   UNL     1       1.256   3.062  18.846  0.00  0.00    +0.000 A 
ATOM     19  C   UNL     1       1.447   4.389  19.245  0.00  0.00    +0.000 A 
ATOM     20  C   UNL     1       2.407   5.243  18.630  0.00  0.00    +0.000 A 
ENDBRANCH   2  11
BRANCH   7  21
ATOM     21  C   UNL     1       0.476  13.483  20.044  0.00  0.00    +0.000 A 
ATOM     22  C   UNL     1      -0.458  14.004  19.130  0.00  0.00    +0.000 A 
ATOM     23  C   UNL     1      -0.293  15.251  18.542  0.00  0.00    +0.000 A 
ATOM     24  C   UNL     1       0.892  15.942  18.737  0.00  0.00    +0.000 A 
ATOM     25  C   UNL     1       1.910  15.403  19.527  0.00  0.00    +0.000 A 
ATOM     26  C   UNL     1       3.132  16.089  19.593  0.00  0.00    +0.000 A 
ATOM     27  C   UNL     1       4.185  15.604  20.364  0.00  0.00    +0.000 A 
ATOM     28  C   UNL     1       4.006  14.444  21.107  0.00  0.00    +0.000 A 
ATOM     29  C   UNL     1       2.792  13.754  21.053  0.00  0.00    +0.000 A 
ATOM     30  C   UNL     1       1.712  14.180  20.237  0.00  0.00    +0.000 A 
ENDBRANCH   7  21
TORSDOF 2
ENDMDL
MODEL 2
REMARK VINA RESULT:      -8.3      3.241      8.725
REMARK  Name = 
REMARK  2 active torsions:
REMARK  status: ('A' for Active; 'I' for Inactive)
REMARK    1  A    between atoms: C_2  and  C_3
REMARK    2  A    between atoms: C_17  and  C_19
REMARK                            x       y       z     vdW  Elec       q    Type
REMARK                         _______ _______ _______ _____ _____    ______ ____
ROOT
ATOM      1  O   UNL     1       2.784  17.252  18.317  0.00  0.00    +0.000 OA
ATOM      2  C   UNL     1       3.296  16.534  19.175  0.00  0.00    +0.000 C 
ATOM      3  N   UNL     1       2.612  15.415  19.733  0.00  0.00    +0.000 N 
ATOM      4  C   UNL     1       3.178  14.545  20.730  0.00  0.00    +0.000 C 
ATOM      5  C   UNL     1       2.382  13.288  20.673  0.00  0.00    +0.000 C 
ATOM      6  N   UNL     1       1.090  13.660  20.159  0.00  0.00    +0.000 N 
ATOM      7  C   UNL     1      -0.042  12.799  20.215  0.00  0.00    +0.000 C 
ATOM      8  O   UNL     1      -1.148  13.124  19.792  0.00  0.00    +0.000 OA
ATOM      9  C   UNL     1       1.239  14.959  19.496  0.00  0.00    +0.000 C 
ATOM     10  S   UNL     1       0.063  15.765  18.633  0.00  0.00    +0.000 S 
ENDROOT
BRANCH   2  11
ATOM     11  C   UNL     1       4.729  16.852  19.581  0.00  0.00    +0.000 A 
ATOM     12  C   UNL     1       4.970  17.948  20.430  0.00  0.00    +0.000 A 
ATOM     13  C   UNL     1       6.224  18.193  20.971  0.00  0.00    +0.000 A 
ATOM     14  C   UNL     1       7.304  17.440  20.550  0.00  0.00    +0.000 A 
ATOM     15  C   UNL     1       7.148  16.449  19.579  0.00  0.00    +0.000 A 
ATOM     16  C   UNL     1       8.299  15.809  19.096  0.00  0.00    +0.000 A 
ATOM     17  C   UNL     1       8.222  14.838  18.101  0.00  0.00    +0.000 A 
ATOM     18  C   UNL     1       6.981  14.475  17.607  0.00  0.00    +0.000 A 
ATOM     19  C   UNL     1       5.822  15.080  18.103  0.00  0.00    +0.000 A 
ATOM     20  C   UNL     1       5.856  16.113  19.082  0.00  0.00    +0.000 A 
ENDBRANCH   2  11
BRANCH   7  21
ATOM     21  C   UNL     1       0.079  11.422  20.840  0.00  0.00    +0.000 A 
ATOM     22  C   UNL     1      -0.322  11.236  22.176  0.00  0.00    +0.000 A 
ATOM     23  C   UNL     1      -0.315   9.984  22.777  0.00  0.00    +0.000 A 
ATOM     24  C   UNL     1       0.243   8.910  22.102  0.00  0.00    +0.000 A 
ATOM     25  C   UNL     1       0.782   9.073  20.823  0.00  0.00    +0.000 A 
ATOM     26  C   UNL     1       1.439   7.982  20.236  0.00  0.00    +0.000 A 
ATOM     27  C   UNL     1       1.996   8.082  18.964  0.00  0.00    +0.000 A 
ATOM     28  C   UNL     1       1.864   9.268  18.255  0.00  0.00    +0.000 A 
ATOM     29  C   UNL     1       1.207  10.361  18.827  0.00  0.00    +0.000 A 
ATOM     30  C   UNL     1       0.675  10.324  20.141  0.00  0.00    +0.000 A 
ENDBRANCH   7  21
TORSDOF 2
ENDMDL
MODEL 3
REMARK VINA RESULT:      -8.2      5.952      9.586
REMARK  Name = 
REMARK  2 active torsions:
REMARK  status: ('A' for Active; 'I' for Inactive)
REMARK    1  A    between atoms: C_2  and  C_3
REMARK    2  A    between atoms: C_17  and  C_19
REMARK                            x       y       z     vdW  Elec       q    Type
REMARK                         _______ _______ _______ _____ _____    ______ ____
ROOT
ATOM      1  O   UNL     1       3.271  14.501  22.295  0.00  0.00    +0.000 OA
ATOM      2  C   UNL     1       3.459  14.660  21.089  0.00  0.00    +0.000 C 
ATOM      3  N   UNL     1       4.752  14.929  20.553  0.00  0.00    +0.000 N 
ATOM      4  C   UNL     1       5.016  15.112  19.151  0.00  0.00    +0.000 C 
ATOM      5  C   UNL     1       6.477  14.881  18.978  0.00  0.00    +0.000 C 
ATOM      6  N   UNL     1       7.080  15.188  20.248  0.00  0.00    +0.000 N 
ATOM      7  C   UNL     1       8.483  15.360  20.417  0.00  0.00    +0.000 C 
ATOM      8  O   UNL     1       8.993  15.638  21.499  0.00  0.00    +0.000 OA
ATOM      9  C   UNL     1       6.019  15.143  21.260  0.00  0.00    +0.000 C 
ATOM     10  S   UNL     1       6.220  15.304  22.906  0.00  0.00    +0.000 S 
ENDROOT
BRANCH   2  11
ATOM     11  C   UNL     1       2.254  14.497  20.172  0.00  0.00    +0.000 A 
ATOM     12  C   UNL     1       1.895  13.207  19.742  0.00  0.00    +0.000 A 
ATOM     13  C   UNL     1       0.718  12.968  19.047  0.00  0.00    +0.000 A 
ATOM     14  C   UNL     1      -0.051  14.038  18.626  0.00  0.00    +0.000 A 
ATOM     15  C   UNL     1       0.351  15.351  18.882  0.00  0.00    +0.000 A 
ATOM     16  C   UNL     1      -0.397  16.393  18.318  0.00  0.00    +0.000 A 
ATOM     17  C   UNL     1      -0.032  17.725  18.499  0.00  0.00    +0.000 A 
ATOM     18  C   UNL     1       1.071  18.022  19.280  0.00  0.00    +0.000 A 
ATOM     19  C   UNL     1       1.807  16.994  19.878  0.00  0.00    +0.000 A 
ATOM     20  C   UNL     1       1.503  15.618  19.677  0.00  0.00    +0.000 A 
ENDBRANCH   2  11
BRANCH   7  21
ATOM     21  C   UNL     1       9.415  15.225  19.229  0.00  0.00    +0.000 A 
ATOM     22  C   UNL     1       9.674  16.352  18.427  0.00  0.00    +0.000 A 
ATOM     23  C   UNL     1      10.582  16.313  17.377  0.00  0.00    +0.000 A 
ATOM     24  C   UNL     1      11.139  15.100  17.006  0.00  0.00    +0.000 A 
ATOM     25  C   UNL     1      10.807  13.925  17.685  0.00  0.00    +0.000 A 
ATOM     26  C   UNL     1      11.307  12.710  17.192  0.00  0.00    +0.000 A 
ATOM     27  C   UNL     1      11.012  11.506  17.825  0.00  0.00    +0.000 A 
ATOM     28  C   UNL     1      10.244  11.515  18.982  0.00  0.00    +0.000 A 
ATOM     29  C   UNL     1       9.744  12.719  19.485  0.00  0.00    +0.000 A 
ATOM     30  C   UNL     1       9.970  13.963  18.842  0.00  0.00    +0.000 A 
ENDBRANCH   7  21
TORSDOF 2
ENDMDL
MODEL 4
REMARK VINA RESULT:      -8.2      2.849      4.759
REMARK  Name = 
REMARK  2 active torsions:
REMARK  status: ('A' for Active; 'I' for Inactive)
REMARK    1  A    between atoms: C_2  and  C_3
REMARK    2  A    between atoms: C_17  and  C_19
REMARK                            x       y       z     vdW  Elec       q    Type
REMARK                         _______ _______ _______ _____ _____    ______ ____
ROOT
ATOM      1  O   UNL     1       2.713   8.773  17.777  0.00  0.00    +0.000 OA
ATOM      2  C   UNL     1       2.157   8.422  18.818  0.00  0.00    +0.000 C 
ATOM      3  N   UNL     1       1.367   9.319  19.594  0.00  0.00    +0.000 N 
ATOM      4  C   UNL     1       0.693   8.947  20.810  0.00  0.00    +0.000 C 
ATOM      5  C   UNL     1      -0.364   9.975  21.019  0.00  0.00    +0.000 C 
ATOM      6  N   UNL     1       0.098  11.162  20.351  0.00  0.00    +0.000 N 
ATOM      7  C   UNL     1      -0.491  12.442  20.551  0.00  0.00    +0.000 C 
ATOM      8  O   UNL     1      -0.084  13.457  19.992  0.00  0.00    +0.000 OA
ATOM      9  C   UNL     1       1.132  10.752  19.395  0.00  0.00    +0.000 C 
ATOM     10  S   UNL     1       1.896  11.737  18.287  0.00  0.00    +0.000 S 
ENDROOT
BRANCH   2  11
ATOM     11  C   UNL     1       2.294   6.959  19.218  0.00  0.00    +0.000 A 
ATOM     12  C   UNL     1       1.676   6.516  20.402  0.00  0.00    +0.000 A 
ATOM     13  C   UNL     1       1.619   5.170  20.738  0.00  0.00    +0.000 A 
ATOM     14  C   UNL     1       2.318   4.250  19.979  0.00  0.00    +0.000 A 
ATOM     15  C   UNL     1       3.087   4.662  18.889  0.00  0.00    +0.000 A 
ATOM     16  C   UNL     1       3.877   3.703  18.238  0.00  0.00    +0.000 A 
ATOM     17  C   UNL     1       4.699   4.051  17.168  0.00  0.00    +0.000 A 
ATOM     18  C   UNL     1       4.706   5.360  16.720  0.00  0.00    +0.000 A 
ATOM     19  C   UNL     1       3.897   6.319  17.337  0.00  0.00    +0.000 A 
ATOM     20  C   UNL     1       3.082   6.022  18.466  0.00  0.00    +0.000 A 
ENDBRANCH   2  11
BRANCH   7  21
ATOM     21  C   UNL     1      -1.658  12.602  21.505  0.00  0.00    +0.000 A 
ATOM     22  C   UNL     1      -1.410  12.685  22.888  0.00  0.00    +0.000 A 
ATOM     23  C   UNL     1      -2.427  12.916  23.805  0.00  0.00    +0.000 A 
ATOM     24  C   UNL     1      -3.743  12.913  23.372  0.00  0.00    +0.000 A 
ATOM     25  C   UNL     1      -4.053  12.696  22.027  0.00  0.00    +0.000 A 
ATOM     26  C   UNL     1      -5.403  12.586  21.667  0.00  0.00    +0.000 A 
ATOM     27  C   UNL     1      -5.775  12.370  20.343  0.00  0.00    +0.000 A 
ATOM     28  C   UNL     1      -4.794  12.303  19.362  0.00  0.00    +0.000 A 
ATOM     29  C   UNL     1      -3.445  12.416  19.709  0.00  0.00    +0.000 A 
ATOM     30  C   UNL     1      -3.016  12.579  21.051  0.00  0.00    +0.000 A 
ENDBRANCH   7  21
TORSDOF 2
ENDMDL
MODEL 5
REMARK VINA RESULT:      -8.1      7.383      9.339
REMARK  Name = 
REMARK  2 active torsions:
REMARK  status: ('A' for Active; 'I' for Inactive)
REMARK    1  A    between atoms: C_2  and  C_3
REMARK    2  A    between atoms: C_17  and  C_19
REMARK                            x       y       z     vdW  Elec       q    Type
REMARK                         _______ _______ _______ _____ _____    ______ ____
ROOT
ATOM      1  O   UNL     1       6.233  14.424  17.808  0.00  0.00    +0.000 OA
ATOM      2  C   UNL     1       7.096  14.771  18.613  0.00  0.00    +0.000 C 
ATOM      3  N   UNL     1       6.805  14.976  19.994  0.00  0.00    +0.000 N 
ATOM      4  C   UNL     1       7.787  15.372  20.969  0.00  0.00    +0.000 C 
ATOM      5  C   UNL     1       7.214  15.004  22.294  0.00  0.00    +0.000 C 
ATOM      6  N   UNL     1       5.786  15.009  22.124  0.00  0.00    +0.000 N 
ATOM      7  C   UNL     1       4.875  14.982  23.218  0.00  0.00    +0.000 C 
ATOM      8  O   UNL     1       3.657  15.003  23.071  0.00  0.00    +0.000 OA
ATOM      9  C   UNL     1       5.515  14.911  20.686  0.00  0.00    +0.000 C 
ATOM     10  S   UNL     1       4.016  14.754  19.974  0.00  0.00    +0.000 S 
ENDROOT
BRANCH   2  11
ATOM     11  C   UNL     1       8.517  14.916  18.087  0.00  0.00    +0.000 A 
ATOM     12  C   UNL     1       8.942  16.167  17.605  0.00  0.00    +0.000 A 
ATOM     13  C   UNL     1      10.266  16.412  17.268  0.00  0.00    +0.000 A 
ATOM     14  C   UNL     1      11.168  15.364  17.255  0.00  0.00    +0.000 A 
ATOM     15  C   UNL     1      10.758  14.065  17.563  0.00  0.00    +0.000 A 
ATOM     16  C   UNL     1      11.684  13.025  17.405  0.00  0.00    +0.000 A 
ATOM     17  C   UNL     1      11.332  11.701  17.657  0.00  0.00    +0.000 A 
ATOM     18  C   UNL     1      10.055  11.415  18.105  0.00  0.00    +0.000 A 
ATOM     19  C   UNL     1       9.131  12.446  18.300  0.00  0.00    +0.000 A 
ATOM     20  C   UNL     1       9.428  13.807  18.006  0.00  0.00    +0.000 A 
ENDBRANCH   2  11
BRANCH   7  21
ATOM     21  C   UNL     1       5.398  14.950  24.641  0.00  0.00    +0.000 A 
ATOM     22  C   UNL     1       5.546  16.159  25.346  0.00  0.00    +0.000 A 
ATOM     23  C   UNL     1       5.938  16.189  26.678  0.00  0.00    +0.000 A 
ATOM     24  C   UNL     1       6.344  15.016  27.293  0.00  0.00    +0.000 A 
ATOM     25  C   UNL     1       6.347  13.807  26.592  0.00  0.00    +0.000 A 
ATOM     26  C   UNL     1       6.879  12.674  27.225  0.00  0.00    +0.000 A 
ATOM     27  C   UNL     1       6.910  11.441  26.579  0.00  0.00    +0.000 A 
ATOM     28  C   UNL     1       6.371  11.327  25.305  0.00  0.00    +0.000 A 
ATOM     29  C   UNL     1       5.834  12.448  24.665  0.00  0.00    +0.000 A 
ATOM     30  C   UNL     1       5.833  13.735  25.261  0.00  0.00    +0.000 A 
ENDBRANCH   7  21
TORSDOF 2
ENDMDL
MODEL 6
REMARK VINA RESULT:      -8.0      5.180      8.756
REMARK  Name = 
REMARK  2 active torsions:
REMARK  status: ('A' for Active; 'I' for Inactive)
REMARK    1  A    between atoms: C_2  and  C_3
REMARK    2  A    between atoms: C_17  and  C_19
REMARK                            x       y       z     vdW  Elec       q    Type
REMARK                         _______ _______ _______ _____ _____    ______ ____
ROOT
ATOM      1  O   UNL     1       2.917  14.569  22.544  0.00  0.00    +0.000 OA
ATOM      2  C   UNL     1       3.139  14.891  21.377  0.00  0.00    +0.000 C 
ATOM      3  N   UNL     1       4.462  15.078  20.882  0.00  0.00    +0.000 N 
ATOM      4  C   UNL     1       4.765  15.446  19.524  0.00  0.00    +0.000 C 
ATOM      5  C   UNL     1       6.189  15.065  19.308  0.00  0.00    +0.000 C 
ATOM      6  N   UNL     1       6.808  15.091  20.606  0.00  0.00    +0.000 N 
ATOM      7  C   UNL     1       8.219  15.059  20.792  0.00  0.00    +0.000 C 
ATOM      8  O   UNL     1       8.746  15.098  21.900  0.00  0.00    +0.000 OA
ATOM      9  C   UNL     1       5.736  15.019  21.605  0.00  0.00    +0.000 C 
ATOM     10  S   UNL     1       5.934  14.894  23.255  0.00  0.00    +0.000 S 
ENDROOT
BRANCH   2  11
ATOM     11  C   UNL     1       1.936  15.025  20.454  0.00  0.00    +0.000 A 
ATOM     12  C   UNL     1       1.386  16.301  20.231  0.00  0.00    +0.000 A 
ATOM     13  C   UNL     1       0.401  16.518  19.277  0.00  0.00    +0.000 A 
ATOM     14  C   UNL     1      -0.171  15.436  18.634  0.00  0.00    +0.000 A 
ATOM     15  C   UNL     1       0.222  14.132  18.944  0.00  0.00    +0.000 A 
ATOM     16  C   UNL     1      -0.484  13.072  18.357  0.00  0.00    +0.000 A 
ATOM     17  C   UNL     1      -0.172  11.747  18.650  0.00  0.00    +0.000 A 
ATOM     18  C   UNL     1       0.878  11.474  19.510  0.00  0.00    +0.000 A 
ATOM     19  C   UNL     1       1.614  12.521  20.075  0.00  0.00    +0.000 A 
ATOM     20  C   UNL     1       1.298  13.890  19.846  0.00  0.00    +0.000 A 
ENDBRANCH   2  11
BRANCH   7  21
ATOM     21  C   UNL     1       9.143  14.998  19.591  0.00  0.00    +0.000 A 
ATOM     22  C   UNL     1       9.474  16.188  18.917  0.00  0.00    +0.000 A 
ATOM     23  C   UNL     1      10.380  16.208  17.864  0.00  0.00    +0.000 A 
ATOM     24  C   UNL     1      10.860  15.011  17.359  0.00  0.00    +0.000 A 
ATOM     25  C   UNL     1      10.453  13.791  17.905  0.00  0.00    +0.000 A 
ATOM     26  C   UNL     1      10.876  12.609  17.279  0.00  0.00    +0.000 A 
ATOM     27  C   UNL     1      10.504  11.363  17.776  0.00  0.00    +0.000 A 
ATOM     28  C   UNL     1       9.736  11.293  18.931  0.00  0.00    +0.000 A 
ATOM     29  C   UNL     1       9.312  12.463  19.567  0.00  0.00    +0.000 A 
ATOM     30  C   UNL     1       9.618  13.754  19.064  0.00  0.00    +0.000 A 
ENDBRANCH   7  21
TORSDOF 2
ENDMDL
MODEL 7
REMARK VINA RESULT:      -8.0      2.974      4.807
REMARK  Name = 
REMARK  2 active torsions:
REMARK  status: ('A' for Active; 'I' for Inactive)
REMARK    1  A    between atoms: C_2  and  C_3
REMARK    2  A    between atoms: C_17  and  C_19
REMARK                            x       y       z     vdW  Elec       q    Type
REMARK                         _______ _______ _______ _____ _____    ______ ____
ROOT
ATOM      1  O   UNL     1       3.272   8.404  17.767  0.00  0.00    +0.000 OA
ATOM      2  C   UNL     1       2.437   8.114  18.623  0.00  0.00    +0.000 C 
ATOM      3  N   UNL     1       1.463   9.049  19.078  0.00  0.00    +0.000 N 
ATOM      4  C   UNL     1       0.464   8.747  20.069  0.00  0.00    +0.000 C 
ATOM      5  C   UNL     1      -0.602   9.773  19.897  0.00  0.00    +0.000 C 
ATOM      6  N   UNL     1       0.041  10.920  19.315  0.00  0.00    +0.000 N 
ATOM      7  C   UNL     1      -0.572  12.203  19.253  0.00  0.00    +0.000 C 
ATOM      8  O   UNL     1      -0.015  13.185  18.771  0.00  0.00    +0.000 OA
ATOM      9  C   UNL     1       1.304  10.464  18.727  0.00  0.00    +0.000 C 
ATOM     10  S   UNL     1       2.361  11.384  17.825  0.00  0.00    +0.000 S 
ENDROOT
BRANCH   2  11
ATOM     11  C   UNL     1       2.443   6.682  19.140  0.00  0.00    +0.000 A 
ATOM     12  C   UNL     1       1.833   6.401  20.376  0.00  0.00    +0.000 A 
ATOM     13  C   UNL     1       1.656   5.100  20.826  0.00  0.00    +0.000 A 
ATOM     14  C   UNL     1       2.227   4.055  20.124  0.00  0.00    +0.000 A 
ATOM     15  C   UNL     1       2.988   4.296  18.979  0.00  0.00    +0.000 A 
ATOM     16  C   UNL     1       3.651   3.212  18.385  0.00  0.00    +0.000 A 
ATOM     17  C   UNL     1       4.458   3.386  17.264  0.00  0.00    +0.000 A 
ATOM     18  C   UNL     1       4.578   4.646  16.707  0.00  0.00    +0.000 A 
ATOM     19  C   UNL     1       3.896   5.731  17.268  0.00  0.00    +0.000 A 
ATOM     20  C   UNL     1       3.102   5.611  18.443  0.00  0.00    +0.000 A 
ENDBRANCH   2  11
BRANCH   7  21
ATOM     21  C   UNL     1      -1.965  12.409  19.818  0.00  0.00    +0.000 A 
ATOM     22  C   UNL     1      -2.109  12.868  21.140  0.00  0.00    +0.000 A 
ATOM     23  C   UNL     1      -3.353  13.156  21.686  0.00  0.00    +0.000 A 
ATOM     24  C   UNL     1      -4.497  12.842  20.970  0.00  0.00    +0.000 A 
ATOM     25  C   UNL     1      -4.409  12.255  19.705  0.00  0.00    +0.000 A 
ATOM     26  C   UNL     1      -5.597  11.850  19.078  0.00  0.00    +0.000 A 
ATOM     27  C   UNL     1      -5.575  11.260  17.817  0.00  0.00    +0.000 A 
ATOM     28  C   UNL     1      -4.362  11.107  17.159  0.00  0.00    +0.000 A 
ATOM     29  C   UNL     1      -3.172  11.510  17.771  0.00  0.00    +0.000 A 
ATOM     30  C   UNL     1      -3.141  12.063  19.077  0.00  0.00    +0.000 A 
ENDBRANCH   7  21
TORSDOF 2
ENDMDL
MODEL 8
REMARK VINA RESULT:      -7.9      7.564      9.732
REMARK  Name = 
REMARK  2 active torsions:
REMARK  status: ('A' for Active; 'I' for Inactive)
REMARK    1  A    between atoms: C_2  and  C_3
REMARK    2  A    between atoms: C_17  and  C_19
REMARK                            x       y       z     vdW  Elec       q    Type
REMARK                         _______ _______ _______ _____ _____    ______ ____
ROOT
ATOM      1  O   UNL     1       6.535  15.398  18.035  0.00  0.00    +0.000 OA
ATOM      2  C   UNL     1       7.487  15.204  18.790  0.00  0.00    +0.000 C 
ATOM      3  N   UNL     1       7.309  14.910  20.173  0.00  0.00    +0.000 N 
ATOM      4  C   UNL     1       8.395  14.668  21.087  0.00  0.00    +0.000 C 
ATOM      5  C   UNL     1       7.798  13.946  22.245  0.00  0.00    +0.000 C 
ATOM      6  N   UNL     1       6.411  14.329  22.279  0.00  0.00    +0.000 N 
ATOM      7  C   UNL     1       5.565  14.075  23.395  0.00  0.00    +0.000 C 
ATOM      8  O   UNL     1       4.387  14.417  23.429  0.00  0.00    +0.000 OA
ATOM      9  C   UNL     1       6.071  14.863  20.956  0.00  0.00    +0.000 C 
ATOM     10  S   UNL     1       4.556  15.329  20.442  0.00  0.00    +0.000 S 
ENDROOT
BRANCH   2  11
ATOM     11  C   UNL     1       8.879  15.229  18.172  0.00  0.00    +0.000 A 
ATOM     12  C   UNL     1       9.396  16.451  17.706  0.00  0.00    +0.000 A 
ATOM     13  C   UNL     1      10.713  16.577  17.287  0.00  0.00    +0.000 A 
ATOM     14  C   UNL     1      11.500  15.446  17.174  0.00  0.00    +0.000 A 
ATOM     15  C   UNL     1      10.981  14.183  17.464  0.00  0.00    +0.000 A 
ATOM     16  C   UNL     1      11.784  13.063  17.206  0.00  0.00    +0.000 A 
ATOM     17  C   UNL     1      11.317  11.771  17.434  0.00  0.00    +0.000 A 
ATOM     18  C   UNL     1      10.049  11.595  17.959  0.00  0.00    +0.000 A 
ATOM     19  C   UNL     1       9.249  12.704  18.255  0.00  0.00    +0.000 A 
ATOM     20  C   UNL     1       9.664  14.040  17.989  0.00  0.00    +0.000 A 
ENDBRANCH   2  11
BRANCH   7  21
ATOM     21  C   UNL     1       6.115  13.376  24.623  0.00  0.00    +0.000 A 
ATOM     22  C   UNL     1       5.966  11.982  24.745  0.00  0.00    +0.000 A 
ATOM     23  C   UNL     1       6.521  11.273  25.803  0.00  0.00    +0.000 A 
ATOM     24  C   UNL     1       7.108  11.965  26.849  0.00  0.00    +0.000 A 
ATOM     25  C   UNL     1       7.158  13.362  26.842  0.00  0.00    +0.000 A 
ATOM     26  C   UNL     1       7.656  14.013  27.981  0.00  0.00    +0.000 A 
ATOM     27  C   UNL     1       7.732  15.402  28.034  0.00  0.00    +0.000 A 
ATOM     28  C   UNL     1       7.345  16.148  26.928  0.00  0.00    +0.000 A 
ATOM     29  C   UNL     1       6.852  15.510  25.787  0.00  0.00    +0.000 A 
ATOM     30  C   UNL     1       6.703  14.102  25.709  0.00  0.00    +0.000 A 
ENDBRANCH   7  21
TORSDOF 2
ENDMDL
MODEL 9
REMARK VINA RESULT:      -7.9      7.508     10.124
REMARK  Name = 
REMARK  2 active torsions:
REMARK  status: ('A' for Active; 'I' for Inactive)
REMARK    1  A    between atoms: C_2  and  C_3
REMARK    2  A    between atoms: C_17  and  C_19
REMARK                            x       y       z     vdW  Elec       q    Type
REMARK                         _______ _______ _______ _____ _____    ______ ____
ROOT
ATOM      1  O   UNL     1       4.091  15.226  23.499  0.00  0.00    +0.000 OA
ATOM      2  C   UNL     1       5.293  14.974  23.585  0.00  0.00    +0.000 C 
ATOM      3  N   UNL     1       6.116  14.805  22.434  0.00  0.00    +0.000 N 
ATOM      4  C   UNL     1       7.526  14.518  22.492  0.00  0.00    +0.000 C 
ATOM      5  C   UNL     1       8.072  14.898  21.160  0.00  0.00    +0.000 C 
ATOM      6  N   UNL     1       6.976  14.786  20.235  0.00  0.00    +0.000 N 
ATOM      7  C   UNL     1       7.152  14.792  18.822  0.00  0.00    +0.000 C 
ATOM      8  O   UNL     1       6.217  14.680  18.034  0.00  0.00    +0.000 OA
ATOM      9  C   UNL     1       5.737  14.806  21.018  0.00  0.00    +0.000 C 
ATOM     10  S   UNL     1       4.186  14.828  20.409  0.00  0.00    +0.000 S 
ENDROOT
BRANCH   2  11
ATOM     11  C   UNL     1       5.888  14.908  24.985  0.00  0.00    +0.000 A 
ATOM     12  C   UNL     1       6.317  16.099  25.600  0.00  0.00    +0.000 A 
ATOM     13  C   UNL     1       6.712  16.136  26.930  0.00  0.00    +0.000 A 
ATOM     14  C   UNL     1       6.839  14.952  27.633  0.00  0.00    +0.000 A 
ATOM     15  C   UNL     1       6.588  13.725  27.017  0.00  0.00    +0.000 A 
ATOM     16  C   UNL     1       6.860  12.554  27.739  0.00  0.00    +0.000 A 
ATOM     17  C   UNL     1       6.670  11.296  27.173  0.00  0.00    +0.000 A 
ATOM     18  C   UNL     1       6.169  11.203  25.886  0.00  0.00    +0.000 A 
ATOM     19  C   UNL     1       5.860  12.362  25.166  0.00  0.00    +0.000 A 
ATOM     20  C   UNL     1       6.087  13.668  25.684  0.00  0.00    +0.000 A 
ENDBRANCH   2  11
BRANCH   7  21
ATOM     21  C   UNL     1       8.542  14.918  18.229  0.00  0.00    +0.000 A 
ATOM     22  C   UNL     1       8.963  16.161  17.721  0.00  0.00    +0.000 A 
ATOM     23  C   UNL     1      10.251  16.361  17.243  0.00  0.00    +0.000 A 
ATOM     24  C   UNL     1      11.104  15.277  17.117  0.00  0.00    +0.000 A 
ATOM     25  C   UNL     1      10.685  13.994  17.478  0.00  0.00    +0.000 A 
ATOM     26  C   UNL     1      11.547  12.917  17.219  0.00  0.00    +0.000 A 
ATOM     27  C   UNL     1      11.187  11.616  17.557  0.00  0.00    +0.000 A 
ATOM     28  C   UNL     1       9.974  11.388  18.194  0.00  0.00    +0.000 A 
ATOM     29  C   UNL     1       9.110  12.453  18.462  0.00  0.00    +0.000 A 
ATOM     30  C   UNL     1       9.409  13.787  18.085  0.00  0.00    +0.000 A 
ENDBRANCH   7  21
TORSDOF 2
ENDMDL
