MODEL 1
REMARK VINA RESULT:      -7.5      0.000      0.000
REMARK  Name = 
REMARK  15 active torsions:
REMARK  status: ('A' for Active; 'I' for Inactive)
REMARK    1  A    between atoms: C_1  and  C_2
REMARK    2  A    between atoms: C_2  and  C_3
REMARK    3  A    between atoms: C_2  and  C_4
REMARK    4  A    between atoms: C_4  and  N_5
REMARK    5  A    between atoms: C_4  and  C_20
REMARK    6  A    between atoms: C_6  and  S_7
REMARK    7  A    between atoms: N_8  and  C_9
REMARK    8  A    between atoms: C_9  and  C_10
REMARK    9  A    between atoms: C_13  and  C_14
REMARK   10  A    between atoms: C_14  and  C_15
REMARK   11  A    between atoms: C_14  and  C_16
REMARK   12  A    between atoms: C_14  and  C_17
REMARK   13  A    between atoms: C_23  and  N_24
REMARK   14  A    between atoms: N_24  and  S_25
REMARK   15  A    between atoms: S_25  and  C_26
REMARK                            x       y       z     vdW  Elec       q    Type
REMARK                         _______ _______ _______ _____ _____    ______ ____
ROOT
ATOM      1  N   UNL     1       1.788   6.447  19.987  0.00  0.00    +0.000 NA
ATOM      2  C   UNL     1       2.010   7.513  19.303  0.00  0.00    +0.000 C 
ATOM      3  N   UNL     1       1.855   8.718  19.936  0.00  0.00    +0.000 N 
ATOM      4  H   UNL     1       1.476   8.603  20.871  0.00  0.00    +0.000 HD
ENDROOT
BRANCH   2   5
ATOM      5  S   UNL     1       2.544   7.622  17.632  0.00  0.00    +0.000 S 
ATOM      6  H   UNL     1       1.632   8.484  17.192  0.00  0.00    +0.000 HD
ENDBRANCH   2   5
BRANCH   1   7
ATOM      7  C   UNL     1       1.890   5.031  19.594  0.00  0.00    +0.000 C 
BRANCH   7   8
ATOM      8  C   UNL     1       3.241   4.643  18.986  0.00  0.00    +0.000 A 
ATOM      9  C   UNL     1       4.430   5.272  19.373  0.00  0.00    +0.000 A 
ATOM     10  C   UNL     1       5.563   5.195  18.570  0.00  0.00    +0.000 A 
ATOM     11  C   UNL     1       5.564   4.383  17.442  0.00  0.00    +0.000 A 
ATOM     12  C   UNL     1       4.450   3.612  17.133  0.00  0.00    +0.000 A 
ATOM     13  C   UNL     1       3.287   3.745  17.900  0.00  0.00    +0.000 A 
BRANCH  11  14
ATOM     14  N   UNL     1       6.702   4.381  16.590  0.00  0.00    +0.000 N 
ATOM     15  H   UNL     1       7.271   3.536  16.584  0.00  0.00    +0.000 HD
BRANCH  14  16
ATOM     16  S   UNL     1       6.600   5.121  15.093  0.00  0.00    +0.000 S 
ATOM     17  C   UNL     1       6.134   3.802  13.982  0.00  0.00    +0.000 C 
ATOM     18  O   UNL     1       5.522   6.092  15.122  0.00  0.00    +0.000 OA
ATOM     19  O   UNL     1       7.953   5.510  14.756  0.00  0.00    +0.000 OA
ENDBRANCH  14  16
ENDBRANCH  11  14
ENDBRANCH   7   8
BRANCH   7  21
ATOM     20  C   UNL     1       0.563   2.860  20.207  0.00  0.00    +0.000 C 
ATOM     21  C   UNL     1       1.311   4.098  20.712  0.00  0.00    +0.000 C 
ATOM     22  C   UNL     1       2.388   3.632  21.701  0.00  0.00    +0.000 C 
ENDBRANCH   7  21
ENDBRANCH   1   7
BRANCH   3  23
ATOM     23  C   UNL     1       1.400   9.920  19.265  0.00  0.00    +0.000 C 
BRANCH  23  24
ATOM     24  C   UNL     1       0.307  10.589  20.050  0.00  0.00    +0.000 A 
ATOM     25  C   UNL     1       0.193  10.368  21.426  0.00  0.00    +0.000 A 
ATOM     26  C   UNL     1      -0.769  11.045  22.179  0.00  0.00    +0.000 A 
ATOM     27  C   UNL     1      -1.647  11.966  21.581  0.00  0.00    +0.000 A 
ATOM     28  C   UNL     1      -1.527  12.166  20.194  0.00  0.00    +0.000 A 
ATOM     29  C   UNL     1      -0.565  11.491  19.438  0.00  0.00    +0.000 A 
BRANCH  27  30
ATOM     30  C   UNL     1      -2.694  12.749  22.390  0.00  0.00    +0.000 C 
ATOM     31  C   UNL     1      -2.247  14.180  22.758  0.00  0.00    +0.000 C 
ATOM     32  C   UNL     1      -3.997  12.874  21.567  0.00  0.00    +0.000 C 
ATOM     33  C   UNL     1      -3.000  12.008  23.709  0.00  0.00    +0.000 C 
ENDBRANCH  27  30
ENDBRANCH  23  24
ENDBRANCH   3  23
TORSDOF 9
ENDMDL
MODEL 2
REMARK VINA RESULT:      -7.3      6.050      8.471
REMARK  Name = 
REMARK  15 active torsions:
REMARK  status: ('A' for Active; 'I' for Inactive)
REMARK    1  A    between atoms: C_1  and  C_2
REMARK    2  A    between atoms: C_2  and  C_3
REMARK    3  A    between atoms: C_2  and  C_4
REMARK    4  A    between atoms: C_4  and  N_5
REMARK    5  A    between atoms: C_4  and  C_20
REMARK    6  A    between atoms: C_6  and  S_7
REMARK    7  A    between atoms: N_8  and  C_9
REMARK    8  A    between atoms: C_9  and  C_10
REMARK    9  A    between atoms: C_13  and  C_14
REMARK   10  A    between atoms: C_14  and  C_15
REMARK   11  A    between atoms: C_14  and  C_16
REMARK   12  A    between atoms: C_14  and  C_17
REMARK   13  A    between atoms: C_23  and  N_24
REMARK   14  A    between atoms: N_24  and  S_25
REMARK   15  A    between atoms: S_25  and  C_26
REMARK                            x       y       z     vdW  Elec       q    Type
REMARK                         _______ _______ _______ _____ _____    ______ ____
ROOT
ATOM      1  N   UNL     1       6.956   6.798  16.471  0.00  0.00    +0.000 NA
ATOM      2  C   UNL     1       7.487   7.169  17.582  0.00  0.00    +0.000 C 
ATOM      3  N   UNL     1       7.847   8.486  17.705  0.00  0.00    +0.000 N 
ATOM      4  H   UNL     1       7.729   8.989  16.832  0.00  0.00    +0.000 HD
ENDROOT
BRANCH   2   5
ATOM      5  S   UNL     1       7.775   6.190  19.013  0.00  0.00    +0.000 S 
ATOM      6  H   UNL     1       8.661   5.344  18.495  0.00  0.00    +0.000 HD
ENDBRANCH   2   5
BRANCH   1   7
ATOM      7  C   UNL     1       6.456   5.476  16.056  0.00  0.00    +0.000 C 
BRANCH   7   8
ATOM      8  C   UNL     1       5.220   5.002  16.824  0.00  0.00    +0.000 A 
ATOM      9  C   UNL     1       4.829   3.658  16.834  0.00  0.00    +0.000 A 
ATOM     10  C   UNL     1       3.535   3.302  17.196  0.00  0.00    +0.000 A 
ATOM     11  C   UNL     1       2.656   4.264  17.680  0.00  0.00    +0.000 A 
ATOM     12  C   UNL     1       3.078   5.578  17.844  0.00  0.00    +0.000 A 
ATOM     13  C   UNL     1       4.357   5.949  17.412  0.00  0.00    +0.000 A 
BRANCH  11  14
ATOM     14  N   UNL     1       1.314   3.897  17.968  0.00  0.00    +0.000 N 
ATOM     15  H   UNL     1       0.753   3.556  17.189  0.00  0.00    +0.000 HD
BRANCH  14  16
ATOM     16  S   UNL     1       0.973   3.128  19.415  0.00  0.00    +0.000 S 
ATOM     17  C   UNL     1       2.539   2.440  19.927  0.00  0.00    +0.000 C 
ATOM     18  O   UNL     1       0.572   4.123  20.391  0.00  0.00    +0.000 OA
ATOM     19  O   UNL     1       0.107   2.020  19.073  0.00  0.00    +0.000 OA
ENDBRANCH  14  16
ENDBRANCH  11  14
ENDBRANCH   7   8
BRANCH   7  21
ATOM     20  C   UNL     1       7.787   5.428  13.803  0.00  0.00    +0.000 C 
ATOM     21  C   UNL     1       6.421   5.359  14.493  0.00  0.00    +0.000 C 
ATOM     22  C   UNL     1       5.713   4.084  14.017  0.00  0.00    +0.000 C 
ENDBRANCH   7  21
ENDBRANCH   1   7
BRANCH   3  23
ATOM     23  C   UNL     1       8.981   8.934  18.489  0.00  0.00    +0.000 C 
BRANCH  23  24
ATOM     24  C   UNL     1       9.118  10.429  18.424  0.00  0.00    +0.000 A 
ATOM     25  C   UNL     1       8.302  11.174  17.566  0.00  0.00    +0.000 A 
ATOM     26  C   UNL     1       8.366  12.569  17.555  0.00  0.00    +0.000 A 
ATOM     27  C   UNL     1       9.246  13.265  18.402  0.00  0.00    +0.000 A 
ATOM     28  C   UNL     1      10.069  12.499  19.249  0.00  0.00    +0.000 A 
ATOM     29  C   UNL     1      10.006  11.104  19.263  0.00  0.00    +0.000 A 
BRANCH  27  30
ATOM     30  C   UNL     1       9.315  14.800  18.434  0.00  0.00    +0.000 C 
ATOM     31  C   UNL     1      10.440  15.388  17.554  0.00  0.00    +0.000 C 
ATOM     32  C   UNL     1       7.980  15.389  17.923  0.00  0.00    +0.000 C 
ATOM     33  C   UNL     1       9.559  15.284  19.879  0.00  0.00    +0.000 C 
ENDBRANCH  27  30
ENDBRANCH  23  24
ENDBRANCH   3  23
TORSDOF 9
ENDMDL
MODEL 3
REMARK VINA RESULT:      -7.3      0.905      1.219
REMARK  Name = 
REMARK  15 active torsions:
REMARK  status: ('A' for Active; 'I' for Inactive)
REMARK    1  A    between atoms: C_1  and  C_2
REMARK    2  A    between atoms: C_2  and  C_3
REMARK    3  A    between atoms: C_2  and  C_4
REMARK    4  A    between atoms: C_4  and  N_5
REMARK    5  A    between atoms: C_4  and  C_20
REMARK    6  A    between atoms: C_6  and  S_7
REMARK    7  A    between atoms: N_8  and  C_9
REMARK    8  A    between atoms: C_9  and  C_10
REMARK    9  A    between atoms: C_13  and  C_14
REMARK   10  A    between atoms: C_14  and  C_15
REMARK   11  A    between atoms: C_14  and  C_16
REMARK   12  A    between atoms: C_14  and  C_17
REMARK   13  A    between atoms: C_23  and  N_24
REMARK   14  A    between atoms: N_24  and  S_25
REMARK   15  A    between atoms: S_25  and  C_26
REMARK                            x       y       z     vdW  Elec       q    Type
REMARK                         _______ _______ _______ _____ _____    ______ ____
ROOT
ATOM      1  N   UNL     1       1.713   6.257  20.064  0.00  0.00    +0.000 NA
ATOM      2  C   UNL     1       1.968   7.342  19.424  0.00  0.00    +0.000 C 
ATOM      3  N   UNL     1       1.754   8.529  20.075  0.00  0.00    +0.000 N 
ATOM      4  H   UNL     1       1.313   8.386  20.978  0.00  0.00    +0.000 HD
ENDROOT
BRANCH   2   5
ATOM      5  S   UNL     1       2.616   7.500  17.798  0.00  0.00    +0.000 S 
ATOM      6  H   UNL     1       3.721   6.778  17.957  0.00  0.00    +0.000 HD
ENDBRANCH   2   5
BRANCH   1   7
ATOM      7  C   UNL     1       1.859   4.852  19.644  0.00  0.00    +0.000 C 
BRANCH   7   8
ATOM      8  C   UNL     1       3.246   4.501  19.100  0.00  0.00    +0.000 A 
ATOM      9  C   UNL     1       4.411   5.072  19.627  0.00  0.00    +0.000 A 
ATOM     10  C   UNL     1       5.598   5.051  18.903  0.00  0.00    +0.000 A 
ATOM     11  C   UNL     1       5.672   4.348  17.706  0.00  0.00    +0.000 A 
ATOM     12  C   UNL     1       4.576   3.627  17.248  0.00  0.00    +0.000 A 
ATOM     13  C   UNL     1       3.362   3.707  17.940  0.00  0.00    +0.000 A 
BRANCH  11  14
ATOM     14  N   UNL     1       6.868   4.407  16.941  0.00  0.00    +0.000 N 
ATOM     15  H   UNL     1       7.234   3.523  16.590  0.00  0.00    +0.000 HD
BRANCH  14  16
ATOM     16  S   UNL     1       7.096   5.683  15.882  0.00  0.00    +0.000 S 
ATOM     17  C   UNL     1       5.443   6.149  15.393  0.00  0.00    +0.000 C 
ATOM     18  O   UNL     1       7.686   6.793  16.606  0.00  0.00    +0.000 OA
ATOM     19  O   UNL     1       7.745   5.115  14.720  0.00  0.00    +0.000 OA
ENDBRANCH  14  16
ENDBRANCH  11  14
ENDBRANCH   7   8
BRANCH   7  21
ATOM     20  C   UNL     1       0.656   2.583  20.146  0.00  0.00    +0.000 C 
ATOM     21  C   UNL     1       1.238   3.884  20.708  0.00  0.00    +0.000 C 
ATOM     22  C   UNL     1       2.233   3.518  21.818  0.00  0.00    +0.000 C 
ENDBRANCH   7  21
ENDBRANCH   1   7
BRANCH   3  23
ATOM     23  C   UNL     1       1.333   9.743  19.404  0.00  0.00    +0.000 C 
BRANCH  23  24
ATOM     24  C   UNL     1       0.511  10.603  20.322  0.00  0.00    +0.000 A 
ATOM     25  C   UNL     1       0.330  11.961  20.040  0.00  0.00    +0.000 A 
ATOM     26  C   UNL     1      -0.495  12.752  20.842  0.00  0.00    +0.000 A 
ATOM     27  C   UNL     1      -1.167  12.212  21.951  0.00  0.00    +0.000 A 
ATOM     28  C   UNL     1      -0.964  10.847  22.229  0.00  0.00    +0.000 A 
ATOM     29  C   UNL     1      -0.140  10.053  21.427  0.00  0.00    +0.000 A 
BRANCH  27  30
ATOM     30  C   UNL     1      -2.107  13.051  22.833  0.00  0.00    +0.000 C 
ATOM     31  C   UNL     1      -1.366  14.024  23.776  0.00  0.00    +0.000 C 
ATOM     32  C   UNL     1      -3.036  13.901  21.937  0.00  0.00    +0.000 C 
ATOM     33  C   UNL     1      -2.968  12.121  23.714  0.00  0.00    +0.000 C 
ENDBRANCH  27  30
ENDBRANCH  23  24
ENDBRANCH   3  23
TORSDOF 9
ENDMDL
MODEL 4
REMARK VINA RESULT:      -7.2      4.434      9.658
REMARK  Name = 
REMARK  15 active torsions:
REMARK  status: ('A' for Active; 'I' for Inactive)
REMARK    1  A    between atoms: C_1  and  C_2
REMARK    2  A    between atoms: C_2  and  C_3
REMARK    3  A    between atoms: C_2  and  C_4
REMARK    4  A    between atoms: C_4  and  N_5
REMARK    5  A    between atoms: C_4  and  C_20
REMARK    6  A    between atoms: C_6  and  S_7
REMARK    7  A    between atoms: N_8  and  C_9
REMARK    8  A    between atoms: C_9  and  C_10
REMARK    9  A    between atoms: C_13  and  C_14
REMARK   10  A    between atoms: C_14  and  C_15
REMARK   11  A    between atoms: C_14  and  C_16
REMARK   12  A    between atoms: C_14  and  C_17
REMARK   13  A    between atoms: C_23  and  N_24
REMARK   14  A    between atoms: N_24  and  S_25
REMARK   15  A    between atoms: S_25  and  C_26
REMARK                            x       y       z     vdW  Elec       q    Type
REMARK                         _______ _______ _______ _____ _____    ______ ____
ROOT
ATOM      1  N   UNL     1      -0.552   9.824  17.869  0.00  0.00    +0.000 NA
ATOM      2  C   UNL     1       0.625   9.844  18.386  0.00  0.00    +0.000 C 
ATOM      3  N   UNL     1       1.643   9.269  17.671  0.00  0.00    +0.000 N 
ATOM      4  H   UNL     1       1.298   8.801  16.839  0.00  0.00    +0.000 HD
ENDROOT
BRANCH   2   5
ATOM      5  S   UNL     1       1.114  10.571  19.909  0.00  0.00    +0.000 S 
ATOM      6  H   UNL     1       1.344   9.455  20.593  0.00  0.00    +0.000 HD
ENDBRANCH   2   5
BRANCH   1   7
ATOM      7  C   UNL     1      -1.821  10.369  18.381  0.00  0.00    +0.000 C 
BRANCH   7   8
ATOM      8  C   UNL     1      -1.725  11.808  18.894  0.00  0.00    +0.000 A 
ATOM      9  C   UNL     1      -1.015  12.793  18.196  0.00  0.00    +0.000 A 
ATOM     10  C   UNL     1      -0.615  13.961  18.835  0.00  0.00    +0.000 A 
ATOM     11  C   UNL     1      -1.030  14.221  20.136  0.00  0.00    +0.000 A 
ATOM     12  C   UNL     1      -1.881  13.338  20.789  0.00  0.00    +0.000 A 
ATOM     13  C   UNL     1      -2.225  12.130  20.172  0.00  0.00    +0.000 A 
BRANCH  11  14
ATOM     14  N   UNL     1      -0.544  15.380  20.800  0.00  0.00    +0.000 N 
ATOM     15  H   UNL     1      -1.233  15.960  21.276  0.00  0.00    +0.000 HD
BRANCH  14  16
ATOM     16  S   UNL     1       0.923  15.305  21.600  0.00  0.00    +0.000 S 
ATOM     17  C   UNL     1       2.105  15.913  20.408  0.00  0.00    +0.000 C 
ATOM     18  O   UNL     1       0.893  16.226  22.722  0.00  0.00    +0.000 OA
ATOM     19  O   UNL     1       1.192  13.896  21.793  0.00  0.00    +0.000 OA
ENDBRANCH  14  16
ENDBRANCH  11  14
ENDBRANCH   7   8
BRANCH   7  21
ATOM     20  C   UNL     1      -4.249  10.912  17.567  0.00  0.00    +0.000 C 
ATOM     21  C   UNL     1      -3.006  10.029  17.413  0.00  0.00    +0.000 C 
ATOM     22  C   UNL     1      -2.584  10.056  15.938  0.00  0.00    +0.000 C 
ENDBRANCH   7  21
ENDBRANCH   1   7
BRANCH   3  23
ATOM     23  C   UNL     1       2.777   8.607  18.286  0.00  0.00    +0.000 C 
BRANCH  23  24
ATOM     24  C   UNL     1       2.437   7.189  18.647  0.00  0.00    +0.000 A 
ATOM     25  C   UNL     1       2.460   6.189  17.668  0.00  0.00    +0.000 A 
ATOM     26  C   UNL     1       2.223   4.856  18.007  0.00  0.00    +0.000 A 
ATOM     27  C   UNL     1       1.957   4.477  19.334  0.00  0.00    +0.000 A 
ATOM     28  C   UNL     1       1.925   5.497  20.303  0.00  0.00    +0.000 A 
ATOM     29  C   UNL     1       2.163   6.832  19.968  0.00  0.00    +0.000 A 
BRANCH  27  30
ATOM     30  C   UNL     1       1.724   3.013  19.742  0.00  0.00    +0.000 C 
ATOM     31  C   UNL     1       2.967   2.114  19.556  0.00  0.00    +0.000 C 
ATOM     32  C   UNL     1       1.331   2.947  21.235  0.00  0.00    +0.000 C 
ATOM     33  C   UNL     1       0.587   2.407  18.893  0.00  0.00    +0.000 C 
ENDBRANCH  27  30
ENDBRANCH  23  24
ENDBRANCH   3  23
TORSDOF 9
ENDMDL
MODEL 5
REMARK VINA RESULT:      -7.2      4.970     10.736
REMARK  Name = 
REMARK  15 active torsions:
REMARK  status: ('A' for Active; 'I' for Inactive)
REMARK    1  A    between atoms: C_1  and  C_2
REMARK    2  A    between atoms: C_2  and  C_3
REMARK    3  A    between atoms: C_2  and  C_4
REMARK    4  A    between atoms: C_4  and  N_5
REMARK    5  A    between atoms: C_4  and  C_20
REMARK    6  A    between atoms: C_6  and  S_7
REMARK    7  A    between atoms: N_8  and  C_9
REMARK    8  A    between atoms: C_9  and  C_10
REMARK    9  A    between atoms: C_13  and  C_14
REMARK   10  A    between atoms: C_14  and  C_15
REMARK   11  A    between atoms: C_14  and  C_16
REMARK   12  A    between atoms: C_14  and  C_17
REMARK   13  A    between atoms: C_23  and  N_24
REMARK   14  A    between atoms: N_24  and  S_25
REMARK   15  A    between atoms: S_25  and  C_26
REMARK                            x       y       z     vdW  Elec       q    Type
REMARK                         _______ _______ _______ _____ _____    ______ ____
ROOT
ATOM      1  N   UNL     1       1.241  11.482  19.879  0.00  0.00    +0.000 NA
ATOM      2  C   UNL     1       0.937  10.449  19.176  0.00  0.00    +0.000 C 
ATOM      3  N   UNL     1       1.755   9.354  19.269  0.00  0.00    +0.000 N 
ATOM      4  H   UNL     1       2.578   9.548  19.830  0.00  0.00    +0.000 HD
ENDROOT
BRANCH   2   5
ATOM      5  S   UNL     1      -0.453  10.243  18.120  0.00  0.00    +0.000 S 
ATOM      6  H   UNL     1      -1.411  10.508  19.004  0.00  0.00    +0.000 HD
ENDBRANCH   2   5
BRANCH   1   7
ATOM      7  C   UNL     1       0.555  12.780  20.003  0.00  0.00    +0.000 C 
BRANCH   7   8
ATOM      8  C   UNL     1      -0.257  12.940  21.291  0.00  0.00    +0.000 A 
ATOM      9  C   UNL     1      -0.572  11.845  22.105  0.00  0.00    +0.000 A 
ATOM     10  C   UNL     1      -1.602  11.929  23.034  0.00  0.00    +0.000 A 
ATOM     11  C   UNL     1      -2.243  13.143  23.258  0.00  0.00    +0.000 A 
ATOM     12  C   UNL     1      -1.829  14.287  22.586  0.00  0.00    +0.000 A 
ATOM     13  C   UNL     1      -0.841  14.186  21.599  0.00  0.00    +0.000 A 
BRANCH  11  14
ATOM     14  N   UNL     1      -3.346  13.191  24.151  0.00  0.00    +0.000 N 
ATOM     15  H   UNL     1      -3.333  13.922  24.861  0.00  0.00    +0.000 HD
BRANCH  14  16
ATOM     16  S   UNL     1      -4.880  12.861  23.570  0.00  0.00    +0.000 S 
ATOM     17  C   UNL     1      -5.714  14.440  23.610  0.00  0.00    +0.000 C 
ATOM     18  O   UNL     1      -4.776  12.437  22.186  0.00  0.00    +0.000 OA
ATOM     19  O   UNL     1      -5.504  12.019  24.569  0.00  0.00    +0.000 OA
ENDBRANCH  14  16
ENDBRANCH  11  14
ENDBRANCH   7   8
BRANCH   7  21
ATOM     20  C   UNL     1       2.717  14.159  20.526  0.00  0.00    +0.000 C 
ATOM     21  C   UNL     1       1.509  13.957  19.604  0.00  0.00    +0.000 C 
ATOM     22  C   UNL     1       2.027  13.829  18.165  0.00  0.00    +0.000 C 
ENDBRANCH   7  21
ENDBRANCH   1   7
BRANCH   3  23
ATOM     23  C   UNL     1       2.000   8.444  18.167  0.00  0.00    +0.000 C 
BRANCH  23  24
ATOM     24  C   UNL     1       2.179   7.038  18.665  0.00  0.00    +0.000 A 
ATOM     25  C   UNL     1       2.216   6.777  20.039  0.00  0.00    +0.000 A 
ATOM     26  C   UNL     1       2.303   5.467  20.513  0.00  0.00    +0.000 A 
ATOM     27  C   UNL     1       2.352   4.374  19.631  0.00  0.00    +0.000 A 
ATOM     28  C   UNL     1       2.326   4.655  18.252  0.00  0.00    +0.000 A 
ATOM     29  C   UNL     1       2.238   5.965  17.775  0.00  0.00    +0.000 A 
BRANCH  27  30
ATOM     30  C   UNL     1       2.414   2.920  20.124  0.00  0.00    +0.000 C 
ATOM     31  C   UNL     1       1.837   2.722  21.543  0.00  0.00    +0.000 C 
ATOM     32  C   UNL     1       1.603   2.014  19.171  0.00  0.00    +0.000 C 
ATOM     33  C   UNL     1       3.880   2.438  20.153  0.00  0.00    +0.000 C 
ENDBRANCH  27  30
ENDBRANCH  23  24
ENDBRANCH   3  23
TORSDOF 9
ENDMDL
MODEL 6
REMARK VINA RESULT:      -7.2      5.798     11.441
REMARK  Name = 
REMARK  15 active torsions:
REMARK  status: ('A' for Active; 'I' for Inactive)
REMARK    1  A    between atoms: C_1  and  C_2
REMARK    2  A    between atoms: C_2  and  C_3
REMARK    3  A    between atoms: C_2  and  C_4
REMARK    4  A    between atoms: C_4  and  N_5
REMARK    5  A    between atoms: C_4  and  C_20
REMARK    6  A    between atoms: C_6  and  S_7
REMARK    7  A    between atoms: N_8  and  C_9
REMARK    8  A    between atoms: C_9  and  C_10
REMARK    9  A    between atoms: C_13  and  C_14
REMARK   10  A    between atoms: C_14  and  C_15
REMARK   11  A    between atoms: C_14  and  C_16
REMARK   12  A    between atoms: C_14  and  C_17
REMARK   13  A    between atoms: C_23  and  N_24
REMARK   14  A    between atoms: N_24  and  S_25
REMARK   15  A    between atoms: S_25  and  C_26
REMARK                            x       y       z     vdW  Elec       q    Type
REMARK                         _______ _______ _______ _____ _____    ______ ____
ROOT
ATOM      1  N   UNL     1      -0.199  13.082  21.026  0.00  0.00    +0.000 NA
ATOM      2  C   UNL     1      -0.276  12.230  20.066  0.00  0.00    +0.000 C 
ATOM      3  N   UNL     1       0.737  11.316  19.946  0.00  0.00    +0.000 N 
ATOM      4  H   UNL     1       1.491  11.504  20.599  0.00  0.00    +0.000 HD
ENDROOT
BRANCH   2   5
ATOM      5  S   UNL     1      -1.569  12.057  18.888  0.00  0.00    +0.000 S 
ATOM      6  H   UNL     1      -1.742  13.342  18.598  0.00  0.00    +0.000 HD
ENDBRANCH   2   5
BRANCH   1   7
ATOM      7  C   UNL     1      -1.128  14.157  21.416  0.00  0.00    +0.000 C 
BRANCH   7   8
ATOM      8  C   UNL     1      -2.110  13.765  22.523  0.00  0.00    +0.000 A 
ATOM      9  C   UNL     1      -2.221  12.445  22.977  0.00  0.00    +0.000 A 
ATOM     10  C   UNL     1      -3.346  12.033  23.684  0.00  0.00    +0.000 A 
ATOM     11  C   UNL     1      -4.311  12.960  24.060  0.00  0.00    +0.000 A 
ATOM     12  C   UNL     1      -4.137  14.309  23.772  0.00  0.00    +0.000 A 
ATOM     13  C   UNL     1      -3.041  14.712  23.000  0.00  0.00    +0.000 A 
BRANCH  11  14
ATOM     14  N   UNL     1      -5.491  12.508  24.709  0.00  0.00    +0.000 N 
ATOM     15  H   UNL     1      -5.584  12.727  25.700  0.00  0.00    +0.000 HD
BRANCH  14  16
ATOM     16  S   UNL     1      -6.945  12.556  23.882  0.00  0.00    +0.000 S 
ATOM     17  C   UNL     1      -6.478  12.893  22.192  0.00  0.00    +0.000 C 
ATOM     18  O   UNL     1      -7.555  11.240  23.932  0.00  0.00    +0.000 OA
ATOM     19  O   UNL     1      -7.638  13.725  24.379  0.00  0.00    +0.000 OA
ENDBRANCH  14  16
ENDBRANCH  11  14
ENDBRANCH   7   8
BRANCH   7  21
ATOM     20  C   UNL     1       1.014  15.425  22.223  0.00  0.00    +0.000 C 
ATOM     21  C   UNL     1      -0.371  15.519  21.575  0.00  0.00    +0.000 C 
ATOM     22  C   UNL     1      -0.223  16.266  20.243  0.00  0.00    +0.000 C 
ENDBRANCH   7  21
ENDBRANCH   1   7
BRANCH   3  23
ATOM     23  C   UNL     1       1.186  10.783  18.674  0.00  0.00    +0.000 C 
BRANCH  23  24
ATOM     24  C   UNL     1       1.596   9.344  18.811  0.00  0.00    +0.000 A 
ATOM     25  C   UNL     1       2.229   8.689  17.751  0.00  0.00    +0.000 A 
ATOM     26  C   UNL     1       2.685   7.376  17.894  0.00  0.00    +0.000 A 
ATOM     27  C   UNL     1       2.524   6.677  19.103  0.00  0.00    +0.000 A 
ATOM     28  C   UNL     1       1.873   7.348  20.155  0.00  0.00    +0.000 A 
ATOM     29  C   UNL     1       1.418   8.661  20.015  0.00  0.00    +0.000 A 
BRANCH  27  30
ATOM     30  C   UNL     1       3.044   5.244  19.300  0.00  0.00    +0.000 C 
ATOM     31  C   UNL     1       2.672   4.287  18.147  0.00  0.00    +0.000 C 
ATOM     32  C   UNL     1       4.586   5.262  19.400  0.00  0.00    +0.000 C 
ATOM     33  C   UNL     1       2.461   4.649  20.599  0.00  0.00    +0.000 C 
ENDBRANCH  27  30
ENDBRANCH  23  24
ENDBRANCH   3  23
TORSDOF 9
ENDMDL
MODEL 7
REMARK VINA RESULT:      -7.2      5.108     10.904
REMARK  Name = 
REMARK  15 active torsions:
REMARK  status: ('A' for Active; 'I' for Inactive)
REMARK    1  A    between atoms: C_1  and  C_2
REMARK    2  A    between atoms: C_2  and  C_3
REMARK    3  A    between atoms: C_2  and  C_4
REMARK    4  A    between atoms: C_4  and  N_5
REMARK    5  A    between atoms: C_4  and  C_20
REMARK    6  A    between atoms: C_6  and  S_7
REMARK    7  A    between atoms: N_8  and  C_9
REMARK    8  A    between atoms: C_9  and  C_10
REMARK    9  A    between atoms: C_13  and  C_14
REMARK   10  A    between atoms: C_14  and  C_15
REMARK   11  A    between atoms: C_14  and  C_16
REMARK   12  A    between atoms: C_14  and  C_17
REMARK   13  A    between atoms: C_23  and  N_24
REMARK   14  A    between atoms: N_24  and  S_25
REMARK   15  A    between atoms: S_25  and  C_26
REMARK                            x       y       z     vdW  Elec       q    Type
REMARK                         _______ _______ _______ _____ _____    ______ ____
ROOT
ATOM      1  N   UNL     1       0.990  11.409  20.360  0.00  0.00    +0.000 NA
ATOM      2  C   UNL     1       0.839  10.456  19.510  0.00  0.00    +0.000 C 
ATOM      3  N   UNL     1       1.595   9.327  19.682  0.00  0.00    +0.000 N 
ATOM      4  H   UNL     1       2.269   9.438  20.432  0.00  0.00    +0.000 HD
ENDROOT
BRANCH   2   5
ATOM      5  S   UNL     1      -0.272  10.399  18.149  0.00  0.00    +0.000 S 
ATOM      6  H   UNL     1      -1.389  10.137  18.821  0.00  0.00    +0.000 HD
ENDBRANCH   2   5
BRANCH   1   7
ATOM      7  C   UNL     1       0.315  12.716  20.448  0.00  0.00    +0.000 C 
BRANCH   7   8
ATOM      8  C   UNL     1      -0.677  12.834  21.608  0.00  0.00    +0.000 A 
ATOM      9  C   UNL     1      -1.071  11.718  22.356  0.00  0.00    +0.000 A 
ATOM     10  C   UNL     1      -2.226  11.759  23.130  0.00  0.00    +0.000 A 
ATOM     11  C   UNL     1      -2.927  12.951  23.273  0.00  0.00    +0.000 A 
ATOM     12  C   UNL     1      -2.456  14.116  22.680  0.00  0.00    +0.000 A 
ATOM     13  C   UNL     1      -1.335  14.058  21.843  0.00  0.00    +0.000 A 
BRANCH  11  14
ATOM     14  N   UNL     1      -4.147  12.954  24.000  0.00  0.00    +0.000 N 
ATOM     15  H   UNL     1      -4.133  13.389  24.922  0.00  0.00    +0.000 HD
BRANCH  14  16
ATOM     16  S   UNL     1      -5.585  13.194  23.178  0.00  0.00    +0.000 S 
ATOM     17  C   UNL     1      -6.828  12.499  24.255  0.00  0.00    +0.000 C 
ATOM     18  O   UNL     1      -5.828  14.620  23.064  0.00  0.00    +0.000 OA
ATOM     19  O   UNL     1      -5.510  12.348  22.006  0.00  0.00    +0.000 OA
ENDBRANCH  14  16
ENDBRANCH  11  14
ENDBRANCH   7   8
BRANCH   7  21
ATOM     20  C   UNL     1       2.741  13.626  20.815  0.00  0.00    +0.000 C 
ATOM     21  C   UNL     1       1.339  13.887  20.255  0.00  0.00    +0.000 C 
ATOM     22  C   UNL     1       1.484  14.302  18.785  0.00  0.00    +0.000 C 
ENDBRANCH   7  21
ENDBRANCH   1   7
BRANCH   3  23
ATOM     23  C   UNL     1       2.074   8.510  18.583  0.00  0.00    +0.000 C 
BRANCH  23  24
ATOM     24  C   UNL     1       2.108   7.059  18.971  0.00  0.00    +0.000 A 
ATOM     25  C   UNL     1       2.411   6.083  18.016  0.00  0.00    +0.000 A 
ATOM     26  C   UNL     1       2.524   4.740  18.381  0.00  0.00    +0.000 A 
ATOM     27  C   UNL     1       2.340   4.329  19.712  0.00  0.00    +0.000 A 
ATOM     28  C   UNL     1       2.023   5.322  20.657  0.00  0.00    +0.000 A 
ATOM     29  C   UNL     1       1.911   6.667  20.295  0.00  0.00    +0.000 A 
BRANCH  27  30
ATOM     30  C   UNL     1       2.490   2.862  20.149  0.00  0.00    +0.000 C 
ATOM     31  C   UNL     1       1.691   1.871  19.273  0.00  0.00    +0.000 C 
ATOM     32  C   UNL     1       3.976   2.448  20.069  0.00  0.00    +0.000 C 
ATOM     33  C   UNL     1       1.996   2.695  21.601  0.00  0.00    +0.000 C 
ENDBRANCH  27  30
ENDBRANCH  23  24
ENDBRANCH   3  23
TORSDOF 9
ENDMDL
MODEL 8
REMARK VINA RESULT:      -7.1      6.101      8.429
REMARK  Name = 
REMARK  15 active torsions:
REMARK  status: ('A' for Active; 'I' for Inactive)
REMARK    1  A    between atoms: C_1  and  C_2
REMARK    2  A    between atoms: C_2  and  C_3
REMARK    3  A    between atoms: C_2  and  C_4
REMARK    4  A    between atoms: C_4  and  N_5
REMARK    5  A    between atoms: C_4  and  C_20
REMARK    6  A    between atoms: C_6  and  S_7
REMARK    7  A    between atoms: N_8  and  C_9
REMARK    8  A    between atoms: C_9  and  C_10
REMARK    9  A    between atoms: C_13  and  C_14
REMARK   10  A    between atoms: C_14  and  C_15
REMARK   11  A    between atoms: C_14  and  C_16
REMARK   12  A    between atoms: C_14  and  C_17
REMARK   13  A    between atoms: C_23  and  N_24
REMARK   14  A    between atoms: N_24  and  S_25
REMARK   15  A    between atoms: S_25  and  C_26
REMARK                            x       y       z     vdW  Elec       q    Type
REMARK                         _______ _______ _______ _____ _____    ______ ____
ROOT
ATOM      1  N   UNL     1       6.970   6.702  16.621  0.00  0.00    +0.000 NA
ATOM      2  C   UNL     1       7.504   7.106  17.719  0.00  0.00    +0.000 C 
ATOM      3  N   UNL     1       7.828   8.434  17.817  0.00  0.00    +0.000 N 
ATOM      4  H   UNL     1       7.685   8.920  16.938  0.00  0.00    +0.000 HD
ENDROOT
BRANCH   2   5
ATOM      5  S   UNL     1       7.838   6.158  19.160  0.00  0.00    +0.000 S 
ATOM      6  H   UNL     1       9.056   6.622  19.421  0.00  0.00    +0.000 HD
ENDBRANCH   2   5
BRANCH   1   7
ATOM      7  C   UNL     1       6.502   5.361  16.232  0.00  0.00    +0.000 C 
BRANCH   7   8
ATOM      8  C   UNL     1       5.349   4.826  17.085  0.00  0.00    +0.000 A 
ATOM      9  C   UNL     1       4.079   5.414  17.058  0.00  0.00    +0.000 A 
ATOM     10  C   UNL     1       3.171   5.181  18.085  0.00  0.00    +0.000 A 
ATOM     11  C   UNL     1       3.467   4.257  19.081  0.00  0.00    +0.000 A 
ATOM     12  C   UNL     1       4.650   3.530  19.032  0.00  0.00    +0.000 A 
ATOM     13  C   UNL     1       5.594   3.817  18.039  0.00  0.00    +0.000 A 
BRANCH  11  14
ATOM     14  N   UNL     1       2.563   4.092  20.165  0.00  0.00    +0.000 N 
ATOM     15  H   UNL     1       2.049   4.919  20.465  0.00  0.00    +0.000 HD
BRANCH  14  16
ATOM     16  S   UNL     1       1.669   2.682  20.273  0.00  0.00    +0.000 S 
ATOM     17  C   UNL     1       0.335   2.917  19.109  0.00  0.00    +0.000 C 
ATOM     18  O   UNL     1       2.484   1.574  19.812  0.00  0.00    +0.000 OA
ATOM     19  O   UNL     1       1.090   2.688  21.599  0.00  0.00    +0.000 OA
ENDBRANCH  14  16
ENDBRANCH  11  14
ENDBRANCH   7   8
BRANCH   7  21
ATOM     20  C   UNL     1       7.659   5.419  13.885  0.00  0.00    +0.000 C 
ATOM     21  C   UNL     1       6.358   5.250  14.675  0.00  0.00    +0.000 C 
ATOM     22  C   UNL     1       5.706   3.930  14.240  0.00  0.00    +0.000 C 
ENDBRANCH   7  21
ENDBRANCH   1   7
BRANCH   3  23
ATOM     23  C   UNL     1       8.959   8.926  18.579  0.00  0.00    +0.000 C 
BRANCH  23  24
ATOM     24  C   UNL     1       8.991  10.428  18.578  0.00  0.00    +0.000 A 
ATOM     25  C   UNL     1       9.837  11.114  19.456  0.00  0.00    +0.000 A 
ATOM     26  C   UNL     1       9.934  12.507  19.409  0.00  0.00    +0.000 A 
ATOM     27  C   UNL     1       9.191  13.258  18.483  0.00  0.00    +0.000 A 
ATOM     28  C   UNL     1       8.336  12.553  17.616  0.00  0.00    +0.000 A 
ATOM     29  C   UNL     1       8.238  11.160  17.659  0.00  0.00    +0.000 A 
BRANCH  27  30
ATOM     30  C   UNL     1       9.302  14.789  18.387  0.00  0.00    +0.000 C 
ATOM     31  C   UNL     1       8.040  15.465  17.808  0.00  0.00    +0.000 C 
ATOM     32  C   UNL     1       9.532  15.380  19.796  0.00  0.00    +0.000 C 
ATOM     33  C   UNL     1      10.489  15.172  17.478  0.00  0.00    +0.000 C 
ENDBRANCH  27  30
ENDBRANCH  23  24
ENDBRANCH   3  23
TORSDOF 9
ENDMDL
MODEL 9
REMARK VINA RESULT:      -7.1      5.737      8.289
REMARK  Name = 
REMARK  15 active torsions:
REMARK  status: ('A' for Active; 'I' for Inactive)
REMARK    1  A    between atoms: C_1  and  C_2
REMARK    2  A    between atoms: C_2  and  C_3
REMARK    3  A    between atoms: C_2  and  C_4
REMARK    4  A    between atoms: C_4  and  N_5
REMARK    5  A    between atoms: C_4  and  C_20
REMARK    6  A    between atoms: C_6  and  S_7
REMARK    7  A    between atoms: N_8  and  C_9
REMARK    8  A    between atoms: C_9  and  C_10
REMARK    9  A    between atoms: C_13  and  C_14
REMARK   10  A    between atoms: C_14  and  C_15
REMARK   11  A    between atoms: C_14  and  C_16
REMARK   12  A    between atoms: C_14  and  C_17
REMARK   13  A    between atoms: C_23  and  N_24
REMARK   14  A    between atoms: N_24  and  S_25
REMARK   15  A    between atoms: S_25  and  C_26
REMARK                            x       y       z     vdW  Elec       q    Type
REMARK                         _______ _______ _______ _____ _____    ______ ____
ROOT
ATOM      1  N   UNL     1       6.775   6.778  16.474  0.00  0.00    +0.000 NA
ATOM      2  C   UNL     1       7.342   7.076  17.589  0.00  0.00    +0.000 C 
ATOM      3  N   UNL     1       7.802   8.357  17.746  0.00  0.00    +0.000 N 
ATOM      4  H   UNL     1       7.715   8.893  16.889  0.00  0.00    +0.000 HD
ENDROOT
BRANCH   2   5
ATOM      5  S   UNL     1       7.568   6.035  18.988  0.00  0.00    +0.000 S 
ATOM      6  H   UNL     1       8.896   5.979  18.977  0.00  0.00    +0.000 HD
ENDBRANCH   2   5
BRANCH   1   7
ATOM      7  C   UNL     1       6.173   5.510  16.026  0.00  0.00    +0.000 C 
BRANCH   7   8
ATOM      8  C   UNL     1       4.807   5.210  16.648  0.00  0.00    +0.000 A 
ATOM      9  C   UNL     1       4.025   6.215  17.230  0.00  0.00    +0.000 A 
ATOM     10  C   UNL     1       2.998   5.891  18.109  0.00  0.00    +0.000 A 
ATOM     11  C   UNL     1       2.652   4.561  18.317  0.00  0.00    +0.000 A 
ATOM     12  C   UNL     1       3.300   3.551  17.616  0.00  0.00    +0.000 A 
ATOM     13  C   UNL     1       4.380   3.873  16.786  0.00  0.00    +0.000 A 
BRANCH  11  14
ATOM     14  N   UNL     1       1.656   4.246  19.280  0.00  0.00    +0.000 N 
ATOM     15  H   UNL     1       0.685   4.374  18.997  0.00  0.00    +0.000 HD
BRANCH  14  16
ATOM     16  S   UNL     1       1.882   2.927  20.285  0.00  0.00    +0.000 S 
ATOM     17  C   UNL     1       1.357   1.531  19.305  0.00  0.00    +0.000 C 
ATOM     18  O   UNL     1       3.301   2.784  20.558  0.00  0.00    +0.000 OA
ATOM     19  O   UNL     1       0.924   3.086  21.359  0.00  0.00    +0.000 OA
ENDBRANCH  14  16
ENDBRANCH  11  14
ENDBRANCH   7   8
BRANCH   7  21
ATOM     20  C   UNL     1       7.739   5.415  13.932  0.00  0.00    +0.000 C 
ATOM     21  C   UNL     1       6.307   5.347  14.473  0.00  0.00    +0.000 C 
ATOM     22  C   UNL     1       5.668   4.049  13.964  0.00  0.00    +0.000 C 
ENDBRANCH   7  21
ENDBRANCH   1   7
BRANCH   3  23
ATOM     23  C   UNL     1       8.974   8.695  18.531  0.00  0.00    +0.000 C 
BRANCH  23  24
ATOM     24  C   UNL     1       9.020  10.170  18.815  0.00  0.00    +0.000 A 
ATOM     25  C   UNL     1       9.383  10.631  20.084  0.00  0.00    +0.000 A 
ATOM     26  C   UNL     1       9.506  11.999  20.337  0.00  0.00    +0.000 A 
ATOM     27  C   UNL     1       9.271  12.950  19.330  0.00  0.00    +0.000 A 
ATOM     28  C   UNL     1       8.893  12.469  18.062  0.00  0.00    +0.000 A 
ATOM     29  C   UNL     1       8.771  11.101  17.806  0.00  0.00    +0.000 A 
BRANCH  27  30
ATOM     30  C   UNL     1       9.430  14.460  19.571  0.00  0.00    +0.000 C 
ATOM     31  C   UNL     1      10.877  14.885  19.903  0.00  0.00    +0.000 C 
ATOM     32  C   UNL     1       9.006  15.234  18.302  0.00  0.00    +0.000 C 
ATOM     33  C   UNL     1       8.538  14.899  20.751  0.00  0.00    +0.000 C 
ENDBRANCH  27  30
ENDBRANCH  23  24
ENDBRANCH   3  23
TORSDOF 9
ENDMDL
