MODEL 1
REMARK VINA RESULT:      -7.3      0.000      0.000
REMARK  Name = 
REMARK  6 active torsions:
REMARK  status: ('A' for Active; 'I' for Inactive)
REMARK    1  A    between atoms: C_2  and  C_3
REMARK    2  A    between atoms: C_3  and  O_4
REMARK    3  A    between atoms: O_4  and  C_5
REMARK    4  A    between atoms: C_10  and  C_11
REMARK    5  A    between atoms: N_13  and  C_14
REMARK    6  A    between atoms: N_20  and  C_21
REMARK                            x       y       z     vdW  Elec       q    Type
REMARK                         _______ _______ _______ _____ _____    ______ ____
ROOT
ATOM      1  C   UNL     1       1.841   7.985  20.009  0.00  0.00    +0.000 A 
ATOM      2  C   UNL     1       0.980   9.061  20.330  0.00  0.00    +0.000 A 
ATOM      3  C   UNL     1       0.453   9.911  19.355  0.00  0.00    +0.000 A 
ATOM      4  C   UNL     1       0.832   9.758  18.036  0.00  0.00    +0.000 A 
ATOM      5  C   UNL     1       1.763   8.776  17.711  0.00  0.00    +0.000 A 
ATOM      6  C   UNL     1       2.284   7.878  18.677  0.00  0.00    +0.000 A 
ENDROOT
BRANCH   6   7
ATOM      7  C   UNL     1       3.229   6.871  18.102  0.00  0.00    +0.000 C 
ATOM      8  O   UNL     1       2.750   5.778  17.793  0.00  0.00    +0.000 OA
ATOM      9  N   UNL     1       4.530   7.259  17.817  0.00  0.00    +0.000 N 
ATOM     10  H   UNL     1       4.741   8.245  17.894  0.00  0.00    +0.000 HD
BRANCH   9  11
ATOM     11  C   UNL     1       5.405   6.451  17.039  0.00  0.00    +0.000 A 
ATOM     12  C   UNL     1       5.081   6.206  15.702  0.00  0.00    +0.000 A 
ATOM     13  C   UNL     1       5.822   5.280  14.954  0.00  0.00    +0.000 A 
ATOM     14  C   UNL     1       6.919   4.630  15.520  0.00  0.00    +0.000 A 
ATOM     15  C   UNL     1       7.295   4.925  16.825  0.00  0.00    +0.000 A 
ATOM     16  C   UNL     1       6.543   5.832  17.575  0.00  0.00    +0.000 A 
ENDBRANCH   9  11
ENDBRANCH   6   7
BRANCH   1  17
ATOM     17  O   UNL     1       2.186   7.030  20.957  0.00  0.00    +0.000 OA
BRANCH  17  18
ATOM     18  C   UNL     1       1.309   5.890  20.955  0.00  0.00    +0.000 C 
BRANCH  18  20
ATOM     19  O   UNL     1       2.190   3.944  22.074  0.00  0.00    +0.000 OA
ATOM     20  C   UNL     1       1.865   4.460  21.003  0.00  0.00    +0.000 C 
ATOM     21  N   UNL     1       1.954   3.824  19.797  0.00  0.00    +0.000 N 
ATOM     22  H   UNL     1       1.770   4.388  18.978  0.00  0.00    +0.000 HD
BRANCH  21  23
ATOM     23  C   UNL     1       2.375   2.436  19.628  0.00  0.00    +0.000 C 
ATOM     24  C   UNL     1       2.051   1.866  18.236  0.00  0.00    +0.000 C 
ATOM     25  C   UNL     1       2.762   2.641  17.129  0.00  0.00    +0.000 C 
ATOM     26  C   UNL     1       4.272   2.697  17.355  0.00  0.00    +0.000 C 
ATOM     27  C   UNL     1       4.653   3.135  18.770  0.00  0.00    +0.000 C 
ATOM     28  C   UNL     1       3.891   2.355  19.848  0.00  0.00    +0.000 C 
ENDBRANCH  21  23
ENDBRANCH  18  20
ENDBRANCH  17  18
ENDBRANCH   1  17
TORSDOF 6
ENDMDL
MODEL 2
REMARK VINA RESULT:      -6.9      2.851      4.804
REMARK  Name = 
REMARK  6 active torsions:
REMARK  status: ('A' for Active; 'I' for Inactive)
REMARK    1  A    between atoms: C_2  and  C_3
REMARK    2  A    between atoms: C_3  and  O_4
REMARK    3  A    between atoms: O_4  and  C_5
REMARK    4  A    between atoms: C_10  and  C_11
REMARK    5  A    between atoms: N_13  and  C_14
REMARK    6  A    between atoms: N_20  and  C_21
REMARK                            x       y       z     vdW  Elec       q    Type
REMARK                         _______ _______ _______ _____ _____    ______ ____
ROOT
ATOM      1  C   UNL     1       7.461   5.814  18.298  0.00  0.00    +0.000 A 
ATOM      2  C   UNL     1       8.196   6.507  19.287  0.00  0.00    +0.000 A 
ATOM      3  C   UNL     1       8.567   7.845  19.141  0.00  0.00    +0.000 A 
ATOM      4  C   UNL     1       8.278   8.511  17.966  0.00  0.00    +0.000 A 
ATOM      5  C   UNL     1       7.652   7.818  16.935  0.00  0.00    +0.000 A 
ATOM      6  C   UNL     1       7.233   6.471  17.073  0.00  0.00    +0.000 A 
ENDROOT
BRANCH   6   7
ATOM      7  C   UNL     1       6.534   5.939  15.862  0.00  0.00    +0.000 C 
ATOM      8  O   UNL     1       5.635   6.638  15.393  0.00  0.00    +0.000 OA
ATOM      9  N   UNL     1       7.019   4.787  15.259  0.00  0.00    +0.000 N 
ATOM     10  H   UNL     1       7.905   4.433  15.595  0.00  0.00    +0.000 HD
BRANCH   9  11
ATOM     11  C   UNL     1       6.581   4.367  13.973  0.00  0.00    +0.000 A 
ATOM     12  C   UNL     1       5.285   3.860  13.838  0.00  0.00    +0.000 A 
ATOM     13  C   UNL     1       4.878   3.279  12.629  0.00  0.00    +0.000 A 
ATOM     14  C   UNL     1       5.741   3.244  11.534  0.00  0.00    +0.000 A 
ATOM     15  C   UNL     1       7.004   3.815  11.636  0.00  0.00    +0.000 A 
ATOM     16  C   UNL     1       7.417   4.376  12.848  0.00  0.00    +0.000 A 
ENDBRANCH   9  11
ENDBRANCH   6   7
BRANCH   1  17
ATOM     17  O   UNL     1       6.923   4.557  18.547  0.00  0.00    +0.000 OA
BRANCH  17  18
ATOM     18  C   UNL     1       5.869   4.577  19.525  0.00  0.00    +0.000 C 
BRANCH  18  20
ATOM     19  O   UNL     1       4.399   6.177  18.479  0.00  0.00    +0.000 OA
ATOM     20  C   UNL     1       4.497   5.183  19.202  0.00  0.00    +0.000 C 
ATOM     21  N   UNL     1       3.425   4.540  19.756  0.00  0.00    +0.000 N 
ATOM     22  H   UNL     1       3.637   3.812  20.424  0.00  0.00    +0.000 HD
BRANCH  21  23
ATOM     23  C   UNL     1       2.032   4.901  19.509  0.00  0.00    +0.000 C 
ATOM     24  C   UNL     1       1.540   4.504  18.106  0.00  0.00    +0.000 C 
ATOM     25  C   UNL     1       1.610   2.993  17.890  0.00  0.00    +0.000 C 
ATOM     26  C   UNL     1       0.847   2.229  18.970  0.00  0.00    +0.000 C 
ATOM     27  C   UNL     1       1.203   2.676  20.389  0.00  0.00    +0.000 C 
ATOM     28  C   UNL     1       1.153   4.200  20.551  0.00  0.00    +0.000 C 
ENDBRANCH  21  23
ENDBRANCH  18  20
ENDBRANCH  17  18
ENDBRANCH   1  17
TORSDOF 6
ENDMDL
MODEL 3
REMARK VINA RESULT:      -6.9      3.257      6.325
REMARK  Name = 
REMARK  6 active torsions:
REMARK  status: ('A' for Active; 'I' for Inactive)
REMARK    1  A    between atoms: C_2  and  C_3
REMARK    2  A    between atoms: C_3  and  O_4
REMARK    3  A    between atoms: O_4  and  C_5
REMARK    4  A    between atoms: C_10  and  C_11
REMARK    5  A    between atoms: N_13  and  C_14
REMARK    6  A    between atoms: N_20  and  C_21
REMARK                            x       y       z     vdW  Elec       q    Type
REMARK                         _______ _______ _______ _____ _____    ______ ____
ROOT
ATOM      1  C   UNL     1       0.755   9.375  20.820  0.00  0.00    +0.000 A 
ATOM      2  C   UNL     1       1.212   9.061  22.122  0.00  0.00    +0.000 A 
ATOM      3  C   UNL     1       0.539   9.484  23.271  0.00  0.00    +0.000 A 
ATOM      4  C   UNL     1      -0.571  10.298  23.154  0.00  0.00    +0.000 A 
ATOM      5  C   UNL     1      -0.975  10.709  21.888  0.00  0.00    +0.000 A 
ATOM      6  C   UNL     1      -0.331  10.264  20.706  0.00  0.00    +0.000 A 
ENDROOT
BRANCH   6   7
ATOM      7  C   UNL     1      -0.962  10.787  19.454  0.00  0.00    +0.000 C 
ATOM      8  O   UNL     1      -0.347  11.671  18.854  0.00  0.00    +0.000 OA
ATOM      9  N   UNL     1      -2.103  10.165  18.968  0.00  0.00    +0.000 N 
ATOM     10  H   UNL     1      -2.380   9.302  19.416  0.00  0.00    +0.000 HD
BRANCH   9  11
ATOM     11  C   UNL     1      -2.608  10.429  17.664  0.00  0.00    +0.000 A 
ATOM     12  C   UNL     1      -3.688  11.305  17.527  0.00  0.00    +0.000 A 
ATOM     13  C   UNL     1      -4.322  11.455  16.285  0.00  0.00    +0.000 A 
ATOM     14  C   UNL     1      -3.851  10.773  15.164  0.00  0.00    +0.000 A 
ATOM     15  C   UNL     1      -2.729   9.960  15.274  0.00  0.00    +0.000 A 
ATOM     16  C   UNL     1      -2.112   9.794  16.517  0.00  0.00    +0.000 A 
ENDBRANCH   9  11
ENDBRANCH   6   7
BRANCH   1  17
ATOM     17  O   UNL     1       1.311   8.776  19.697  0.00  0.00    +0.000 OA
BRANCH  17  18
ATOM     18  C   UNL     1       2.121   7.629  20.010  0.00  0.00    +0.000 C 
BRANCH  18  20
ATOM     19  O   UNL     1       3.101   7.232  17.844  0.00  0.00    +0.000 OA
ATOM     20  C   UNL     1       2.704   6.742  18.902  0.00  0.00    +0.000 C 
ATOM     21  N   UNL     1       2.756   5.406  19.186  0.00  0.00    +0.000 N 
ATOM     22  H   UNL     1       2.294   5.111  20.035  0.00  0.00    +0.000 HD
BRANCH  21  23
ATOM     23  C   UNL     1       3.349   4.402  18.308  0.00  0.00    +0.000 C 
ATOM     24  C   UNL     1       4.102   3.296  19.068  0.00  0.00    +0.000 C 
ATOM     25  C   UNL     1       3.174   2.520  20.001  0.00  0.00    +0.000 C 
ATOM     26  C   UNL     1       1.972   1.944  19.254  0.00  0.00    +0.000 C 
ATOM     27  C   UNL     1       1.259   2.974  18.376  0.00  0.00    +0.000 C 
ATOM     28  C   UNL     1       2.232   3.753  17.482  0.00  0.00    +0.000 C 
ENDBRANCH  21  23
ENDBRANCH  18  20
ENDBRANCH  17  18
ENDBRANCH   1  17
TORSDOF 6
ENDMDL
MODEL 4
REMARK VINA RESULT:      -6.8      1.839      5.756
REMARK  Name = 
REMARK  6 active torsions:
REMARK  status: ('A' for Active; 'I' for Inactive)
REMARK    1  A    between atoms: C_2  and  C_3
REMARK    2  A    between atoms: C_3  and  O_4
REMARK    3  A    between atoms: O_4  and  C_5
REMARK    4  A    between atoms: C_10  and  C_11
REMARK    5  A    between atoms: N_13  and  C_14
REMARK    6  A    between atoms: N_20  and  C_21
REMARK                            x       y       z     vdW  Elec       q    Type
REMARK                         _______ _______ _______ _____ _____    ______ ____
ROOT
ATOM      1  C   UNL     1       2.046   4.279  19.885  0.00  0.00    +0.000 A 
ATOM      2  C   UNL     1       0.803   3.653  20.135  0.00  0.00    +0.000 A 
ATOM      3  C   UNL     1       0.415   2.478  19.486  0.00  0.00    +0.000 A 
ATOM      4  C   UNL     1       1.228   1.934  18.512  0.00  0.00    +0.000 A 
ATOM      5  C   UNL     1       2.406   2.592  18.171  0.00  0.00    +0.000 A 
ATOM      6  C   UNL     1       2.838   3.765  18.840  0.00  0.00    +0.000 A 
ENDROOT
BRANCH   6   7
ATOM      7  C   UNL     1       4.156   4.276  18.349  0.00  0.00    +0.000 C 
ATOM      8  O   UNL     1       4.508   3.908  17.228  0.00  0.00    +0.000 OA
ATOM      9  N   UNL     1       4.827   5.230  19.101  0.00  0.00    +0.000 N 
ATOM     10  H   UNL     1       4.328   5.629  19.885  0.00  0.00    +0.000 HD
BRANCH   9  11
ATOM     11  C   UNL     1       5.941   5.949  18.586  0.00  0.00    +0.000 A 
ATOM     12  C   UNL     1       7.184   5.799  19.208  0.00  0.00    +0.000 A 
ATOM     13  C   UNL     1       8.260   6.618  18.840  0.00  0.00    +0.000 A 
ATOM     14  C   UNL     1       8.119   7.556  17.818  0.00  0.00    +0.000 A 
ATOM     15  C   UNL     1       6.909   7.659  17.142  0.00  0.00    +0.000 A 
ATOM     16  C   UNL     1       5.830   6.857  17.524  0.00  0.00    +0.000 A 
ENDBRANCH   9  11
ENDBRANCH   6   7
BRANCH   1  17
ATOM     17  O   UNL     1       2.503   5.321  20.682  0.00  0.00    +0.000 OA
BRANCH  17  18
ATOM     18  C   UNL     1       1.645   6.475  20.651  0.00  0.00    +0.000 C 
BRANCH  18  20
ATOM     19  O   UNL     1       2.706   7.515  18.751  0.00  0.00    +0.000 OA
ATOM     20  C   UNL     1       1.915   7.639  19.688  0.00  0.00    +0.000 C 
ATOM     21  N   UNL     1       1.215   8.786  19.943  0.00  0.00    +0.000 N 
ATOM     22  H   UNL     1       0.688   8.806  20.805  0.00  0.00    +0.000 HD
BRANCH  21  23
ATOM     23  C   UNL     1       1.260   9.980  19.104  0.00  0.00    +0.000 C 
ATOM     24  C   UNL     1       0.116  10.047  18.078  0.00  0.00    +0.000 C 
ATOM     25  C   UNL     1      -1.251  10.083  18.758  0.00  0.00    +0.000 C 
ATOM     26  C   UNL     1      -1.355  11.229  19.763  0.00  0.00    +0.000 C 
ATOM     27  C   UNL     1      -0.171  11.291  20.730  0.00  0.00    +0.000 C 
ATOM     28  C   UNL     1       1.179  11.217  20.007  0.00  0.00    +0.000 C 
ENDBRANCH  21  23
ENDBRANCH  18  20
ENDBRANCH  17  18
ENDBRANCH   1  17
TORSDOF 6
ENDMDL
MODEL 5
REMARK VINA RESULT:      -6.7      1.883      5.788
REMARK  Name = 
REMARK  6 active torsions:
REMARK  status: ('A' for Active; 'I' for Inactive)
REMARK    1  A    between atoms: C_2  and  C_3
REMARK    2  A    between atoms: C_3  and  O_4
REMARK    3  A    between atoms: O_4  and  C_5
REMARK    4  A    between atoms: C_10  and  C_11
REMARK    5  A    between atoms: N_13  and  C_14
REMARK    6  A    between atoms: N_20  and  C_21
REMARK                            x       y       z     vdW  Elec       q    Type
REMARK                         _______ _______ _______ _____ _____    ______ ____
ROOT
ATOM      1  C   UNL     1       2.090   4.674  19.580  0.00  0.00    +0.000 A 
ATOM      2  C   UNL     1       1.091   4.238  20.482  0.00  0.00    +0.000 A 
ATOM      3  C   UNL     1       1.313   3.212  21.403  0.00  0.00    +0.000 A 
ATOM      4  C   UNL     1       2.519   2.538  21.400  0.00  0.00    +0.000 A 
ATOM      5  C   UNL     1       3.477   2.875  20.449  0.00  0.00    +0.000 A 
ATOM      6  C   UNL     1       3.288   3.937  19.528  0.00  0.00    +0.000 A 
ENDROOT
BRANCH   6   7
ATOM      7  C   UNL     1       4.466   4.161  18.632  0.00  0.00    +0.000 C 
ATOM      8  O   UNL     1       5.561   3.787  19.055  0.00  0.00    +0.000 OA
ATOM      9  N   UNL     1       4.249   4.632  17.345  0.00  0.00    +0.000 N 
ATOM     10  H   UNL     1       3.288   4.679  17.031  0.00  0.00    +0.000 HD
BRANCH   9  11
ATOM     11  C   UNL     1       5.272   4.624  16.357  0.00  0.00    +0.000 A 
ATOM     12  C   UNL     1       6.329   5.530  16.477  0.00  0.00    +0.000 A 
ATOM     13  C   UNL     1       7.259   5.671  15.438  0.00  0.00    +0.000 A 
ATOM     14  C   UNL     1       7.171   4.875  14.296  0.00  0.00    +0.000 A 
ATOM     15  C   UNL     1       6.168   3.918  14.202  0.00  0.00    +0.000 A 
ATOM     16  C   UNL     1       5.228   3.793  15.229  0.00  0.00    +0.000 A 
ENDBRANCH   9  11
ENDBRANCH   6   7
BRANCH   1  17
ATOM     17  O   UNL     1       1.923   5.825  18.821  0.00  0.00    +0.000 OA
BRANCH  17  18
ATOM     18  C   UNL     1       2.478   6.997  19.444  0.00  0.00    +0.000 C 
BRANCH  18  20
ATOM     19  O   UNL     1       1.226   7.480  21.447  0.00  0.00    +0.000 OA
ATOM     20  C   UNL     1       1.626   7.890  20.356  0.00  0.00    +0.000 C 
ATOM     21  N   UNL     1       1.368   9.144  19.876  0.00  0.00    +0.000 N 
ATOM     22  H   UNL     1       1.648   9.324  18.921  0.00  0.00    +0.000 HD
BRANCH  21  23
ATOM     23  C   UNL     1       0.651  10.177  20.617  0.00  0.00    +0.000 C 
ATOM     24  C   UNL     1       1.144  11.602  20.309  0.00  0.00    +0.000 C 
ATOM     25  C   UNL     1       0.956  11.958  18.836  0.00  0.00    +0.000 C 
ATOM     26  C   UNL     1      -0.494  11.776  18.389  0.00  0.00    +0.000 C 
ATOM     27  C   UNL     1      -1.081  10.421  18.785  0.00  0.00    +0.000 C 
ATOM     28  C   UNL     1      -0.839  10.089  20.263  0.00  0.00    +0.000 C 
ENDBRANCH  21  23
ENDBRANCH  18  20
ENDBRANCH  17  18
ENDBRANCH   1  17
TORSDOF 6
ENDMDL
MODEL 6
REMARK VINA RESULT:      -6.6      3.342      6.967
REMARK  Name = 
REMARK  6 active torsions:
REMARK  status: ('A' for Active; 'I' for Inactive)
REMARK    1  A    between atoms: C_2  and  C_3
REMARK    2  A    between atoms: C_3  and  O_4
REMARK    3  A    between atoms: O_4  and  C_5
REMARK    4  A    between atoms: C_10  and  C_11
REMARK    5  A    between atoms: N_13  and  C_14
REMARK    6  A    between atoms: N_20  and  C_21
REMARK                            x       y       z     vdW  Elec       q    Type
REMARK                         _______ _______ _______ _____ _____    ______ ____
ROOT
ATOM      1  C   UNL     1       1.368   8.657  20.277  0.00  0.00    +0.000 A 
ATOM      2  C   UNL     1       1.145   9.998  19.887  0.00  0.00    +0.000 A 
ATOM      3  C   UNL     1       1.380  10.446  18.585  0.00  0.00    +0.000 A 
ATOM      4  C   UNL     1       1.917   9.582  17.650  0.00  0.00    +0.000 A 
ATOM      5  C   UNL     1       2.246   8.287  18.040  0.00  0.00    +0.000 A 
ATOM      6  C   UNL     1       1.983   7.800  19.345  0.00  0.00    +0.000 A 
ENDROOT
BRANCH   6   7
ATOM      7  C   UNL     1       2.369   6.366  19.531  0.00  0.00    +0.000 C 
ATOM      8  O   UNL     1       1.837   5.768  20.468  0.00  0.00    +0.000 OA
ATOM      9  N   UNL     1       3.173   5.759  18.577  0.00  0.00    +0.000 N 
ATOM     10  H   UNL     1       3.354   6.282  17.731  0.00  0.00    +0.000 HD
BRANCH   9  11
ATOM     11  C   UNL     1       3.369   4.350  18.541  0.00  0.00    +0.000 A 
ATOM     12  C   UNL     1       2.613   3.590  17.645  0.00  0.00    +0.000 A 
ATOM     13  C   UNL     1       2.652   2.189  17.700  0.00  0.00    +0.000 A 
ATOM     14  C   UNL     1       3.480   1.540  18.615  0.00  0.00    +0.000 A 
ATOM     15  C   UNL     1       4.292   2.288  19.459  0.00  0.00    +0.000 A 
ATOM     16  C   UNL     1       4.237   3.684  19.417  0.00  0.00    +0.000 A 
ENDBRANCH   9  11
ENDBRANCH   6   7
BRANCH   1  17
ATOM     17  O   UNL     1       0.935   8.183  21.508  0.00  0.00    +0.000 OA
BRANCH  17  18
ATOM     18  C   UNL     1      -0.350   8.703  21.894  0.00  0.00    +0.000 C 
BRANCH  18  20
ATOM     19  O   UNL     1       0.097   9.838  23.974  0.00  0.00    +0.000 OA
ATOM     20  C   UNL     1      -0.470   9.872  22.880  0.00  0.00    +0.000 C 
ATOM     21  N   UNL     1      -1.224  10.928  22.450  0.00  0.00    +0.000 N 
ATOM     22  H   UNL     1      -1.734  10.792  21.588  0.00  0.00    +0.000 HD
BRANCH  21  23
ATOM     23  C   UNL     1      -1.398  12.172  23.194  0.00  0.00    +0.000 C 
ATOM     24  C   UNL     1      -0.785  13.394  22.489  0.00  0.00    +0.000 C 
ATOM     25  C   UNL     1      -1.433  13.644  21.128  0.00  0.00    +0.000 C 
ATOM     26  C   UNL     1      -2.950  13.785  21.239  0.00  0.00    +0.000 C 
ATOM     27  C   UNL     1      -3.602  12.660  22.046  0.00  0.00    +0.000 C 
ATOM     28  C   UNL     1      -2.899  12.421  23.388  0.00  0.00    +0.000 C 
ENDBRANCH  21  23
ENDBRANCH  18  20
ENDBRANCH  17  18
ENDBRANCH   1  17
TORSDOF 6
ENDMDL
MODEL 7
REMARK VINA RESULT:      -6.6      1.800      5.642
REMARK  Name = 
REMARK  6 active torsions:
REMARK  status: ('A' for Active; 'I' for Inactive)
REMARK    1  A    between atoms: C_2  and  C_3
REMARK    2  A    between atoms: C_3  and  O_4
REMARK    3  A    between atoms: O_4  and  C_5
REMARK    4  A    between atoms: C_10  and  C_11
REMARK    5  A    between atoms: N_13  and  C_14
REMARK    6  A    between atoms: N_20  and  C_21
REMARK                            x       y       z     vdW  Elec       q    Type
REMARK                         _______ _______ _______ _____ _____    ______ ____
ROOT
ATOM      1  C   UNL     1       2.351   4.575  19.568  0.00  0.00    +0.000 A 
ATOM      2  C   UNL     1       1.116   4.309  20.206  0.00  0.00    +0.000 A 
ATOM      3  C   UNL     1       0.404   3.127  19.991  0.00  0.00    +0.000 A 
ATOM      4  C   UNL     1       0.868   2.206  19.073  0.00  0.00    +0.000 A 
ATOM      5  C   UNL     1       2.024   2.494  18.353  0.00  0.00    +0.000 A 
ATOM      6  C   UNL     1       2.783   3.670  18.580  0.00  0.00    +0.000 A 
ENDROOT
BRANCH   6   7
ATOM      7  C   UNL     1       4.014   3.753  17.734  0.00  0.00    +0.000 C 
ATOM      8  O   UNL     1       4.725   2.748  17.693  0.00  0.00    +0.000 OA
ATOM      9  N   UNL     1       4.210   4.877  16.944  0.00  0.00    +0.000 N 
ATOM     10  H   UNL     1       3.442   5.532  16.882  0.00  0.00    +0.000 HD
BRANCH   9  11
ATOM     11  C   UNL     1       5.206   4.921  15.929  0.00  0.00    +0.000 A 
ATOM     12  C   UNL     1       4.939   4.310  14.701  0.00  0.00    +0.000 A 
ATOM     13  C   UNL     1       5.954   4.182  13.742  0.00  0.00    +0.000 A 
ATOM     14  C   UNL     1       7.224   4.707  13.981  0.00  0.00    +0.000 A 
ATOM     15  C   UNL     1       7.476   5.384  15.168  0.00  0.00    +0.000 A 
ATOM     16  C   UNL     1       6.470   5.492  16.132  0.00  0.00    +0.000 A 
ENDBRANCH   9  11
ENDBRANCH   6   7
BRANCH   1  17
ATOM     17  O   UNL     1       3.142   5.651  19.949  0.00  0.00    +0.000 OA
BRANCH  17  18
ATOM     18  C   UNL     1       2.401   6.876  20.089  0.00  0.00    +0.000 C 
BRANCH  18  20
ATOM     19  O   UNL     1       2.680   7.562  17.795  0.00  0.00    +0.000 OA
ATOM     20  C   UNL     1       2.214   7.832  18.904  0.00  0.00    +0.000 C 
ATOM     21  N   UNL     1       1.499   8.965  19.170  0.00  0.00    +0.000 N 
ATOM     22  H   UNL     1       1.270   9.132  20.141  0.00  0.00    +0.000 HD
BRANCH  21  23
ATOM     23  C   UNL     1       1.135   9.963  18.168  0.00  0.00    +0.000 C 
ATOM     24  C   UNL     1      -0.371   9.990  17.855  0.00  0.00    +0.000 C 
ATOM     25  C   UNL     1      -1.199  10.339  19.090  0.00  0.00    +0.000 C 
ATOM     26  C   UNL     1      -0.751  11.657  19.719  0.00  0.00    +0.000 C 
ATOM     27  C   UNL     1       0.761  11.738  19.935  0.00  0.00    +0.000 C 
ATOM     28  C   UNL     1       1.553  11.346  18.680  0.00  0.00    +0.000 C 
ENDBRANCH  21  23
ENDBRANCH  18  20
ENDBRANCH  17  18
ENDBRANCH   1  17
TORSDOF 6
ENDMDL
MODEL 8
REMARK VINA RESULT:      -6.6      4.123      8.260
REMARK  Name = 
REMARK  6 active torsions:
REMARK  status: ('A' for Active; 'I' for Inactive)
REMARK    1  A    between atoms: C_2  and  C_3
REMARK    2  A    between atoms: C_3  and  O_4
REMARK    3  A    between atoms: O_4  and  C_5
REMARK    4  A    between atoms: C_10  and  C_11
REMARK    5  A    between atoms: N_13  and  C_14
REMARK    6  A    between atoms: N_20  and  C_21
REMARK                            x       y       z     vdW  Elec       q    Type
REMARK                         _______ _______ _______ _____ _____    ______ ____
ROOT
ATOM      1  C   UNL     1       6.833   5.699  17.287  0.00  0.00    +0.000 A 
ATOM      2  C   UNL     1       7.491   5.910  16.053  0.00  0.00    +0.000 A 
ATOM      3  C   UNL     1       7.178   5.179  14.905  0.00  0.00    +0.000 A 
ATOM      4  C   UNL     1       6.247   4.161  14.974  0.00  0.00    +0.000 A 
ATOM      5  C   UNL     1       5.666   3.861  16.203  0.00  0.00    +0.000 A 
ATOM      6  C   UNL     1       5.941   4.613  17.373  0.00  0.00    +0.000 A 
ENDROOT
BRANCH   6   7
ATOM      7  C   UNL     1       5.168   4.152  18.569  0.00  0.00    +0.000 C 
ATOM      8  O   UNL     1       5.703   4.312  19.667  0.00  0.00    +0.000 OA
ATOM      9  N   UNL     1       3.863   3.715  18.395  0.00  0.00    +0.000 N 
ATOM     10  H   UNL     1       3.452   3.851  17.481  0.00  0.00    +0.000 HD
BRANCH   9  11
ATOM     11  C   UNL     1       2.984   3.510  19.495  0.00  0.00    +0.000 A 
ATOM     12  C   UNL     1       3.384   2.654  20.525  0.00  0.00    +0.000 A 
ATOM     13  C   UNL     1       2.481   2.293  21.534  0.00  0.00    +0.000 A 
ATOM     14  C   UNL     1       1.190   2.822  21.550  0.00  0.00    +0.000 A 
ATOM     15  C   UNL     1       0.808   3.734  20.574  0.00  0.00    +0.000 A 
ATOM     16  C   UNL     1       1.703   4.076  19.556  0.00  0.00    +0.000 A 
ENDBRANCH   9  11
ENDBRANCH   6   7
BRANCH   1  17
ATOM     17  O   UNL     1       7.007   6.569  18.356  0.00  0.00    +0.000 OA
BRANCH  17  18
ATOM     18  C   UNL     1       8.182   7.390  18.230  0.00  0.00    +0.000 C 
BRANCH  18  20
ATOM     19  O   UNL     1       7.178   9.315  17.182  0.00  0.00    +0.000 OA
ATOM     20  C   UNL     1       8.074   8.887  17.912  0.00  0.00    +0.000 C 
ATOM     21  N   UNL     1       9.020   9.681  18.498  0.00  0.00    +0.000 N 
ATOM     22  H   UNL     1       9.771   9.204  18.977  0.00  0.00    +0.000 HD
BRANCH  21  23
ATOM     23  C   UNL     1       9.049  11.138  18.394  0.00  0.00    +0.000 C 
ATOM     24  C   UNL     1       8.920  11.847  19.754  0.00  0.00    +0.000 C 
ATOM     25  C   UNL     1      10.071  11.486  20.691  0.00  0.00    +0.000 C 
ATOM     26  C   UNL     1      11.431  11.771  20.055  0.00  0.00    +0.000 C 
ATOM     27  C   UNL     1      11.569  11.198  18.644  0.00  0.00    +0.000 C 
ATOM     28  C   UNL     1      10.376  11.556  17.749  0.00  0.00    +0.000 C 
ENDBRANCH  21  23
ENDBRANCH  18  20
ENDBRANCH  17  18
ENDBRANCH   1  17
TORSDOF 6
ENDMDL
MODEL 9
REMARK VINA RESULT:      -6.5      3.728      6.347
REMARK  Name = 
REMARK  6 active torsions:
REMARK  status: ('A' for Active; 'I' for Inactive)
REMARK    1  A    between atoms: C_2  and  C_3
REMARK    2  A    between atoms: C_3  and  O_4
REMARK    3  A    between atoms: O_4  and  C_5
REMARK    4  A    between atoms: C_10  and  C_11
REMARK    5  A    between atoms: N_13  and  C_14
REMARK    6  A    between atoms: N_20  and  C_21
REMARK                            x       y       z     vdW  Elec       q    Type
REMARK                         _______ _______ _______ _____ _____    ______ ____
ROOT
ATOM      1  C   UNL     1       0.784   9.779  20.831  0.00  0.00    +0.000 A 
ATOM      2  C   UNL     1       0.335   9.055  21.961  0.00  0.00    +0.000 A 
ATOM      3  C   UNL     1      -0.497   9.621  22.928  0.00  0.00    +0.000 A 
ATOM      4  C   UNL     1      -0.847  10.954  22.835  0.00  0.00    +0.000 A 
ATOM      5  C   UNL     1      -0.329  11.716  21.792  0.00  0.00    +0.000 A 
ATOM      6  C   UNL     1       0.488  11.154  20.778  0.00  0.00    +0.000 A 
ENDROOT
BRANCH   6   7
ATOM      7  C   UNL     1       0.890  12.140  19.727  0.00  0.00    +0.000 C 
ATOM      8  O   UNL     1       0.219  12.149  18.693  0.00  0.00    +0.000 OA
ATOM      9  N   UNL     1       1.878  13.068  20.021  0.00  0.00    +0.000 N 
ATOM     10  H   UNL     1       2.190  13.116  20.982  0.00  0.00    +0.000 HD
BRANCH   9  11
ATOM     11  C   UNL     1       2.133  14.190  19.184  0.00  0.00    +0.000 A 
ATOM     12  C   UNL     1       3.222  14.141  18.309  0.00  0.00    +0.000 A 
ATOM     13  C   UNL     1       3.606  15.286  17.597  0.00  0.00    +0.000 A 
ATOM     14  C   UNL     1       2.879  16.470  17.714  0.00  0.00    +0.000 A 
ATOM     15  C   UNL     1       1.749  16.505  18.522  0.00  0.00    +0.000 A 
ATOM     16  C   UNL     1       1.379  15.370  19.248  0.00  0.00    +0.000 A 
ENDBRANCH   9  11
ENDBRANCH   6   7
BRANCH   1  17
ATOM     17  O   UNL     1       1.434   9.145  19.780  0.00  0.00    +0.000 OA
BRANCH  17  18
ATOM     18  C   UNL     1       1.820   7.794  20.086  0.00  0.00    +0.000 C 
BRANCH  18  20
ATOM     19  O   UNL     1       3.063   7.406  18.057  0.00  0.00    +0.000 OA
ATOM     20  C   UNL     1       2.512   6.909  19.041  0.00  0.00    +0.000 C 
ATOM     21  N   UNL     1       2.477   5.566  19.293  0.00  0.00    +0.000 N 
ATOM     22  H   UNL     1       1.896   5.271  20.066  0.00  0.00    +0.000 HD
BRANCH  21  23
ATOM     23  C   UNL     1       3.143   4.558  18.473  0.00  0.00    +0.000 C 
ATOM     24  C   UNL     1       3.915   3.514  19.299  0.00  0.00    +0.000 C 
ATOM     25  C   UNL     1       2.988   2.732  20.227  0.00  0.00    +0.000 C 
ATOM     26  C   UNL     1       1.839   2.077  19.463  0.00  0.00    +0.000 C 
ATOM     27  C   UNL     1       1.114   3.042  18.523  0.00  0.00    +0.000 C 
ATOM     28  C   UNL     1       2.084   3.832  17.634  0.00  0.00    +0.000 C 
ENDBRANCH  21  23
ENDBRANCH  18  20
ENDBRANCH  17  18
ENDBRANCH   1  17
TORSDOF 6
ENDMDL
