MODEL 1
REMARK VINA RESULT:      -7.7      0.000      0.000
REMARK  Name = 
REMARK  12 active torsions:
REMARK  status: ('A' for Active; 'I' for Inactive)
REMARK    1  A    between atoms: C_2  and  C_3
REMARK    2  A    between atoms: C_3  and  O_4
REMARK    3  A    between atoms: O_4  and  C_5
REMARK    4  A    between atoms: C_7  and  C_8
REMARK    5  A    between atoms: C_13  and  C_14
REMARK    6  A    between atoms: C_17  and  O_18
REMARK    7  A    between atoms: O_18  and  C_19
REMARK    8  A    between atoms: C_20  and  O_21
REMARK    9  A    between atoms: O_21  and  C_22
REMARK   10  A    between atoms: C_22  and  C_23
REMARK   11  A    between atoms: C_30  and  O_31
REMARK   12  A    between atoms: O_31  and  C_32
REMARK                            x       y       z     vdW  Elec       q    Type
REMARK                         _______ _______ _______ _____ _____    ______ ____
ROOT
ATOM      1  C   UNL     1       0.251   9.458  20.758  0.00  0.00    +0.000 C 
ATOM      2  C   UNL     1       1.029   8.868  19.843  0.00  0.00    +0.000 C 
ATOM      3  C   UNL     1       1.457   9.399  18.518  0.00  0.00    +0.000 C 
ATOM      4  C   UNL     1       2.420   8.374  17.952  0.00  0.00    +0.000 C 
ATOM      5  C   UNL     1       2.550   7.261  18.944  0.00  0.00    +0.000 C 
ATOM      6  C   UNL     1       3.328   6.165  18.933  0.00  0.00    +0.000 C 
ATOM      7  C   UNL     1       1.650   7.546  20.090  0.00  0.00    +0.000 C 
ATOM      8  O   UNL     1       1.478   6.842  21.066  0.00  0.00    +0.000 OA
ENDROOT
BRANCH   1  11
ATOM      9  C   UNL     1      -1.992  12.306  19.696  0.00  0.00    +0.000 A 
ATOM     10  C   UNL     1      -1.418  11.028  19.795  0.00  0.00    +0.000 A 
ATOM     11  C   UNL     1      -0.292  10.804  20.586  0.00  0.00    +0.000 A 
ATOM     12  C   UNL     1       0.306  11.878  21.239  0.00  0.00    +0.000 A 
ATOM     13  C   UNL     1      -0.255  13.154  21.149  0.00  0.00    +0.000 A 
ATOM     14  C   UNL     1      -1.423  13.381  20.404  0.00  0.00    +0.000 A 
BRANCH  14  15
ATOM     15  O   UNL     1      -2.076  14.587  20.399  0.00  0.00    +0.000 OA
ATOM     16  C   UNL     1      -2.571  15.071  21.645  0.00  0.00    +0.000 C 
ENDBRANCH  14  15
BRANCH   9  17
ATOM     17  O   UNL     1      -3.120  12.307  18.917  0.00  0.00    +0.000 OA
BRANCH  17  18
ATOM     18  C   UNL     1      -3.154  11.456  17.777  0.00  0.00    +0.000 C 
BRANCH  18  20
ATOM     19  C   UNL     1      -5.649  11.148  18.005  0.00  0.00    +0.000 C 
ATOM     20  C   UNL     1      -4.573  11.466  17.270  0.00  0.00    +0.000 C 
ENDBRANCH  18  20
ENDBRANCH  17  18
ENDBRANCH   9  17
ENDBRANCH   1  11
BRANCH   6  21
ATOM     21  C   UNL     1       4.318   5.747  17.917  0.00  0.00    +0.000 A 
ATOM     22  C   UNL     1       4.052   4.605  17.155  0.00  0.00    +0.000 A 
ATOM     23  C   UNL     1       4.975   4.138  16.205  0.00  0.00    +0.000 A 
ATOM     24  C   UNL     1       6.194   4.793  15.997  0.00  0.00    +0.000 A 
ATOM     25  C   UNL     1       6.486   5.914  16.775  0.00  0.00    +0.000 A 
ATOM     26  C   UNL     1       5.538   6.389  17.692  0.00  0.00    +0.000 A 
BRANCH  24  27
ATOM     27  O   UNL     1       7.132   4.361  15.103  0.00  0.00    +0.000 OA
ATOM     28  C   UNL     1       7.051   4.899  13.791  0.00  0.00    +0.000 C 
ENDBRANCH  24  27
BRANCH  25  29
ATOM     29  O   UNL     1       7.623   6.688  16.752  0.00  0.00    +0.000 OA
BRANCH  29  30
ATOM     30  C   UNL     1       7.976   7.341  17.968  0.00  0.00    +0.000 C 
BRANCH  30  31
ATOM     31  C   UNL     1       8.041   8.817  17.693  0.00  0.00    +0.000 C 
ATOM     32  C   UNL     1       8.729   9.690  18.443  0.00  0.00    +0.000 C 
ENDBRANCH  30  31
ENDBRANCH  29  30
ENDBRANCH  25  29
ENDBRANCH   6  21
TORSDOF 10
ENDMDL
MODEL 2
REMARK VINA RESULT:      -7.6      1.993      2.469
REMARK  Name = 
REMARK  12 active torsions:
REMARK  status: ('A' for Active; 'I' for Inactive)
REMARK    1  A    between atoms: C_2  and  C_3
REMARK    2  A    between atoms: C_3  and  O_4
REMARK    3  A    between atoms: O_4  and  C_5
REMARK    4  A    between atoms: C_7  and  C_8
REMARK    5  A    between atoms: C_13  and  C_14
REMARK    6  A    between atoms: C_17  and  O_18
REMARK    7  A    between atoms: O_18  and  C_19
REMARK    8  A    between atoms: C_20  and  O_21
REMARK    9  A    between atoms: O_21  and  C_22
REMARK   10  A    between atoms: C_22  and  C_23
REMARK   11  A    between atoms: C_30  and  O_31
REMARK   12  A    between atoms: O_31  and  C_32
REMARK                            x       y       z     vdW  Elec       q    Type
REMARK                         _______ _______ _______ _____ _____    ______ ____
ROOT
ATOM      1  C   UNL     1       0.587   8.044  21.483  0.00  0.00    +0.000 C 
ATOM      2  C   UNL     1       1.357   7.785  20.421  0.00  0.00    +0.000 C 
ATOM      3  C   UNL     1       1.786   8.722  19.344  0.00  0.00    +0.000 C 
ATOM      4  C   UNL     1       2.740   7.934  18.466  0.00  0.00    +0.000 C 
ATOM      5  C   UNL     1       2.863   6.556  19.033  0.00  0.00    +0.000 C 
ATOM      6  C   UNL     1       3.632   5.519  18.657  0.00  0.00    +0.000 C 
ATOM      7  C   UNL     1       1.968   6.451  20.214  0.00  0.00    +0.000 C 
ATOM      8  O   UNL     1       1.793   5.466  20.903  0.00  0.00    +0.000 OA
ENDROOT
BRANCH   1  11
ATOM      9  C   UNL     1      -0.347  11.686  21.105  0.00  0.00    +0.000 A 
ATOM     10  C   UNL     1       0.235  10.429  20.874  0.00  0.00    +0.000 A 
ATOM     11  C   UNL     1       0.054   9.375  21.770  0.00  0.00    +0.000 A 
ATOM     12  C   UNL     1      -0.665   9.594  22.941  0.00  0.00    +0.000 A 
ATOM     13  C   UNL     1      -1.249  10.840  23.183  0.00  0.00    +0.000 A 
ATOM     14  C   UNL     1      -1.124  11.891  22.260  0.00  0.00    +0.000 A 
BRANCH  14  15
ATOM     15  O   UNL     1      -1.790  13.080  22.398  0.00  0.00    +0.000 OA
ATOM     16  C   UNL     1      -1.139  14.119  23.124  0.00  0.00    +0.000 C 
ENDBRANCH  14  15
BRANCH   9  17
ATOM     17  O   UNL     1      -0.097  12.566  20.085  0.00  0.00    +0.000 OA
BRANCH  17  18
ATOM     18  C   UNL     1       0.346  12.046  18.836  0.00  0.00    +0.000 C 
BRANCH  18  20
ATOM     19  C   UNL     1       1.823  14.092  18.767  0.00  0.00    +0.000 C 
ATOM     20  C   UNL     1       1.596  12.804  18.469  0.00  0.00    +0.000 C 
ENDBRANCH  18  20
ENDBRANCH  17  18
ENDBRANCH   9  17
ENDBRANCH   1  11
BRANCH   6  21
ATOM     21  C   UNL     1       4.616   5.454  17.554  0.00  0.00    +0.000 A 
ATOM     22  C   UNL     1       4.410   4.526  16.529  0.00  0.00    +0.000 A 
ATOM     23  C   UNL     1       5.332   4.392  15.479  0.00  0.00    +0.000 A 
ATOM     24  C   UNL     1       6.492   5.173  15.430  0.00  0.00    +0.000 A 
ATOM     25  C   UNL     1       6.727   6.078  16.466  0.00  0.00    +0.000 A 
ATOM     26  C   UNL     1       5.777   6.228  17.486  0.00  0.00    +0.000 A 
BRANCH  24  27
ATOM     27  O   UNL     1       7.429   5.060  14.442  0.00  0.00    +0.000 OA
ATOM     28  C   UNL     1       7.026   4.385  13.260  0.00  0.00    +0.000 C 
ENDBRANCH  24  27
BRANCH  25  29
ATOM     29  O   UNL     1       7.802   6.921  16.627  0.00  0.00    +0.000 OA
BRANCH  29  30
ATOM     30  C   UNL     1       7.962   7.514  17.912  0.00  0.00    +0.000 C 
BRANCH  30  31
ATOM     31  C   UNL     1       8.031   9.003  17.725  0.00  0.00    +0.000 C 
ATOM     32  C   UNL     1       8.837   9.811  18.428  0.00  0.00    +0.000 C 
ENDBRANCH  30  31
ENDBRANCH  29  30
ENDBRANCH  25  29
ENDBRANCH   6  21
TORSDOF 10
ENDMDL
MODEL 3
REMARK VINA RESULT:      -7.5      2.362      3.065
REMARK  Name = 
REMARK  12 active torsions:
REMARK  status: ('A' for Active; 'I' for Inactive)
REMARK    1  A    between atoms: C_2  and  C_3
REMARK    2  A    between atoms: C_3  and  O_4
REMARK    3  A    between atoms: O_4  and  C_5
REMARK    4  A    between atoms: C_7  and  C_8
REMARK    5  A    between atoms: C_13  and  C_14
REMARK    6  A    between atoms: C_17  and  O_18
REMARK    7  A    between atoms: O_18  and  C_19
REMARK    8  A    between atoms: C_20  and  O_21
REMARK    9  A    between atoms: O_21  and  C_22
REMARK   10  A    between atoms: C_22  and  C_23
REMARK   11  A    between atoms: C_30  and  O_31
REMARK   12  A    between atoms: O_31  and  C_32
REMARK                            x       y       z     vdW  Elec       q    Type
REMARK                         _______ _______ _______ _____ _____    ______ ____
ROOT
ATOM      1  C   UNL     1      -0.037  11.390  19.663  0.00  0.00    +0.000 C 
ATOM      2  C   UNL     1       0.609  10.221  19.724  0.00  0.00    +0.000 C 
ATOM      3  C   UNL     1       0.544   9.188  20.797  0.00  0.00    +0.000 C 
ATOM      4  C   UNL     1       1.376   8.021  20.300  0.00  0.00    +0.000 C 
ATOM      5  C   UNL     1       1.913   8.376  18.950  0.00  0.00    +0.000 C 
ATOM      6  C   UNL     1       2.642   7.655  18.080  0.00  0.00    +0.000 C 
ATOM      7  C   UNL     1       1.478   9.756  18.618  0.00  0.00    +0.000 C 
ATOM      8  O   UNL     1       1.755  10.379  17.612  0.00  0.00    +0.000 OA
ENDROOT
BRANCH   1  11
ATOM      9  C   UNL     1      -3.157  12.724  21.326  0.00  0.00    +0.000 A 
ATOM     10  C   UNL     1      -2.214  12.379  20.343  0.00  0.00    +0.000 A 
ATOM     11  C   UNL     1      -0.981  11.829  20.690  0.00  0.00    +0.000 A 
ATOM     12  C   UNL     1      -0.658  11.674  22.035  0.00  0.00    +0.000 A 
ATOM     13  C   UNL     1      -1.587  12.013  23.022  0.00  0.00    +0.000 A 
ATOM     14  C   UNL     1      -2.855  12.513  22.684  0.00  0.00    +0.000 A 
BRANCH  14  15
ATOM     15  O   UNL     1      -3.838  12.730  23.614  0.00  0.00    +0.000 OA
ATOM     16  C   UNL     1      -3.900  14.020  24.217  0.00  0.00    +0.000 C 
ENDBRANCH  14  15
BRANCH   9  17
ATOM     17  O   UNL     1      -4.322  13.196  20.780  0.00  0.00    +0.000 OA
BRANCH  17  18
ATOM     18  C   UNL     1      -5.067  12.335  19.926  0.00  0.00    +0.000 C 
BRANCH  18  20
ATOM     19  C   UNL     1      -7.086  10.900  20.410  0.00  0.00    +0.000 C 
ATOM     20  C   UNL     1      -6.331  11.979  20.663  0.00  0.00    +0.000 C 
ENDBRANCH  18  20
ENDBRANCH  17  18
ENDBRANCH   9  17
ENDBRANCH   1  11
BRANCH   6  21
ATOM     21  C   UNL     1       3.116   6.259  18.209  0.00  0.00    +0.000 A 
ATOM     22  C   UNL     1       2.191   5.222  18.050  0.00  0.00    +0.000 A 
ATOM     23  C   UNL     1       2.576   3.881  18.202  0.00  0.00    +0.000 A 
ATOM     24  C   UNL     1       3.893   3.538  18.528  0.00  0.00    +0.000 A 
ATOM     25  C   UNL     1       4.817   4.565  18.723  0.00  0.00    +0.000 A 
ATOM     26  C   UNL     1       4.426   5.897  18.530  0.00  0.00    +0.000 A 
BRANCH  24  27
ATOM     27  O   UNL     1       4.307   2.249  18.710  0.00  0.00    +0.000 OA
ATOM     28  C   UNL     1       4.404   1.798  20.054  0.00  0.00    +0.000 C 
ENDBRANCH  24  27
BRANCH  25  29
ATOM     29  O   UNL     1       6.145   4.456  19.066  0.00  0.00    +0.000 OA
BRANCH  29  30
ATOM     30  C   UNL     1       7.092   4.914  18.106  0.00  0.00    +0.000 C 
BRANCH  30  31
ATOM     31  C   UNL     1       7.786   6.115  18.685  0.00  0.00    +0.000 C 
ATOM     32  C   UNL     1       7.871   7.302  18.068  0.00  0.00    +0.000 C 
ENDBRANCH  30  31
ENDBRANCH  29  30
ENDBRANCH  25  29
ENDBRANCH   6  21
TORSDOF 10
ENDMDL
MODEL 4
REMARK VINA RESULT:      -7.5      1.836      3.058
REMARK  Name = 
REMARK  12 active torsions:
REMARK  status: ('A' for Active; 'I' for Inactive)
REMARK    1  A    between atoms: C_2  and  C_3
REMARK    2  A    between atoms: C_3  and  O_4
REMARK    3  A    between atoms: O_4  and  C_5
REMARK    4  A    between atoms: C_7  and  C_8
REMARK    5  A    between atoms: C_13  and  C_14
REMARK    6  A    between atoms: C_17  and  O_18
REMARK    7  A    between atoms: O_18  and  C_19
REMARK    8  A    between atoms: C_20  and  O_21
REMARK    9  A    between atoms: O_21  and  C_22
REMARK   10  A    between atoms: C_22  and  C_23
REMARK   11  A    between atoms: C_30  and  O_31
REMARK   12  A    between atoms: O_31  and  C_32
REMARK                            x       y       z     vdW  Elec       q    Type
REMARK                         _______ _______ _______ _____ _____    ______ ____
ROOT
ATOM      1  C   UNL     1       0.412  10.040  20.618  0.00  0.00    +0.000 C 
ATOM      2  C   UNL     1       1.120   9.320  19.741  0.00  0.00    +0.000 C 
ATOM      3  C   UNL     1       1.644   9.744  18.412  0.00  0.00    +0.000 C 
ATOM      4  C   UNL     1       2.470   8.579  17.901  0.00  0.00    +0.000 C 
ATOM      5  C   UNL     1       2.426   7.493  18.929  0.00  0.00    +0.000 C 
ATOM      6  C   UNL     1       3.048   6.302  18.971  0.00  0.00    +0.000 C 
ATOM      7  C   UNL     1       1.550   7.935  20.043  0.00  0.00    +0.000 C 
ATOM      8  O   UNL     1       1.264   7.294  21.035  0.00  0.00    +0.000 OA
ENDROOT
BRANCH   1  11
ATOM      9  C   UNL     1       0.708  13.784  20.198  0.00  0.00    +0.000 A 
ATOM     10  C   UNL     1       1.022  12.447  20.496  0.00  0.00    +0.000 A 
ATOM     11  C   UNL     1       0.061  11.441  20.393  0.00  0.00    +0.000 A 
ATOM     12  C   UNL     1      -1.244  11.779  20.046  0.00  0.00    +0.000 A 
ATOM     13  C   UNL     1      -1.569  13.105  19.748  0.00  0.00    +0.000 A 
ATOM     14  C   UNL     1      -0.598  14.117  19.790  0.00  0.00    +0.000 A 
BRANCH  14  15
ATOM     15  O   UNL     1      -0.846  15.400  19.377  0.00  0.00    +0.000 OA
ATOM     16  C   UNL     1      -1.335  16.321  20.348  0.00  0.00    +0.000 C 
ENDBRANCH  14  15
BRANCH   9  17
ATOM     17  O   UNL     1       1.798  14.607  20.307  0.00  0.00    +0.000 OA
BRANCH  17  18
ATOM     18  C   UNL     1       2.787  14.558  19.285  0.00  0.00    +0.000 C 
BRANCH  18  20
ATOM     19  C   UNL     1       3.297  16.141  17.386  0.00  0.00    +0.000 C 
ATOM     20  C   UNL     1       2.758  15.894  18.589  0.00  0.00    +0.000 C 
ENDBRANCH  18  20
ENDBRANCH  17  18
ENDBRANCH   9  17
ENDBRANCH   1  11
BRANCH   6  21
ATOM     21  C   UNL     1       3.992   5.720  17.992  0.00  0.00    +0.000 A 
ATOM     22  C   UNL     1       3.628   4.543  17.330  0.00  0.00    +0.000 A 
ATOM     23  C   UNL     1       4.501   3.924  16.422  0.00  0.00    +0.000 A 
ATOM     24  C   UNL     1       5.768   4.457  16.158  0.00  0.00    +0.000 A 
ATOM     25  C   UNL     1       6.158   5.611  16.839  0.00  0.00    +0.000 A 
ATOM     26  C   UNL     1       5.259   6.238  17.713  0.00  0.00    +0.000 A 
BRANCH  24  27
ATOM     27  O   UNL     1       6.661   3.876  15.303  0.00  0.00    +0.000 OA
ATOM     28  C   UNL     1       6.677   4.371  13.971  0.00  0.00    +0.000 C 
ENDBRANCH  24  27
BRANCH  25  29
ATOM     29  O   UNL     1       7.353   6.285  16.749  0.00  0.00    +0.000 OA
BRANCH  29  30
ATOM     30  C   UNL     1       7.787   6.975  17.917  0.00  0.00    +0.000 C 
BRANCH  30  31
ATOM     31  C   UNL     1       7.929   8.429  17.564  0.00  0.00    +0.000 C 
ATOM     32  C   UNL     1       8.609   9.317  18.303  0.00  0.00    +0.000 C 
ENDBRANCH  30  31
ENDBRANCH  29  30
ENDBRANCH  25  29
ENDBRANCH   6  21
TORSDOF 10
ENDMDL
MODEL 5
REMARK VINA RESULT:      -7.3      1.069     10.375
REMARK  Name = 
REMARK  12 active torsions:
REMARK  status: ('A' for Active; 'I' for Inactive)
REMARK    1  A    between atoms: C_2  and  C_3
REMARK    2  A    between atoms: C_3  and  O_4
REMARK    3  A    between atoms: O_4  and  C_5
REMARK    4  A    between atoms: C_7  and  C_8
REMARK    5  A    between atoms: C_13  and  C_14
REMARK    6  A    between atoms: C_17  and  O_18
REMARK    7  A    between atoms: O_18  and  C_19
REMARK    8  A    between atoms: C_20  and  O_21
REMARK    9  A    between atoms: O_21  and  C_22
REMARK   10  A    between atoms: C_22  and  C_23
REMARK   11  A    between atoms: C_30  and  O_31
REMARK   12  A    between atoms: O_31  and  C_32
REMARK                            x       y       z     vdW  Elec       q    Type
REMARK                         _______ _______ _______ _____ _____    ______ ____
ROOT
ATOM      1  C   UNL     1       3.396   5.416  18.956  0.00  0.00    +0.000 C 
ATOM      2  C   UNL     1       2.819   6.592  19.226  0.00  0.00    +0.000 C 
ATOM      3  C   UNL     1       2.935   7.870  18.468  0.00  0.00    +0.000 C 
ATOM      4  C   UNL     1       1.984   8.840  19.143  0.00  0.00    +0.000 C 
ATOM      5  C   UNL     1       1.322   8.127  20.279  0.00  0.00    +0.000 C 
ATOM      6  C   UNL     1       0.362   8.533  21.128  0.00  0.00    +0.000 C 
ATOM      7  C   UNL     1       1.877   6.752  20.358  0.00  0.00    +0.000 C 
ATOM      8  O   UNL     1       1.590   5.903  21.179  0.00  0.00    +0.000 OA
ENDROOT
BRANCH   1  11
ATOM      9  C   UNL     1       6.283   5.671  16.533  0.00  0.00    +0.000 A 
ATOM     10  C   UNL     1       5.420   5.934  17.609  0.00  0.00    +0.000 A 
ATOM     11  C   UNL     1       4.247   5.201  17.788  0.00  0.00    +0.000 A 
ATOM     12  C   UNL     1       3.899   4.235  16.848  0.00  0.00    +0.000 A 
ATOM     13  C   UNL     1       4.748   3.964  15.772  0.00  0.00    +0.000 A 
ATOM     14  C   UNL     1       5.961   4.654  15.615  0.00  0.00    +0.000 A 
BRANCH  14  15
ATOM     15  O   UNL     1       6.880   4.326  14.652  0.00  0.00    +0.000 OA
ATOM     16  C   UNL     1       6.385   3.819  13.416  0.00  0.00    +0.000 C 
ENDBRANCH  14  15
BRANCH   9  17
ATOM     17  O   UNL     1       7.404   6.459  16.566  0.00  0.00    +0.000 OA
BRANCH  17  18
ATOM     18  C   UNL     1       7.774   7.057  17.803  0.00  0.00    +0.000 C 
BRANCH  18  20
ATOM     19  C   UNL     1       8.541   9.402  18.338  0.00  0.00    +0.000 C 
ATOM     20  C   UNL     1       7.874   8.540  17.555  0.00  0.00    +0.000 C 
ENDBRANCH  18  20
ENDBRANCH  17  18
ENDBRANCH   9  17
ENDBRANCH   1  11
BRANCH   6  21
ATOM     21  C   UNL     1      -0.345   9.833  21.167  0.00  0.00    +0.000 A 
ATOM     22  C   UNL     1      -0.437  10.506  22.388  0.00  0.00    +0.000 A 
ATOM     23  C   UNL     1      -1.131  11.722  22.493  0.00  0.00    +0.000 A 
ATOM     24  C   UNL     1      -1.762  12.293  21.382  0.00  0.00    +0.000 A 
ATOM     25  C   UNL     1      -1.707  11.613  20.165  0.00  0.00    +0.000 A 
ATOM     26  C   UNL     1      -0.977  10.420  20.069  0.00  0.00    +0.000 A 
BRANCH  24  27
ATOM     27  O   UNL     1      -2.469  13.461  21.441  0.00  0.00    +0.000 OA
ATOM     28  C   UNL     1      -3.852  13.349  21.745  0.00  0.00    +0.000 C 
ENDBRANCH  24  27
BRANCH  25  29
ATOM     29  O   UNL     1      -2.268  11.979  18.964  0.00  0.00    +0.000 OA
BRANCH  29  30
ATOM     30  C   UNL     1      -1.667  11.445  17.788  0.00  0.00    +0.000 C 
BRANCH  30  31
ATOM     31  C   UNL     1      -2.710  10.642  17.064  0.00  0.00    +0.000 C 
ATOM     32  C   UNL     1      -3.857  11.152  16.594  0.00  0.00    +0.000 C 
ENDBRANCH  30  31
ENDBRANCH  29  30
ENDBRANCH  25  29
ENDBRANCH   6  21
TORSDOF 10
ENDMDL
MODEL 6
REMARK VINA RESULT:      -7.3      2.450      3.329
REMARK  Name = 
REMARK  12 active torsions:
REMARK  status: ('A' for Active; 'I' for Inactive)
REMARK    1  A    between atoms: C_2  and  C_3
REMARK    2  A    between atoms: C_3  and  O_4
REMARK    3  A    between atoms: O_4  and  C_5
REMARK    4  A    between atoms: C_7  and  C_8
REMARK    5  A    between atoms: C_13  and  C_14
REMARK    6  A    between atoms: C_17  and  O_18
REMARK    7  A    between atoms: O_18  and  C_19
REMARK    8  A    between atoms: C_20  and  O_21
REMARK    9  A    between atoms: O_21  and  C_22
REMARK   10  A    between atoms: C_22  and  C_23
REMARK   11  A    between atoms: C_30  and  O_31
REMARK   12  A    between atoms: O_31  and  C_32
REMARK                            x       y       z     vdW  Elec       q    Type
REMARK                         _______ _______ _______ _____ _____    ______ ____
ROOT
ATOM      1  C   UNL     1       0.120  11.614  19.625  0.00  0.00    +0.000 C 
ATOM      2  C   UNL     1       0.717  10.425  19.762  0.00  0.00    +0.000 C 
ATOM      3  C   UNL     1       0.717   9.527  20.951  0.00  0.00    +0.000 C 
ATOM      4  C   UNL     1       1.442   8.267  20.518  0.00  0.00    +0.000 C 
ATOM      5  C   UNL     1       1.855   8.436  19.090  0.00  0.00    +0.000 C 
ATOM      6  C   UNL     1       2.459   7.581  18.246  0.00  0.00    +0.000 C 
ATOM      7  C   UNL     1       1.448   9.791  18.640  0.00  0.00    +0.000 C 
ATOM      8  O   UNL     1       1.648  10.279  17.545  0.00  0.00    +0.000 OA
ENDROOT
BRANCH   1  11
ATOM      9  C   UNL     1      -2.870  12.663  21.683  0.00  0.00    +0.000 A 
ATOM     10  C   UNL     1      -2.087  12.159  20.631  0.00  0.00    +0.000 A 
ATOM     11  C   UNL     1      -0.694  12.218  20.678  0.00  0.00    +0.000 A 
ATOM     12  C   UNL     1      -0.075  12.841  21.757  0.00  0.00    +0.000 A 
ATOM     13  C   UNL     1      -0.842  13.348  22.809  0.00  0.00    +0.000 A 
ATOM     14  C   UNL     1      -2.242  13.241  22.802  0.00  0.00    +0.000 A 
BRANCH  14  15
ATOM     15  O   UNL     1      -3.018  13.604  23.872  0.00  0.00    +0.000 OA
ATOM     16  C   UNL     1      -2.834  14.913  24.404  0.00  0.00    +0.000 C 
ENDBRANCH  14  15
BRANCH   9  17
ATOM     17  O   UNL     1      -4.209  12.461  21.472  0.00  0.00    +0.000 OA
BRANCH  17  18
ATOM     18  C   UNL     1      -4.992  13.551  20.998  0.00  0.00    +0.000 C 
BRANCH  18  20
ATOM     19  C   UNL     1      -6.542  11.711  20.236  0.00  0.00    +0.000 C 
ATOM     20  C   UNL     1      -6.329  12.984  20.600  0.00  0.00    +0.000 C 
ENDBRANCH  18  20
ENDBRANCH  17  18
ENDBRANCH   9  17
ENDBRANCH   1  11
BRANCH   6  21
ATOM     21  C   UNL     1       2.882   6.185  18.494  0.00  0.00    +0.000 A 
ATOM     22  C   UNL     1       1.908   5.182  18.496  0.00  0.00    +0.000 A 
ATOM     23  C   UNL     1       2.247   3.846  18.765  0.00  0.00    +0.000 A 
ATOM     24  C   UNL     1       3.565   3.477  19.052  0.00  0.00    +0.000 A 
ATOM     25  C   UNL     1       4.541   4.474  19.088  0.00  0.00    +0.000 A 
ATOM     26  C   UNL     1       4.193   5.797  18.778  0.00  0.00    +0.000 A 
BRANCH  24  27
ATOM     27  O   UNL     1       3.937   2.196  19.346  0.00  0.00    +0.000 OA
ATOM     28  C   UNL     1       3.689   1.219  18.344  0.00  0.00    +0.000 C 
ENDBRANCH  24  27
BRANCH  25  29
ATOM     29  O   UNL     1       5.881   4.339  19.366  0.00  0.00    +0.000 OA
BRANCH  29  30
ATOM     30  C   UNL     1       6.742   5.363  18.876  0.00  0.00    +0.000 C 
BRANCH  30  31
ATOM     31  C   UNL     1       7.590   4.766  17.788  0.00  0.00    +0.000 C 
ATOM     32  C   UNL     1       7.159   4.543  16.538  0.00  0.00    +0.000 C 
ENDBRANCH  30  31
ENDBRANCH  29  30
ENDBRANCH  25  29
ENDBRANCH   6  21
TORSDOF 10
ENDMDL
MODEL 7
REMARK VINA RESULT:      -7.2      0.806      1.000
REMARK  Name = 
REMARK  12 active torsions:
REMARK  status: ('A' for Active; 'I' for Inactive)
REMARK    1  A    between atoms: C_2  and  C_3
REMARK    2  A    between atoms: C_3  and  O_4
REMARK    3  A    between atoms: O_4  and  C_5
REMARK    4  A    between atoms: C_7  and  C_8
REMARK    5  A    between atoms: C_13  and  C_14
REMARK    6  A    between atoms: C_17  and  O_18
REMARK    7  A    between atoms: O_18  and  C_19
REMARK    8  A    between atoms: C_20  and  O_21
REMARK    9  A    between atoms: O_21  and  C_22
REMARK   10  A    between atoms: C_22  and  C_23
REMARK   11  A    between atoms: C_30  and  O_31
REMARK   12  A    between atoms: O_31  and  C_32
REMARK                            x       y       z     vdW  Elec       q    Type
REMARK                         _______ _______ _______ _____ _____    ______ ____
ROOT
ATOM      1  C   UNL     1       0.151   9.188  21.043  0.00  0.00    +0.000 C 
ATOM      2  C   UNL     1       0.930   8.611  20.123  0.00  0.00    +0.000 C 
ATOM      3  C   UNL     1       1.362   9.161  18.806  0.00  0.00    +0.000 C 
ATOM      4  C   UNL     1       2.327   8.143  18.229  0.00  0.00    +0.000 C 
ATOM      5  C   UNL     1       2.454   7.017  19.206  0.00  0.00    +0.000 C 
ATOM      6  C   UNL     1       3.233   5.921  19.182  0.00  0.00    +0.000 C 
ATOM      7  C   UNL     1       1.552   7.286  20.353  0.00  0.00    +0.000 C 
ATOM      8  O   UNL     1       1.377   6.569  21.319  0.00  0.00    +0.000 OA
ENDROOT
BRANCH   1  11
ATOM      9  C   UNL     1      -1.613  12.194  19.583  0.00  0.00    +0.000 A 
ATOM     10  C   UNL     1      -1.016  10.928  19.705  0.00  0.00    +0.000 A 
ATOM     11  C   UNL     1      -0.392  10.536  20.889  0.00  0.00    +0.000 A 
ATOM     12  C   UNL     1      -0.309  11.439  21.945  0.00  0.00    +0.000 A 
ATOM     13  C   UNL     1      -0.898  12.701  21.837  0.00  0.00    +0.000 A 
ATOM     14  C   UNL     1      -1.581  13.085  20.672  0.00  0.00    +0.000 A 
BRANCH  14  15
ATOM     15  O   UNL     1      -2.283  14.259  20.577  0.00  0.00    +0.000 OA
ATOM     16  C   UNL     1      -3.365  14.452  21.484  0.00  0.00    +0.000 C 
ENDBRANCH  14  15
BRANCH   9  17
ATOM     17  O   UNL     1      -2.218  12.365  18.365  0.00  0.00    +0.000 OA
BRANCH  17  18
ATOM     18  C   UNL     1      -3.060  11.327  17.877  0.00  0.00    +0.000 C 
BRANCH  18  20
ATOM     19  C   UNL     1      -2.815   9.887  15.818  0.00  0.00    +0.000 C 
ATOM     20  C   UNL     1      -2.633  11.051  16.459  0.00  0.00    +0.000 C 
ENDBRANCH  18  20
ENDBRANCH  17  18
ENDBRANCH   9  17
ENDBRANCH   1  11
BRANCH   6  21
ATOM     21  C   UNL     1       4.226   5.517  18.163  0.00  0.00    +0.000 A 
ATOM     22  C   UNL     1       3.854   4.565  17.208  0.00  0.00    +0.000 A 
ATOM     23  C   UNL     1       4.768   4.114  16.243  0.00  0.00    +0.000 A 
ATOM     24  C   UNL     1       6.082   4.593  16.210  0.00  0.00    +0.000 A 
ATOM     25  C   UNL     1       6.476   5.517  17.179  0.00  0.00    +0.000 A 
ATOM     26  C   UNL     1       5.540   5.987  18.111  0.00  0.00    +0.000 A 
BRANCH  24  27
ATOM     27  O   UNL     1       7.012   4.165  15.306  0.00  0.00    +0.000 OA
ATOM     28  C   UNL     1       6.990   4.788  14.030  0.00  0.00    +0.000 C 
ENDBRANCH  24  27
BRANCH  25  29
ATOM     29  O   UNL     1       7.712   6.098  17.344  0.00  0.00    +0.000 OA
BRANCH  29  30
ATOM     30  C   UNL     1       8.038   6.543  18.656  0.00  0.00    +0.000 C 
BRANCH  30  31
ATOM     31  C   UNL     1       8.367   8.008  18.575  0.00  0.00    +0.000 C 
ATOM     32  C   UNL     1       7.948   8.817  17.591  0.00  0.00    +0.000 C 
ENDBRANCH  30  31
ENDBRANCH  29  30
ENDBRANCH  25  29
ENDBRANCH   6  21
TORSDOF 10
ENDMDL
MODEL 8
REMARK VINA RESULT:      -7.1      2.831     11.064
REMARK  Name = 
REMARK  12 active torsions:
REMARK  status: ('A' for Active; 'I' for Inactive)
REMARK    1  A    between atoms: C_2  and  C_3
REMARK    2  A    between atoms: C_3  and  O_4
REMARK    3  A    between atoms: O_4  and  C_5
REMARK    4  A    between atoms: C_7  and  C_8
REMARK    5  A    between atoms: C_13  and  C_14
REMARK    6  A    between atoms: C_17  and  O_18
REMARK    7  A    between atoms: O_18  and  C_19
REMARK    8  A    between atoms: C_20  and  O_21
REMARK    9  A    between atoms: O_21  and  C_22
REMARK   10  A    between atoms: C_22  and  C_23
REMARK   11  A    between atoms: C_30  and  O_31
REMARK   12  A    between atoms: O_31  and  C_32
REMARK                            x       y       z     vdW  Elec       q    Type
REMARK                         _______ _______ _______ _____ _____    ______ ____
ROOT
ATOM      1  C   UNL     1       1.322   8.634  18.031  0.00  0.00    +0.000 C 
ATOM      2  C   UNL     1       0.791   9.267  19.082  0.00  0.00    +0.000 C 
ATOM      3  C   UNL     1       1.167   9.141  20.519  0.00  0.00    +0.000 C 
ATOM      4  C   UNL     1       0.330  10.168  21.258  0.00  0.00    +0.000 C 
ATOM      5  C   UNL     1      -0.519  10.883  20.256  0.00  0.00    +0.000 C 
ATOM      6  C   UNL     1      -1.370  11.913  20.405  0.00  0.00    +0.000 C 
ATOM      7  C   UNL     1      -0.268  10.290  18.918  0.00  0.00    +0.000 C 
ATOM      8  O   UNL     1      -0.806  10.605  17.875  0.00  0.00    +0.000 OA
ENDROOT
BRANCH   1  11
ATOM      9  C   UNL     1       3.394   5.644  19.052  0.00  0.00    +0.000 A 
ATOM     10  C   UNL     1       2.358   6.592  18.998  0.00  0.00    +0.000 A 
ATOM     11  C   UNL     1       2.437   7.697  18.151  0.00  0.00    +0.000 A 
ATOM     12  C   UNL     1       3.588   7.892  17.393  0.00  0.00    +0.000 A 
ATOM     13  C   UNL     1       4.625   6.957  17.438  0.00  0.00    +0.000 A 
ATOM     14  C   UNL     1       4.532   5.810  18.242  0.00  0.00    +0.000 A 
BRANCH  14  15
ATOM     15  O   UNL     1       5.466   4.807  18.212  0.00  0.00    +0.000 OA
ATOM     16  C   UNL     1       6.779   5.116  18.672  0.00  0.00    +0.000 C 
ENDBRANCH  14  15
BRANCH   9  17
ATOM     17  O   UNL     1       3.102   4.609  19.902  0.00  0.00    +0.000 OA
BRANCH  17  18
ATOM     18  C   UNL     1       2.070   4.794  20.865  0.00  0.00    +0.000 C 
BRANCH  18  20
ATOM     19  C   UNL     1       0.939   2.896  19.644  0.00  0.00    +0.000 C 
ATOM     20  C   UNL     1       1.165   3.594  20.767  0.00  0.00    +0.000 C 
ENDBRANCH  18  20
ENDBRANCH  17  18
ENDBRANCH   9  17
ENDBRANCH   1  11
BRANCH   6  21
ATOM     21  C   UNL     1      -1.703  12.663  21.636  0.00  0.00    +0.000 A 
ATOM     22  C   UNL     1      -0.747  13.535  22.166  0.00  0.00    +0.000 A 
ATOM     23  C   UNL     1      -0.992  14.242  23.354  0.00  0.00    +0.000 A 
ATOM     24  C   UNL     1      -2.195  14.089  24.052  0.00  0.00    +0.000 A 
ATOM     25  C   UNL     1      -3.144  13.196  23.552  0.00  0.00    +0.000 A 
ATOM     26  C   UNL     1      -2.899  12.527  22.344  0.00  0.00    +0.000 A 
BRANCH  24  27
ATOM     27  O   UNL     1      -2.468  14.736  25.223  0.00  0.00    +0.000 OA
ATOM     28  C   UNL     1      -1.430  15.546  25.757  0.00  0.00    +0.000 C 
ENDBRANCH  24  27
BRANCH  25  29
ATOM     29  O   UNL     1      -4.372  12.879  24.083  0.00  0.00    +0.000 OA
BRANCH  29  30
ATOM     30  C   UNL     1      -5.501  13.053  23.232  0.00  0.00    +0.000 C 
BRANCH  30  31
ATOM     31  C   UNL     1      -6.732  12.730  24.031  0.00  0.00    +0.000 C 
ATOM     32  C   UNL     1      -7.713  13.608  24.285  0.00  0.00    +0.000 C 
ENDBRANCH  30  31
ENDBRANCH  29  30
ENDBRANCH  25  29
ENDBRANCH   6  21
TORSDOF 10
ENDMDL
MODEL 9
REMARK VINA RESULT:      -7.1      2.429      3.400
REMARK  Name = 
REMARK  12 active torsions:
REMARK  status: ('A' for Active; 'I' for Inactive)
REMARK    1  A    between atoms: C_2  and  C_3
REMARK    2  A    between atoms: C_3  and  O_4
REMARK    3  A    between atoms: O_4  and  C_5
REMARK    4  A    between atoms: C_7  and  C_8
REMARK    5  A    between atoms: C_13  and  C_14
REMARK    6  A    between atoms: C_17  and  O_18
REMARK    7  A    between atoms: O_18  and  C_19
REMARK    8  A    between atoms: C_20  and  O_21
REMARK    9  A    between atoms: O_21  and  C_22
REMARK   10  A    between atoms: C_22  and  C_23
REMARK   11  A    between atoms: C_30  and  O_31
REMARK   12  A    between atoms: O_31  and  C_32
REMARK                            x       y       z     vdW  Elec       q    Type
REMARK                         _______ _______ _______ _____ _____    ______ ____
ROOT
ATOM      1  C   UNL     1      -0.375  11.498  20.093  0.00  0.00    +0.000 C 
ATOM      2  C   UNL     1       0.194  10.297  20.247  0.00  0.00    +0.000 C 
ATOM      3  C   UNL     1      -0.105   9.262  21.277  0.00  0.00    +0.000 C 
ATOM      4  C   UNL     1       0.744   8.059  20.914  0.00  0.00    +0.000 C 
ATOM      5  C   UNL     1       1.524   8.396  19.683  0.00  0.00    +0.000 C 
ATOM      6  C   UNL     1       2.358   7.645  18.942  0.00  0.00    +0.000 C 
ATOM      7  C   UNL     1       1.219   9.798  19.302  0.00  0.00    +0.000 C 
ATOM      8  O   UNL     1       1.696  10.413  18.368  0.00  0.00    +0.000 OA
ENDROOT
BRANCH   1  11
ATOM      9  C   UNL     1      -3.733  12.815  21.217  0.00  0.00    +0.000 A 
ATOM     10  C   UNL     1      -2.657  12.434  20.398  0.00  0.00    +0.000 A 
ATOM     11  C   UNL     1      -1.460  11.976  20.947  0.00  0.00    +0.000 A 
ATOM     12  C   UNL     1      -1.312  11.952  22.331  0.00  0.00    +0.000 A 
ATOM     13  C   UNL     1      -2.374  12.328  23.157  0.00  0.00    +0.000 A 
ATOM     14  C   UNL     1      -3.604  12.735  22.616  0.00  0.00    +0.000 A 
BRANCH  14  15
ATOM     15  O   UNL     1      -4.708  12.983  23.390  0.00  0.00    +0.000 OA
ATOM     16  C   UNL     1      -4.910  14.320  23.838  0.00  0.00    +0.000 C 
ENDBRANCH  14  15
BRANCH   9  17
ATOM     17  O   UNL     1      -4.833  13.182  20.487  0.00  0.00    +0.000 OA
BRANCH  17  18
ATOM     18  C   UNL     1      -5.635  12.158  19.910  0.00  0.00    +0.000 C 
BRANCH  18  20
ATOM     19  C   UNL     1      -6.902  12.279  17.730  0.00  0.00    +0.000 C 
ATOM     20  C   UNL     1      -5.793  12.500  18.451  0.00  0.00    +0.000 C 
ENDBRANCH  18  20
ENDBRANCH  17  18
ENDBRANCH   9  17
ENDBRANCH   1  11
BRANCH   6  21
ATOM     21  C   UNL     1       2.735   6.227  19.130  0.00  0.00    +0.000 A 
ATOM     22  C   UNL     1       1.754   5.324  19.553  0.00  0.00    +0.000 A 
ATOM     23  C   UNL     1       2.065   3.976  19.787  0.00  0.00    +0.000 A 
ATOM     24  C   UNL     1       3.367   3.493  19.617  0.00  0.00    +0.000 A 
ATOM     25  C   UNL     1       4.362   4.390  19.229  0.00  0.00    +0.000 A 
ATOM     26  C   UNL     1       4.027   5.725  18.961  0.00  0.00    +0.000 A 
BRANCH  24  27
ATOM     27  O   UNL     1       3.721   2.195  19.857  0.00  0.00    +0.000 OA
ATOM     28  C   UNL     1       3.711   1.318  18.740  0.00  0.00    +0.000 C 
ENDBRANCH  24  27
BRANCH  25  29
ATOM     29  O   UNL     1       5.699   4.137  19.025  0.00  0.00    +0.000 OA
BRANCH  29  30
ATOM     30  C   UNL     1       6.253   4.585  17.792  0.00  0.00    +0.000 C 
BRANCH  30  31
ATOM     31  C   UNL     1       7.609   5.164  18.082  0.00  0.00    +0.000 C 
ATOM     32  C   UNL     1       7.881   5.948  19.135  0.00  0.00    +0.000 C 
ENDBRANCH  30  31
ENDBRANCH  29  30
ENDBRANCH  25  29
ENDBRANCH   6  21
TORSDOF 10
ENDMDL
