MODEL 1
REMARK VINA RESULT:      -8.0      0.000      0.000
REMARK  Name = 
REMARK  6 active torsions:
REMARK  status: ('A' for Active; 'I' for Inactive)
REMARK    1  A    between atoms: C_1  and  C_2
REMARK    2  A    between atoms: C_2  and  O_3
REMARK    3  A    between atoms: O_3  and  C_4
REMARK    4  A    between atoms: C_7  and  N_8
REMARK    5  A    between atoms: N_8  and  C_9
REMARK    6  A    between atoms: C_9  and  N_10
REMARK                            x       y       z     vdW  Elec       q    Type
REMARK                         _______ _______ _______ _____ _____    ______ ____
ROOT
ATOM      1  C   UNL     1       4.864   4.047  16.095  0.00  0.00    +0.000 C 
ENDROOT
BRANCH   1   2
ATOM      2  N   UNL     1       3.814   3.865  17.067  0.00  0.00    +0.000 N 
ATOM      3  C   UNL     1       3.331   4.973  17.714  0.00  0.00    +0.000 C 
ATOM      4  O   UNL     1       3.576   6.146  17.506  0.00  0.00    +0.000 OA
ATOM      5  C   UNL     1       2.514   4.500  18.823  0.00  0.00    +0.000 A 
ATOM      6  C   UNL     1       1.806   5.217  19.767  0.00  0.00    +0.000 A 
ATOM      7  C   UNL     1       1.172   4.490  20.776  0.00  0.00    +0.000 A 
ATOM      8  C   UNL     1       1.271   3.083  20.819  0.00  0.00    +0.000 A 
ATOM      9  C   UNL     1       2.004   2.382  19.850  0.00  0.00    +0.000 A 
ATOM     10  C   UNL     1       2.615   3.122  18.855  0.00  0.00    +0.000 A 
ATOM     11  C   UNL     1       3.494   2.724  17.748  0.00  0.00    +0.000 C 
ATOM     12  O   UNL     1       3.871   1.581  17.558  0.00  0.00    +0.000 OA
ENDBRANCH   1   2
BRANCH   1  13
ATOM     13  N   UNL     1       6.190   3.780  16.621  0.00  0.00    +0.000 N 
ATOM     14  H   UNL     1       6.190   2.960  17.234  0.00  0.00    +0.000 HD
BRANCH  13  18
ATOM     15  C   UNL     1       8.051   7.160  18.395  0.00  0.00    +0.000 A 
ATOM     16  C   UNL     1       7.492   7.225  17.119  0.00  0.00    +0.000 A 
ATOM     17  C   UNL     1       6.873   6.104  16.550  0.00  0.00    +0.000 A 
ATOM     18  C   UNL     1       6.845   4.875  17.218  0.00  0.00    +0.000 A 
ATOM     19  C   UNL     1       7.384   4.833  18.512  0.00  0.00    +0.000 A 
ATOM     20  C   UNL     1       7.998   5.955  19.090  0.00  0.00    +0.000 A 
BRANCH  15  21
ATOM     21  O   UNL     1       8.637   8.313  18.843  0.00  0.00    +0.000 OA
BRANCH  21  23
ATOM     22  C   UNL     1       9.373  10.557  18.462  0.00  0.00    +0.000 C 
ATOM     23  C   UNL     1       8.350   9.496  18.095  0.00  0.00    +0.000 C 
ENDBRANCH  21  23
ENDBRANCH  15  21
ENDBRANCH  13  18
ENDBRANCH   1  13
TORSDOF 5
ENDMDL
MODEL 2
REMARK VINA RESULT:      -7.8      0.217      1.871
REMARK  Name = 
REMARK  6 active torsions:
REMARK  status: ('A' for Active; 'I' for Inactive)
REMARK    1  A    between atoms: C_1  and  C_2
REMARK    2  A    between atoms: C_2  and  O_3
REMARK    3  A    between atoms: O_3  and  C_4
REMARK    4  A    between atoms: C_7  and  N_8
REMARK    5  A    between atoms: N_8  and  C_9
REMARK    6  A    between atoms: C_9  and  N_10
REMARK                            x       y       z     vdW  Elec       q    Type
REMARK                         _______ _______ _______ _____ _____    ______ ____
ROOT
ATOM      1  C   UNL     1       4.860   3.889  16.154  0.00  0.00    +0.000 C 
ENDROOT
BRANCH   1   2
ATOM      2  N   UNL     1       4.137   3.970  17.399  0.00  0.00    +0.000 N 
ATOM      3  C   UNL     1       3.647   2.810  17.941  0.00  0.00    +0.000 C 
ATOM      4  O   UNL     1       3.832   1.662  17.583  0.00  0.00    +0.000 OA
ATOM      5  C   UNL     1       2.729   3.188  19.007  0.00  0.00    +0.000 A 
ATOM      6  C   UNL     1       1.987   2.392  19.857  0.00  0.00    +0.000 A 
ATOM      7  C   UNL     1       1.119   3.039  20.740  0.00  0.00    +0.000 A 
ATOM      8  C   UNL     1       1.012   4.445  20.741  0.00  0.00    +0.000 A 
ATOM      9  C   UNL     1       1.774   5.227  19.861  0.00  0.00    +0.000 A 
ATOM     10  C   UNL     1       2.634   4.566  19.003  0.00  0.00    +0.000 A 
ATOM     11  C   UNL     1       3.508   5.060  17.931  0.00  0.00    +0.000 C 
ATOM     12  O   UNL     1       3.574   6.229  17.594  0.00  0.00    +0.000 OA
ENDBRANCH   1   2
BRANCH   1  13
ATOM     13  N   UNL     1       6.296   3.782  16.327  0.00  0.00    +0.000 N 
ATOM     14  H   UNL     1       6.557   2.877  16.728  0.00  0.00    +0.000 HD
BRANCH  13  18
ATOM     15  C   UNL     1       8.041   7.075  18.363  0.00  0.00    +0.000 A 
ATOM     16  C   UNL     1       7.470   7.223  17.099  0.00  0.00    +0.000 A 
ATOM     17  C   UNL     1       6.890   6.128  16.442  0.00  0.00    +0.000 A 
ATOM     18  C   UNL     1       6.914   4.849  17.009  0.00  0.00    +0.000 A 
ATOM     19  C   UNL     1       7.464   4.722  18.293  0.00  0.00    +0.000 A 
ATOM     20  C   UNL     1       8.038   5.817  18.957  0.00  0.00    +0.000 A 
BRANCH  15  21
ATOM     21  O   UNL     1       8.586   8.210  18.901  0.00  0.00    +0.000 OA
BRANCH  21  23
ATOM     22  C   UNL     1       9.231  10.511  18.798  0.00  0.00    +0.000 C 
ATOM     23  C   UNL     1       8.415   9.410  18.143  0.00  0.00    +0.000 C 
ENDBRANCH  21  23
ENDBRANCH  15  21
ENDBRANCH  13  18
ENDBRANCH   1  13
TORSDOF 5
ENDMDL
MODEL 3
REMARK VINA RESULT:      -7.8      0.196      1.040
REMARK  Name = 
REMARK  6 active torsions:
REMARK  status: ('A' for Active; 'I' for Inactive)
REMARK    1  A    between atoms: C_1  and  C_2
REMARK    2  A    between atoms: C_2  and  O_3
REMARK    3  A    between atoms: O_3  and  C_4
REMARK    4  A    between atoms: C_7  and  N_8
REMARK    5  A    between atoms: N_8  and  C_9
REMARK    6  A    between atoms: C_9  and  N_10
REMARK                            x       y       z     vdW  Elec       q    Type
REMARK                         _______ _______ _______ _____ _____    ______ ____
ROOT
ATOM      1  C   UNL     1       4.825   3.947  16.171  0.00  0.00    +0.000 C 
ENDROOT
BRANCH   1   2
ATOM      2  N   UNL     1       3.769   3.748  17.132  0.00  0.00    +0.000 N 
ATOM      3  C   UNL     1       3.230   4.853  17.740  0.00  0.00    +0.000 C 
ATOM      4  O   UNL     1       3.429   6.030  17.502  0.00  0.00    +0.000 OA
ATOM      5  C   UNL     1       2.416   4.378  18.851  0.00  0.00    +0.000 A 
ATOM      6  C   UNL     1       1.664   5.091  19.763  0.00  0.00    +0.000 A 
ATOM      7  C   UNL     1       1.045   4.367  20.784  0.00  0.00    +0.000 A 
ATOM      8  C   UNL     1       1.202   2.967  20.869  0.00  0.00    +0.000 A 
ATOM      9  C   UNL     1       1.978   2.270  19.931  0.00  0.00    +0.000 A 
ATOM     10  C   UNL     1       2.573   3.007  18.923  0.00  0.00    +0.000 A 
ATOM     11  C   UNL     1       3.485   2.615  17.841  0.00  0.00    +0.000 C 
ATOM     12  O   UNL     1       3.912   1.484  17.690  0.00  0.00    +0.000 OA
ENDBRANCH   1   2
BRANCH   1  13
ATOM     13  N   UNL     1       6.153   3.796  16.734  0.00  0.00    +0.000 N 
ATOM     14  H   UNL     1       6.186   3.032  17.415  0.00  0.00    +0.000 HD
BRANCH  13  18
ATOM     15  C   UNL     1       8.042   7.263  18.298  0.00  0.00    +0.000 A 
ATOM     16  C   UNL     1       8.019   6.064  19.012  0.00  0.00    +0.000 A 
ATOM     17  C   UNL     1       7.399   4.926  18.479  0.00  0.00    +0.000 A 
ATOM     18  C   UNL     1       6.741   4.970  17.245  0.00  0.00    +0.000 A 
ATOM     19  C   UNL     1       6.800   6.173  16.526  0.00  0.00    +0.000 A 
ATOM     20  C   UNL     1       7.426   7.314  17.052  0.00  0.00    +0.000 A 
BRANCH  15  21
ATOM     21  O   UNL     1       8.666   8.309  18.923  0.00  0.00    +0.000 OA
BRANCH  21  23
ATOM     22  C   UNL     1       9.400  10.582  19.049  0.00  0.00    +0.000 C 
ATOM     23  C   UNL     1       8.554   9.581  18.281  0.00  0.00    +0.000 C 
ENDBRANCH  21  23
ENDBRANCH  15  21
ENDBRANCH  13  18
ENDBRANCH   1  13
TORSDOF 5
ENDMDL
MODEL 4
REMARK VINA RESULT:      -7.5      0.324      2.145
REMARK  Name = 
REMARK  6 active torsions:
REMARK  status: ('A' for Active; 'I' for Inactive)
REMARK    1  A    between atoms: C_1  and  C_2
REMARK    2  A    between atoms: C_2  and  O_3
REMARK    3  A    between atoms: O_3  and  C_4
REMARK    4  A    between atoms: C_7  and  N_8
REMARK    5  A    between atoms: N_8  and  C_9
REMARK    6  A    between atoms: C_9  and  N_10
REMARK                            x       y       z     vdW  Elec       q    Type
REMARK                         _______ _______ _______ _____ _____    ______ ____
ROOT
ATOM      1  C   UNL     1       5.060   3.803  16.344  0.00  0.00    +0.000 C 
ENDROOT
BRANCH   1   2
ATOM      2  N   UNL     1       4.255   3.878  17.539  0.00  0.00    +0.000 N 
ATOM      3  C   UNL     1       3.715   2.717  18.031  0.00  0.00    +0.000 C 
ATOM      4  O   UNL     1       3.911   1.572  17.670  0.00  0.00    +0.000 OA
ATOM      5  C   UNL     1       2.732   3.093  19.037  0.00  0.00    +0.000 A 
ATOM      6  C   UNL     1       1.924   2.297  19.824  0.00  0.00    +0.000 A 
ATOM      7  C   UNL     1       1.007   2.943  20.655  0.00  0.00    +0.000 A 
ATOM      8  C   UNL     1       0.917   4.351  20.668  0.00  0.00    +0.000 A 
ATOM      9  C   UNL     1       1.746   5.134  19.852  0.00  0.00    +0.000 A 
ATOM     10  C   UNL     1       2.654   4.473  19.045  0.00  0.00    +0.000 A 
ATOM     11  C   UNL     1       3.604   4.970  18.042  0.00  0.00    +0.000 C 
ATOM     12  O   UNL     1       3.708   6.142  17.726  0.00  0.00    +0.000 OA
ENDBRANCH   1   2
BRANCH   1  13
ATOM     13  N   UNL     1       6.486   3.852  16.606  0.00  0.00    +0.000 N 
ATOM     14  H   UNL     1       6.793   3.044  17.153  0.00  0.00    +0.000 HD
BRANCH  13  18
ATOM     15  C   UNL     1       8.067   7.427  18.268  0.00  0.00    +0.000 A 
ATOM     16  C   UNL     1       8.115   6.219  18.964  0.00  0.00    +0.000 A 
ATOM     17  C   UNL     1       7.596   5.045  18.399  0.00  0.00    +0.000 A 
ATOM     18  C   UNL     1       6.970   5.059  17.148  0.00  0.00    +0.000 A 
ATOM     19  C   UNL     1       6.956   6.274  16.448  0.00  0.00    +0.000 A 
ATOM     20  C   UNL     1       7.481   7.450  17.006  0.00  0.00    +0.000 A 
BRANCH  15  21
ATOM     21  O   UNL     1       8.593   8.507  18.923  0.00  0.00    +0.000 OA
BRANCH  21  23
ATOM     22  C   UNL     1       9.547  10.700  18.908  0.00  0.00    +0.000 C 
ATOM     23  C   UNL     1       8.620   9.734  18.191  0.00  0.00    +0.000 C 
ENDBRANCH  21  23
ENDBRANCH  15  21
ENDBRANCH  13  18
ENDBRANCH   1  13
TORSDOF 5
ENDMDL
MODEL 5
REMARK VINA RESULT:      -7.3      3.242      6.182
REMARK  Name = 
REMARK  6 active torsions:
REMARK  status: ('A' for Active; 'I' for Inactive)
REMARK    1  A    between atoms: C_1  and  C_2
REMARK    2  A    between atoms: C_2  and  O_3
REMARK    3  A    between atoms: O_3  and  C_4
REMARK    4  A    between atoms: C_7  and  N_8
REMARK    5  A    between atoms: N_8  and  C_9
REMARK    6  A    between atoms: C_9  and  N_10
REMARK                            x       y       z     vdW  Elec       q    Type
REMARK                         _______ _______ _______ _____ _____    ______ ____
ROOT
ATOM      1  C   UNL     1       2.716   4.760  19.627  0.00  0.00    +0.000 C 
ENDROOT
BRANCH   1   2
ATOM      2  N   UNL     1       3.675   4.398  18.612  0.00  0.00    +0.000 N 
ATOM      3  C   UNL     1       4.978   4.791  18.781  0.00  0.00    +0.000 C 
ATOM      4  O   UNL     1       5.497   5.319  19.746  0.00  0.00    +0.000 OA
ATOM      5  C   UNL     1       5.661   4.567  17.515  0.00  0.00    +0.000 A 
ATOM      6  C   UNL     1       6.979   4.794  17.170  0.00  0.00    +0.000 A 
ATOM      7  C   UNL     1       7.340   4.559  15.841  0.00  0.00    +0.000 A 
ATOM      8  C   UNL     1       6.382   4.118  14.904  0.00  0.00    +0.000 A 
ATOM      9  C   UNL     1       5.049   3.902  15.282  0.00  0.00    +0.000 A 
ATOM     10  C   UNL     1       4.717   4.132  16.605  0.00  0.00    +0.000 A 
ATOM     11  C   UNL     1       3.429   4.072  17.308  0.00  0.00    +0.000 C 
ATOM     12  O   UNL     1       2.368   3.822  16.763  0.00  0.00    +0.000 OA
ENDBRANCH   1   2
BRANCH   1  13
ATOM     13  N   UNL     1       3.005   6.031  20.265  0.00  0.00    +0.000 N 
ATOM     14  H   UNL     1       2.888   5.974  21.280  0.00  0.00    +0.000 HD
BRANCH  13  18
ATOM     15  C   UNL     1       1.057   9.489  18.753  0.00  0.00    +0.000 A 
ATOM     16  C   UNL     1       0.935   9.113  20.090  0.00  0.00    +0.000 A 
ATOM     17  C   UNL     1       1.591   7.974  20.577  0.00  0.00    +0.000 A 
ATOM     18  C   UNL     1       2.341   7.152  19.729  0.00  0.00    +0.000 A 
ATOM     19  C   UNL     1       2.479   7.559  18.394  0.00  0.00    +0.000 A 
ATOM     20  C   UNL     1       1.832   8.704  17.904  0.00  0.00    +0.000 A 
BRANCH  15  21
ATOM     21  O   UNL     1       0.364  10.612  18.389  0.00  0.00    +0.000 OA
BRANCH  21  23
ATOM     22  C   UNL     1      -1.721  10.010  17.385  0.00  0.00    +0.000 C 
ATOM     23  C   UNL     1      -1.046  10.582  18.619  0.00  0.00    +0.000 C 
ENDBRANCH  21  23
ENDBRANCH  15  21
ENDBRANCH  13  18
ENDBRANCH   1  13
TORSDOF 5
ENDMDL
MODEL 6
REMARK VINA RESULT:      -7.2      2.842      4.694
REMARK  Name = 
REMARK  6 active torsions:
REMARK  status: ('A' for Active; 'I' for Inactive)
REMARK    1  A    between atoms: C_1  and  C_2
REMARK    2  A    between atoms: C_2  and  O_3
REMARK    3  A    between atoms: O_3  and  C_4
REMARK    4  A    between atoms: C_7  and  N_8
REMARK    5  A    between atoms: N_8  and  C_9
REMARK    6  A    between atoms: C_9  and  N_10
REMARK                            x       y       z     vdW  Elec       q    Type
REMARK                         _______ _______ _______ _____ _____    ______ ____
ROOT
ATOM      1  C   UNL     1       4.794   6.015  17.432  0.00  0.00    +0.000 C 
ENDROOT
BRANCH   1   2
ATOM      2  N   UNL     1       4.059   5.029  18.185  0.00  0.00    +0.000 N 
ATOM      3  C   UNL     1       2.717   5.233  18.382  0.00  0.00    +0.000 C 
ATOM      4  O   UNL     1       1.996   6.089  17.904  0.00  0.00    +0.000 OA
ATOM      5  C   UNL     1       2.282   4.279  19.393  0.00  0.00    +0.000 A 
ATOM      6  C   UNL     1       1.027   4.076  19.934  0.00  0.00    +0.000 A 
ATOM      7  C   UNL     1       0.921   3.134  20.959  0.00  0.00    +0.000 A 
ATOM      8  C   UNL     1       2.059   2.438  21.417  0.00  0.00    +0.000 A 
ATOM      9  C   UNL     1       3.322   2.670  20.853  0.00  0.00    +0.000 A 
ATOM     10  C   UNL     1       3.402   3.600  19.832  0.00  0.00    +0.000 A 
ATOM     11  C   UNL     1       4.551   4.123  19.082  0.00  0.00    +0.000 C 
ATOM     12  O   UNL     1       5.707   3.807  19.302  0.00  0.00    +0.000 OA
ENDBRANCH   1   2
BRANCH   1  13
ATOM     13  N   UNL     1       6.135   5.587  17.077  0.00  0.00    +0.000 N 
ATOM     14  H   UNL     1       6.825   6.315  17.281  0.00  0.00    +0.000 HD
BRANCH  13  18
ATOM     15  C   UNL     1       6.480   4.093  13.117  0.00  0.00    +0.000 A 
ATOM     16  C   UNL     1       5.354   3.830  13.897  0.00  0.00    +0.000 A 
ATOM     17  C   UNL     1       5.250   4.337  15.200  0.00  0.00    +0.000 A 
ATOM     18  C   UNL     1       6.291   5.074  15.775  0.00  0.00    +0.000 A 
ATOM     19  C   UNL     1       7.403   5.357  14.968  0.00  0.00    +0.000 A 
ATOM     20  C   UNL     1       7.508   4.858  13.660  0.00  0.00    +0.000 A 
BRANCH  15  21
ATOM     21  O   UNL     1       6.476   3.538  11.866  0.00  0.00    +0.000 OA
BRANCH  21  23
ATOM     22  C   UNL     1       6.488   1.244  11.187  0.00  0.00    +0.000 C 
ATOM     23  C   UNL     1       5.634   2.396  11.688  0.00  0.00    +0.000 C 
ENDBRANCH  21  23
ENDBRANCH  15  21
ENDBRANCH  13  18
ENDBRANCH   1  13
TORSDOF 5
ENDMDL
MODEL 7
REMARK VINA RESULT:      -7.1      3.287      5.573
REMARK  Name = 
REMARK  6 active torsions:
REMARK  status: ('A' for Active; 'I' for Inactive)
REMARK    1  A    between atoms: C_1  and  C_2
REMARK    2  A    between atoms: C_2  and  O_3
REMARK    3  A    between atoms: O_3  and  C_4
REMARK    4  A    between atoms: C_7  and  N_8
REMARK    5  A    between atoms: N_8  and  C_9
REMARK    6  A    between atoms: C_9  and  N_10
REMARK                            x       y       z     vdW  Elec       q    Type
REMARK                         _______ _______ _______ _____ _____    ______ ____
ROOT
ATOM      1  C   UNL     1       7.135   4.934  16.742  0.00  0.00    +0.000 C 
ENDROOT
BRANCH   1   2
ATOM      2  N   UNL     1       5.832   5.254  17.269  0.00  0.00    +0.000 N 
ATOM      3  C   UNL     1       5.284   6.470  16.947  0.00  0.00    +0.000 C 
ATOM      4  O   UNL     1       5.689   7.307  16.162  0.00  0.00    +0.000 OA
ATOM      5  C   UNL     1       4.133   6.666  17.819  0.00  0.00    +0.000 A 
ATOM      6  C   UNL     1       3.246   7.722  17.887  0.00  0.00    +0.000 A 
ATOM      7  C   UNL     1       2.275   7.676  18.889  0.00  0.00    +0.000 A 
ATOM      8  C   UNL     1       2.225   6.592  19.791  0.00  0.00    +0.000 A 
ATOM      9  C   UNL     1       3.144   5.536  19.702  0.00  0.00    +0.000 A 
ATOM     10  C   UNL     1       4.090   5.599  18.695  0.00  0.00    +0.000 A 
ATOM     11  C   UNL     1       5.217   4.717  18.365  0.00  0.00    +0.000 C 
ATOM     12  O   UNL     1       5.525   3.735  19.017  0.00  0.00    +0.000 OA
ENDBRANCH   1   2
BRANCH   1  13
ATOM     13  N   UNL     1       7.387   5.511  15.435  0.00  0.00    +0.000 N 
ATOM     14  H   UNL     1       7.116   6.498  15.405  0.00  0.00    +0.000 HD
BRANCH  13  18
ATOM     15  C   UNL     1       5.701   3.429  12.140  0.00  0.00    +0.000 A 
ATOM     16  C   UNL     1       5.031   3.522  13.360  0.00  0.00    +0.000 A 
ATOM     17  C   UNL     1       5.596   4.220  14.437  0.00  0.00    +0.000 A 
ATOM     18  C   UNL     1       6.868   4.796  14.338  0.00  0.00    +0.000 A 
ATOM     19  C   UNL     1       7.515   4.721  13.096  0.00  0.00    +0.000 A 
ATOM     20  C   UNL     1       6.949   4.030  12.013  0.00  0.00    +0.000 A 
BRANCH  15  21
ATOM     21  O   UNL     1       5.057   2.714  11.166  0.00  0.00    +0.000 OA
BRANCH  21  23
ATOM     22  C   UNL     1       3.357   3.908   9.982  0.00  0.00    +0.000 C 
ATOM     23  C   UNL     1       3.642   2.900  11.081  0.00  0.00    +0.000 C 
ENDBRANCH  21  23
ENDBRANCH  15  21
ENDBRANCH  13  18
ENDBRANCH   1  13
TORSDOF 5
ENDMDL
MODEL 8
REMARK VINA RESULT:      -7.0      3.241      6.159
REMARK  Name = 
REMARK  6 active torsions:
REMARK  status: ('A' for Active; 'I' for Inactive)
REMARK    1  A    between atoms: C_1  and  C_2
REMARK    2  A    between atoms: C_2  and  O_3
REMARK    3  A    between atoms: O_3  and  C_4
REMARK    4  A    between atoms: C_7  and  N_8
REMARK    5  A    between atoms: N_8  and  C_9
REMARK    6  A    between atoms: C_9  and  N_10
REMARK                            x       y       z     vdW  Elec       q    Type
REMARK                         _______ _______ _______ _____ _____    ______ ____
ROOT
ATOM      1  C   UNL     1       2.724   4.785  19.653  0.00  0.00    +0.000 C 
ENDROOT
BRANCH   1   2
ATOM      2  N   UNL     1       3.658   4.406  18.620  0.00  0.00    +0.000 N 
ATOM      3  C   UNL     1       4.969   4.781  18.764  0.00  0.00    +0.000 C 
ATOM      4  O   UNL     1       5.514   5.303  19.718  0.00  0.00    +0.000 OA
ATOM      5  C   UNL     1       5.625   4.544  17.485  0.00  0.00    +0.000 A 
ATOM      6  C   UNL     1       6.940   4.752  17.115  0.00  0.00    +0.000 A 
ATOM      7  C   UNL     1       7.272   4.509  15.781  0.00  0.00    +0.000 A 
ATOM      8  C   UNL     1       6.290   4.081  14.862  0.00  0.00    +0.000 A 
ATOM      9  C   UNL     1       4.961   3.885  15.266  0.00  0.00    +0.000 A 
ATOM     10  C   UNL     1       4.657   4.122  16.594  0.00  0.00    +0.000 A 
ATOM     11  C   UNL     1       3.383   4.082  17.322  0.00  0.00    +0.000 C 
ATOM     12  O   UNL     1       2.308   3.847  16.797  0.00  0.00    +0.000 OA
ENDBRANCH   1   2
BRANCH   1  13
ATOM     13  N   UNL     1       3.068   6.030  20.313  0.00  0.00    +0.000 N 
ATOM     14  H   UNL     1       3.021   5.937  21.331  0.00  0.00    +0.000 HD
BRANCH  13  18
ATOM     15  C   UNL     1       0.942   9.403  18.849  0.00  0.00    +0.000 A 
ATOM     16  C   UNL     1       1.796   8.669  18.026  0.00  0.00    +0.000 A 
ATOM     17  C   UNL     1       2.485   7.553  18.521  0.00  0.00    +0.000 A 
ATOM     18  C   UNL     1       2.379   7.174  19.863  0.00  0.00    +0.000 A 
ATOM     19  C   UNL     1       1.493   7.902  20.671  0.00  0.00    +0.000 A 
ATOM     20  C   UNL     1       0.796   9.016  20.178  0.00  0.00    +0.000 A 
BRANCH  15  21
ATOM     21  O   UNL     1       0.333  10.478  18.260  0.00  0.00    +0.000 OA
BRANCH  21  23
ATOM     22  C   UNL     1      -1.836  10.114  17.321  0.00  0.00    +0.000 C 
ATOM     23  C   UNL     1      -1.064  10.630  18.522  0.00  0.00    +0.000 C 
ENDBRANCH  21  23
ENDBRANCH  15  21
ENDBRANCH  13  18
ENDBRANCH   1  13
TORSDOF 5
ENDMDL
MODEL 9
REMARK VINA RESULT:      -7.0      3.130      5.531
REMARK  Name = 
REMARK  6 active torsions:
REMARK  status: ('A' for Active; 'I' for Inactive)
REMARK    1  A    between atoms: C_1  and  C_2
REMARK    2  A    between atoms: C_2  and  O_3
REMARK    3  A    between atoms: O_3  and  C_4
REMARK    4  A    between atoms: C_7  and  N_8
REMARK    5  A    between atoms: N_8  and  C_9
REMARK    6  A    between atoms: C_9  and  N_10
REMARK                            x       y       z     vdW  Elec       q    Type
REMARK                         _______ _______ _______ _____ _____    ______ ____
ROOT
ATOM      1  C   UNL     1       6.911   4.572  17.205  0.00  0.00    +0.000 C 
ENDROOT
BRANCH   1   2
ATOM      2  N   UNL     1       5.845   5.197  17.949  0.00  0.00    +0.000 N 
ATOM      3  C   UNL     1       5.214   4.462  18.919  0.00  0.00    +0.000 C 
ATOM      4  O   UNL     1       5.498   3.359  19.348  0.00  0.00    +0.000 OA
ATOM      5  C   UNL     1       4.017   5.197  19.304  0.00  0.00    +0.000 A 
ATOM      6  C   UNL     1       3.052   4.885  20.242  0.00  0.00    +0.000 A 
ATOM      7  C   UNL     1       1.959   5.748  20.342  0.00  0.00    +0.000 A 
ATOM      8  C   UNL     1       1.856   6.879  19.504  0.00  0.00    +0.000 A 
ATOM      9  C   UNL     1       2.849   7.166  18.556  0.00  0.00    +0.000 A 
ATOM     10  C   UNL     1       3.928   6.304  18.482  0.00  0.00    +0.000 A 
ATOM     11  C   UNL     1       5.085   6.271  17.579  0.00  0.00    +0.000 C 
ATOM     12  O   UNL     1       5.251   7.052  16.658  0.00  0.00    +0.000 OA
ENDBRANCH   1   2
BRANCH   1  13
ATOM     13  N   UNL     1       7.290   5.306  16.013  0.00  0.00    +0.000 N 
ATOM     14  H   UNL     1       7.041   6.296  16.090  0.00  0.00    +0.000 HD
BRANCH  13  18
ATOM     15  C   UNL     1       5.867   3.717  12.341  0.00  0.00    +0.000 A 
ATOM     16  C   UNL     1       5.123   3.608  13.516  0.00  0.00    +0.000 A 
ATOM     17  C   UNL     1       5.602   4.145  14.719  0.00  0.00    +0.000 A 
ATOM     18  C   UNL     1       6.859   4.757  14.789  0.00  0.00    +0.000 A 
ATOM     19  C   UNL     1       7.581   4.886  13.594  0.00  0.00    +0.000 A 
ATOM     20  C   UNL     1       7.102   4.357  12.385  0.00  0.00    +0.000 A 
BRANCH  15  21
ATOM     21  O   UNL     1       5.305   3.146  11.231  0.00  0.00    +0.000 OA
BRANCH  21  23
ATOM     22  C   UNL     1       3.363   3.890  10.050  0.00  0.00    +0.000 C 
ATOM     23  C   UNL     1       3.878   3.068  11.219  0.00  0.00    +0.000 C 
ENDBRANCH  21  23
ENDBRANCH  15  21
ENDBRANCH  13  18
ENDBRANCH   1  13
TORSDOF 5
ENDMDL
