MODEL 1
REMARK VINA RESULT:      -7.7      0.000      0.000
REMARK  Name = 
REMARK  7 active torsions:
REMARK  status: ('A' for Active; 'I' for Inactive)
REMARK    1  A    between atoms: C_2  and  C_3
REMARK    2  A    between atoms: C_3  and  N_4
REMARK    3  A    between atoms: C_5  and  C_7
REMARK    4  A    between atoms: C_7  and  C_8
REMARK    5  A    between atoms: C_11  and  C_12
REMARK    6  A    between atoms: C_12  and  C_13
REMARK    7  A    between atoms: C_18  and  C_19
REMARK                            x       y       z     vdW  Elec       q    Type
REMARK                         _______ _______ _______ _____ _____    ______ ____
ROOT
ATOM      1  C   UNL     1       2.083   9.419  18.447  0.00  0.00    +0.000 C 
ENDROOT
BRANCH   1   2
ATOM      2  C   UNL     1       0.670   9.911  18.341  0.00  0.00    +0.000 A 
ATOM      3  N   UNL     1      -0.176   9.514  17.413  0.00  0.00    +0.000 NA
ATOM      4  C   UNL     1      -1.408  10.118  17.600  0.00  0.00    +0.000 A 
ATOM      5  C   UNL     1      -2.559   9.905  16.823  0.00  0.00    +0.000 A 
ATOM      6  C   UNL     1      -3.755  10.552  17.163  0.00  0.00    +0.000 A 
ATOM      7  C   UNL     1      -3.844  11.428  18.259  0.00  0.00    +0.000 A 
ATOM      8  C   UNL     1      -2.676  11.663  19.013  0.00  0.00    +0.000 A 
ATOM      9  C   UNL     1      -1.481  11.003  18.674  0.00  0.00    +0.000 A 
ATOM     10  S   UNL     1       0.063  11.099  19.428  0.00  0.00    +0.000 S 
BRANCH   7  11
ATOM     11  C   UNL     1      -5.124  12.081  18.621  0.00  0.00    +0.000 A 
ATOM     12  N   UNL     1      -6.035  12.259  17.638  0.00  0.00    +0.000 NA
ATOM     13  C   UNL     1      -7.192  12.844  18.000  0.00  0.00    +0.000 A 
ATOM     14  C   UNL     1      -7.473  13.255  19.281  0.00  0.00    +0.000 A 
ATOM     15  C   UNL     1      -6.481  13.027  20.202  0.00  0.00    +0.000 A 
ATOM     16  N   UNL     1      -5.306  12.445  19.903  0.00  0.00    +0.000 NA
ENDBRANCH   7  11
ENDBRANCH   1   2
BRANCH   1  20
ATOM     17  C   UNL     1       2.242   5.879  18.520  0.00  0.00    +0.000 A 
ATOM     18  N   UNL     1       2.314   6.077  19.820  0.00  0.00    +0.000 NA
ATOM     19  N   UNL     1       2.294   7.441  20.008  0.00  0.00    +0.000 NA
ATOM     20  C   UNL     1       2.186   7.985  18.812  0.00  0.00    +0.000 A 
ATOM     21  O   UNL     1       2.164   7.048  17.809  0.00  0.00    +0.000 OA
BRANCH  17  22
ATOM     22  C   UNL     1       2.162   4.606  17.780  0.00  0.00    +0.000 C 
BRANCH  22  24
ATOM     23  N   UNL     1       4.404   5.095  16.903  0.00  0.00    +0.000 N 
ATOM     24  C   UNL     1       3.553   4.137  17.420  0.00  0.00    +0.000 C 
ATOM     25  O   UNL     1       3.907   2.975  17.621  0.00  0.00    +0.000 OA
ATOM     26  H   UNL     1       4.109   6.068  16.866  0.00  0.00    +0.000 HD
BRANCH  23  27
ATOM     27  C   UNL     1       5.764   4.782  16.537  0.00  0.00    +0.000 C 
ATOM     28  C   UNL     1       6.324   5.288  15.216  0.00  0.00    +0.000 C 
ATOM     29  C   UNL     1       6.001   3.836  15.373  0.00  0.00    +0.000 C 
BRANCH  27  31
ATOM     30  N   UNL     1       7.423   4.697  18.552  0.00  0.00    +0.000 NA
ATOM     31  C   UNL     1       6.698   4.759  17.649  0.00  0.00    +0.000 C 
ENDBRANCH  27  31
ENDBRANCH  23  27
ENDBRANCH  22  24
ENDBRANCH  17  22
ENDBRANCH   1  20
TORSDOF 7
ENDMDL
MODEL 2
REMARK VINA RESULT:      -7.6      3.282      3.837
REMARK  Name = 
REMARK  7 active torsions:
REMARK  status: ('A' for Active; 'I' for Inactive)
REMARK    1  A    between atoms: C_2  and  C_3
REMARK    2  A    between atoms: C_3  and  N_4
REMARK    3  A    between atoms: C_5  and  C_7
REMARK    4  A    between atoms: C_7  and  C_8
REMARK    5  A    between atoms: C_11  and  C_12
REMARK    6  A    between atoms: C_12  and  C_13
REMARK    7  A    between atoms: C_18  and  C_19
REMARK                            x       y       z     vdW  Elec       q    Type
REMARK                         _______ _______ _______ _____ _____    ______ ____
ROOT
ATOM      1  C   UNL     1       1.874   8.892  18.302  0.00  0.00    +0.000 C 
ENDROOT
BRANCH   1   2
ATOM      2  C   UNL     1       1.093   9.617  19.358  0.00  0.00    +0.000 A 
ATOM      3  N   UNL     1       0.679   9.057  20.476  0.00  0.00    +0.000 NA
ATOM      4  C   UNL     1       0.020   9.988  21.260  0.00  0.00    +0.000 A 
ATOM      5  C   UNL     1      -0.526   9.758  22.534  0.00  0.00    +0.000 A 
ATOM      6  C   UNL     1      -1.124  10.815  23.235  0.00  0.00    +0.000 A 
ATOM      7  C   UNL     1      -1.211  12.111  22.698  0.00  0.00    +0.000 A 
ATOM      8  C   UNL     1      -0.692  12.326  21.404  0.00  0.00    +0.000 A 
ATOM      9  C   UNL     1      -0.083  11.265  20.711  0.00  0.00    +0.000 A 
ATOM     10  S   UNL     1       0.633  11.261  19.146  0.00  0.00    +0.000 S 
BRANCH   7  11
ATOM     11  C   UNL     1      -1.821  13.223  23.465  0.00  0.00    +0.000 A 
ATOM     12  N   UNL     1      -1.003  14.212  23.890  0.00  0.00    +0.000 NA
ATOM     13  C   UNL     1      -1.588  15.213  24.573  0.00  0.00    +0.000 A 
ATOM     14  C   UNL     1      -2.933  15.267  24.847  0.00  0.00    +0.000 A 
ATOM     15  C   UNL     1      -3.674  14.214  24.371  0.00  0.00    +0.000 A 
ATOM     16  N   UNL     1      -3.149  13.187  23.679  0.00  0.00    +0.000 NA
ENDBRANCH   7  11
ENDBRANCH   1   2
BRANCH   1  20
ATOM     17  C   UNL     1       2.502   5.406  18.443  0.00  0.00    +0.000 A 
ATOM     18  N   UNL     1       2.810   5.683  19.693  0.00  0.00    +0.000 NA
ATOM     19  N   UNL     1       2.652   7.043  19.841  0.00  0.00    +0.000 NA
ATOM     20  C   UNL     1       2.234   7.503  18.679  0.00  0.00    +0.000 A 
ATOM     21  O   UNL     1       2.130   6.517  17.729  0.00  0.00    +0.000 OA
BRANCH  17  22
ATOM     22  C   UNL     1       2.439   4.094  17.772  0.00  0.00    +0.000 C 
BRANCH  22  24
ATOM     23  N   UNL     1       4.562   4.771  16.737  0.00  0.00    +0.000 N 
ATOM     24  C   UNL     1       3.804   3.729  17.238  0.00  0.00    +0.000 C 
ATOM     25  O   UNL     1       4.223   2.572  17.291  0.00  0.00    +0.000 OA
ATOM     26  H   UNL     1       4.226   5.727  16.822  0.00  0.00    +0.000 HD
BRANCH  23  27
ATOM     27  C   UNL     1       5.890   4.559  16.215  0.00  0.00    +0.000 C 
ATOM     28  C   UNL     1       6.289   5.194  14.891  0.00  0.00    +0.000 C 
ATOM     29  C   UNL     1       6.048   3.720  14.959  0.00  0.00    +0.000 C 
BRANCH  27  31
ATOM     30  N   UNL     1       7.760   4.502  18.036  0.00  0.00    +0.000 NA
ATOM     31  C   UNL     1       6.933   4.499  17.224  0.00  0.00    +0.000 C 
ENDBRANCH  27  31
ENDBRANCH  23  27
ENDBRANCH  22  24
ENDBRANCH  17  22
ENDBRANCH   1  20
TORSDOF 7
ENDMDL
MODEL 3
REMARK VINA RESULT:      -7.6      0.866      1.220
REMARK  Name = 
REMARK  7 active torsions:
REMARK  status: ('A' for Active; 'I' for Inactive)
REMARK    1  A    between atoms: C_2  and  C_3
REMARK    2  A    between atoms: C_3  and  N_4
REMARK    3  A    between atoms: C_5  and  C_7
REMARK    4  A    between atoms: C_7  and  C_8
REMARK    5  A    between atoms: C_11  and  C_12
REMARK    6  A    between atoms: C_12  and  C_13
REMARK    7  A    between atoms: C_18  and  C_19
REMARK                            x       y       z     vdW  Elec       q    Type
REMARK                         _______ _______ _______ _____ _____    ______ ____
ROOT
ATOM      1  C   UNL     1       1.863   9.624  18.408  0.00  0.00    +0.000 C 
ENDROOT
BRANCH   1   2
ATOM      2  C   UNL     1       0.438  10.080  18.315  0.00  0.00    +0.000 A 
ATOM      3  N   UNL     1      -0.451   9.543  17.505  0.00  0.00    +0.000 NA
ATOM      4  C   UNL     1      -1.682  10.155  17.674  0.00  0.00    +0.000 A 
ATOM      5  C   UNL     1      -2.871   9.819  17.004  0.00  0.00    +0.000 A 
ATOM      6  C   UNL     1      -4.058  10.496  17.316  0.00  0.00    +0.000 A 
ATOM      7  C   UNL     1      -4.102  11.521  18.277  0.00  0.00    +0.000 A 
ATOM      8  C   UNL     1      -2.898  11.875  18.920  0.00  0.00    +0.000 A 
ATOM      9  C   UNL     1      -1.712  11.186  18.611  0.00  0.00    +0.000 A 
ATOM     10  S   UNL     1      -0.129  11.407  19.251  0.00  0.00    +0.000 S 
BRANCH   7  11
ATOM     11  C   UNL     1      -5.372  12.206  18.615  0.00  0.00    +0.000 A 
ATOM     12  N   UNL     1      -5.512  12.680  19.873  0.00  0.00    +0.000 NA
ATOM     13  C   UNL     1      -6.671  13.307  20.146  0.00  0.00    +0.000 A 
ATOM     14  C   UNL     1      -7.681  13.477  19.231  0.00  0.00    +0.000 A 
ATOM     15  C   UNL     1      -7.439  12.959  17.984  0.00  0.00    +0.000 A 
ATOM     16  N   UNL     1      -6.301  12.325  17.649  0.00  0.00    +0.000 NA
ENDBRANCH   7  11
ENDBRANCH   1   2
BRANCH   1  20
ATOM     17  C   UNL     1       2.397   6.186  19.085  0.00  0.00    +0.000 A 
ATOM     18  N   UNL     1       2.059   6.547  20.306  0.00  0.00    +0.000 NA
ATOM     19  N   UNL     1       1.828   7.904  20.261  0.00  0.00    +0.000 NA
ATOM     20  C   UNL     1       2.017   8.277  19.011  0.00  0.00    +0.000 A 
ATOM     21  O   UNL     1       2.399   7.235  18.203  0.00  0.00    +0.000 OA
BRANCH  17  22
ATOM     22  C   UNL     1       2.686   4.836  18.564  0.00  0.00    +0.000 C 
BRANCH  22  24
ATOM     23  N   UNL     1       4.351   5.409  16.851  0.00  0.00    +0.000 N 
ATOM     24  C   UNL     1       4.108   4.779  18.057  0.00  0.00    +0.000 C 
ATOM     25  O   UNL     1       4.998   4.236  18.711  0.00  0.00    +0.000 OA
ATOM     26  H   UNL     1       3.612   5.948  16.403  0.00  0.00    +0.000 HD
BRANCH  23  27
ATOM     27  C   UNL     1       5.668   5.444  16.266  0.00  0.00    +0.000 C 
ATOM     28  C   UNL     1       5.838   5.191  14.775  0.00  0.00    +0.000 C 
ATOM     29  C   UNL     1       6.268   4.146  15.754  0.00  0.00    +0.000 C 
BRANCH  27  31
ATOM     30  N   UNL     1       7.285   7.243  17.252  0.00  0.00    +0.000 NA
ATOM     31  C   UNL     1       6.558   6.438  16.840  0.00  0.00    +0.000 C 
ENDBRANCH  27  31
ENDBRANCH  23  27
ENDBRANCH  22  24
ENDBRANCH  17  22
ENDBRANCH   1  20
TORSDOF 7
ENDMDL
MODEL 4
REMARK VINA RESULT:      -7.5      2.709      3.123
REMARK  Name = 
REMARK  7 active torsions:
REMARK  status: ('A' for Active; 'I' for Inactive)
REMARK    1  A    between atoms: C_2  and  C_3
REMARK    2  A    between atoms: C_3  and  N_4
REMARK    3  A    between atoms: C_5  and  C_7
REMARK    4  A    between atoms: C_7  and  C_8
REMARK    5  A    between atoms: C_11  and  C_12
REMARK    6  A    between atoms: C_12  and  C_13
REMARK    7  A    between atoms: C_18  and  C_19
REMARK                            x       y       z     vdW  Elec       q    Type
REMARK                         _______ _______ _______ _____ _____    ______ ____
ROOT
ATOM      1  C   UNL     1       1.993   9.010  18.588  0.00  0.00    +0.000 C 
ENDROOT
BRANCH   1   2
ATOM      2  C   UNL     1       0.993   9.679  19.483  0.00  0.00    +0.000 A 
ATOM      3  N   UNL     1       0.934   9.490  20.786  0.00  0.00    +0.000 NA
ATOM      4  C   UNL     1      -0.067  10.271  21.337  0.00  0.00    +0.000 A 
ATOM      5  C   UNL     1      -0.395  10.354  22.700  0.00  0.00    +0.000 A 
ATOM      6  C   UNL     1      -1.406  11.230  23.120  0.00  0.00    +0.000 A 
ATOM      7  C   UNL     1      -2.123  12.029  22.213  0.00  0.00    +0.000 A 
ATOM      8  C   UNL     1      -1.812  11.915  20.842  0.00  0.00    +0.000 A 
ATOM      9  C   UNL     1      -0.790  11.043  20.428  0.00  0.00    +0.000 A 
ATOM     10  S   UNL     1      -0.208  10.728  18.839  0.00  0.00    +0.000 S 
BRANCH   7  11
ATOM     11  C   UNL     1      -3.170  12.972  22.677  0.00  0.00    +0.000 A 
ATOM     12  N   UNL     1      -4.259  12.448  23.280  0.00  0.00    +0.000 NA
ATOM     13  C   UNL     1      -5.186  13.328  23.701  0.00  0.00    +0.000 A 
ATOM     14  C   UNL     1      -5.073  14.689  23.545  0.00  0.00    +0.000 A 
ATOM     15  C   UNL     1      -3.929  15.117  22.920  0.00  0.00    +0.000 A 
ATOM     16  N   UNL     1      -2.966  14.287  22.480  0.00  0.00    +0.000 NA
ENDBRANCH   7  11
ENDBRANCH   1   2
BRANCH   1  20
ATOM     17  C   UNL     1       2.328   5.482  18.483  0.00  0.00    +0.000 A 
ATOM     18  N   UNL     1       2.431   5.622  19.789  0.00  0.00    +0.000 NA
ATOM     19  N   UNL     1       2.350   6.973  20.044  0.00  0.00    +0.000 NA
ATOM     20  C   UNL     1       2.178   7.567  18.879  0.00  0.00    +0.000 A 
ATOM     21  O   UNL     1       2.170   6.679  17.832  0.00  0.00    +0.000 OA
BRANCH  17  22
ATOM     22  C   UNL     1       2.287   4.243  17.684  0.00  0.00    +0.000 C 
BRANCH  22  24
ATOM     23  N   UNL     1       4.475   4.862  16.752  0.00  0.00    +0.000 N 
ATOM     24  C   UNL     1       3.689   3.853  17.277  0.00  0.00    +0.000 C 
ATOM     25  O   UNL     1       4.108   2.708  17.447  0.00  0.00    +0.000 OA
ATOM     26  H   UNL     1       4.129   5.819  16.741  0.00  0.00    +0.000 HD
BRANCH  23  27
ATOM     27  C   UNL     1       5.838   4.626  16.343  0.00  0.00    +0.000 C 
ATOM     28  C   UNL     1       6.344   5.215  15.035  0.00  0.00    +0.000 C 
ATOM     29  C   UNL     1       6.087   3.746  15.131  0.00  0.00    +0.000 C 
BRANCH  27  31
ATOM     30  N   UNL     1       7.592   4.601  18.277  0.00  0.00    +0.000 NA
ATOM     31  C   UNL     1       6.798   4.592  17.432  0.00  0.00    +0.000 C 
ENDBRANCH  27  31
ENDBRANCH  23  27
ENDBRANCH  22  24
ENDBRANCH  17  22
ENDBRANCH   1  20
TORSDOF 7
ENDMDL
MODEL 5
REMARK VINA RESULT:      -7.3      2.669      3.371
REMARK  Name = 
REMARK  7 active torsions:
REMARK  status: ('A' for Active; 'I' for Inactive)
REMARK    1  A    between atoms: C_2  and  C_3
REMARK    2  A    between atoms: C_3  and  N_4
REMARK    3  A    between atoms: C_5  and  C_7
REMARK    4  A    between atoms: C_7  and  C_8
REMARK    5  A    between atoms: C_11  and  C_12
REMARK    6  A    between atoms: C_12  and  C_13
REMARK    7  A    between atoms: C_18  and  C_19
REMARK                            x       y       z     vdW  Elec       q    Type
REMARK                         _______ _______ _______ _____ _____    ______ ____
ROOT
ATOM      1  C   UNL     1       1.712   9.474  18.358  0.00  0.00    +0.000 C 
ENDROOT
BRANCH   1   2
ATOM      2  C   UNL     1       0.727  10.082  19.311  0.00  0.00    +0.000 A 
ATOM      3  N   UNL     1       0.758   9.894  20.615  0.00  0.00    +0.000 NA
ATOM      4  C   UNL     1      -0.257  10.613  21.224  0.00  0.00    +0.000 A 
ATOM      5  C   UNL     1      -0.508  10.680  22.605  0.00  0.00    +0.000 A 
ATOM      6  C   UNL     1      -1.545  11.493  23.084  0.00  0.00    +0.000 A 
ATOM      7  C   UNL     1      -2.364  12.242  22.221  0.00  0.00    +0.000 A 
ATOM      8  C   UNL     1      -2.128  12.142  20.834  0.00  0.00    +0.000 A 
ATOM      9  C   UNL     1      -1.079  11.335  20.361  0.00  0.00    +0.000 A 
ATOM     10  S   UNL     1      -0.574  11.051  18.740  0.00  0.00    +0.000 S 
BRANCH   7  11
ATOM     11  C   UNL     1      -3.438  13.118  22.747  0.00  0.00    +0.000 A 
ATOM     12  N   UNL     1      -3.143  14.422  22.939  0.00  0.00    +0.000 NA
ATOM     13  C   UNL     1      -4.141  15.195  23.406  0.00  0.00    +0.000 A 
ATOM     14  C   UNL     1      -5.402  14.726  23.686  0.00  0.00    +0.000 A 
ATOM     15  C   UNL     1      -5.597  13.387  23.456  0.00  0.00    +0.000 A 
ATOM     16  N   UNL     1      -4.641  12.565  22.988  0.00  0.00    +0.000 NA
ENDBRANCH   7  11
ENDBRANCH   1   2
BRANCH   1  20
ATOM     17  C   UNL     1       2.663   6.059  18.413  0.00  0.00    +0.000 A 
ATOM     18  N   UNL     1       2.589   6.234  19.717  0.00  0.00    +0.000 NA
ATOM     19  N   UNL     1       2.247   7.553  19.914  0.00  0.00    +0.000 NA
ATOM     20  C   UNL     1       2.109   8.090  18.718  0.00  0.00    +0.000 A 
ATOM     21  O   UNL     1       2.376   7.199  17.708  0.00  0.00    +0.000 OA
BRANCH  17  22
ATOM     22  C   UNL     1       2.930   4.821  17.658  0.00  0.00    +0.000 C 
BRANCH  22  24
ATOM     23  N   UNL     1       5.143   5.873  17.477  0.00  0.00    +0.000 N 
ATOM     24  C   UNL     1       4.409   4.705  17.375  0.00  0.00    +0.000 C 
ATOM     25  O   UNL     1       4.927   3.620  17.110  0.00  0.00    +0.000 OA
ATOM     26  H   UNL     1       4.696   6.723  17.815  0.00  0.00    +0.000 HD
BRANCH  23  27
ATOM     27  C   UNL     1       6.567   5.895  17.250  0.00  0.00    +0.000 C 
ATOM     28  C   UNL     1       7.516   5.528  18.382  0.00  0.00    +0.000 C 
ATOM     29  C   UNL     1       7.395   6.956  17.955  0.00  0.00    +0.000 C 
BRANCH  27  31
ATOM     30  N   UNL     1       7.345   5.148  14.872  0.00  0.00    +0.000 NA
ATOM     31  C   UNL     1       6.974   5.468  15.924  0.00  0.00    +0.000 C 
ENDBRANCH  27  31
ENDBRANCH  23  27
ENDBRANCH  22  24
ENDBRANCH  17  22
ENDBRANCH   1  20
TORSDOF 7
ENDMDL
MODEL 6
REMARK VINA RESULT:      -7.3      1.737      2.087
REMARK  Name = 
REMARK  7 active torsions:
REMARK  status: ('A' for Active; 'I' for Inactive)
REMARK    1  A    between atoms: C_2  and  C_3
REMARK    2  A    between atoms: C_3  and  N_4
REMARK    3  A    between atoms: C_5  and  C_7
REMARK    4  A    between atoms: C_7  and  C_8
REMARK    5  A    between atoms: C_11  and  C_12
REMARK    6  A    between atoms: C_12  and  C_13
REMARK    7  A    between atoms: C_18  and  C_19
REMARK                            x       y       z     vdW  Elec       q    Type
REMARK                         _______ _______ _______ _____ _____    ______ ____
ROOT
ATOM      1  C   UNL     1       1.960   9.116  17.785  0.00  0.00    +0.000 C 
ENDROOT
BRANCH   1   2
ATOM      2  C   UNL     1       0.818   9.923  18.327  0.00  0.00    +0.000 A 
ATOM      3  N   UNL     1      -0.343  10.049  17.718  0.00  0.00    +0.000 NA
ATOM      4  C   UNL     1      -1.200  10.824  18.481  0.00  0.00    +0.000 A 
ATOM      5  C   UNL     1      -2.532  11.140  18.163  0.00  0.00    +0.000 A 
ATOM      6  C   UNL     1      -3.299  11.897  19.060  0.00  0.00    +0.000 A 
ATOM      7  C   UNL     1      -2.774  12.369  20.276  0.00  0.00    +0.000 A 
ATOM      8  C   UNL     1      -1.427  12.077  20.571  0.00  0.00    +0.000 A 
ATOM      9  C   UNL     1      -0.666  11.308  19.673  0.00  0.00    +0.000 A 
ATOM     10  S   UNL     1       0.975  10.802  19.797  0.00  0.00    +0.000 S 
BRANCH   7  11
ATOM     11  C   UNL     1      -3.608  13.143  21.226  0.00  0.00    +0.000 A 
ATOM     12  N   UNL     1      -4.361  12.448  22.107  0.00  0.00    +0.000 NA
ATOM     13  C   UNL     1      -5.098  13.179  22.964  0.00  0.00    +0.000 A 
ATOM     14  C   UNL     1      -5.117  14.553  22.976  0.00  0.00    +0.000 A 
ATOM     15  C   UNL     1      -4.317  15.161  22.040  0.00  0.00    +0.000 A 
ATOM     16  N   UNL     1      -3.556  14.486  21.160  0.00  0.00    +0.000 NA
ENDBRANCH   7  11
ENDBRANCH   1   2
BRANCH   1  20
ATOM     17  C   UNL     1       2.356   5.728  18.748  0.00  0.00    +0.000 A 
ATOM     18  N   UNL     1       2.455   6.256  19.950  0.00  0.00    +0.000 NA
ATOM     19  N   UNL     1       2.350   7.619  19.786  0.00  0.00    +0.000 NA
ATOM     20  C   UNL     1       2.169   7.831  18.498  0.00  0.00    +0.000 A 
ATOM     21  O   UNL     1       2.178   6.669  17.767  0.00  0.00    +0.000 OA
BRANCH  17  22
ATOM     22  C   UNL     1       2.337   4.305  18.359  0.00  0.00    +0.000 C 
BRANCH  22  24
ATOM     23  N   UNL     1       4.385   5.001  17.193  0.00  0.00    +0.000 N 
ATOM     24  C   UNL     1       3.639   3.944  17.682  0.00  0.00    +0.000 C 
ATOM     25  O   UNL     1       4.022   2.776  17.613  0.00  0.00    +0.000 OA
ATOM     26  H   UNL     1       4.089   5.957  17.377  0.00  0.00    +0.000 HD
BRANCH  23  27
ATOM     27  C   UNL     1       5.655   4.794  16.542  0.00  0.00    +0.000 C 
ATOM     28  C   UNL     1       5.959   5.515  15.237  0.00  0.00    +0.000 C 
ATOM     29  C   UNL     1       5.677   4.047  15.220  0.00  0.00    +0.000 C 
BRANCH  27  31
ATOM     30  N   UNL     1       7.700   4.540  18.145  0.00  0.00    +0.000 NA
ATOM     31  C   UNL     1       6.778   4.633  17.448  0.00  0.00    +0.000 C 
ENDBRANCH  27  31
ENDBRANCH  23  27
ENDBRANCH  22  24
ENDBRANCH  17  22
ENDBRANCH   1  20
TORSDOF 7
ENDMDL
MODEL 7
REMARK VINA RESULT:      -7.3      3.641      4.389
REMARK  Name = 
REMARK  7 active torsions:
REMARK  status: ('A' for Active; 'I' for Inactive)
REMARK    1  A    between atoms: C_2  and  C_3
REMARK    2  A    between atoms: C_3  and  N_4
REMARK    3  A    between atoms: C_5  and  C_7
REMARK    4  A    between atoms: C_7  and  C_8
REMARK    5  A    between atoms: C_11  and  C_12
REMARK    6  A    between atoms: C_12  and  C_13
REMARK    7  A    between atoms: C_18  and  C_19
REMARK                            x       y       z     vdW  Elec       q    Type
REMARK                         _______ _______ _______ _____ _____    ______ ____
ROOT
ATOM      1  C   UNL     1       1.447   9.693  18.292  0.00  0.00    +0.000 C 
ENDROOT
BRANCH   1   2
ATOM      2  C   UNL     1       0.801  10.500  19.379  0.00  0.00    +0.000 A 
ATOM      3  N   UNL     1       0.027   9.985  20.312  0.00  0.00    +0.000 NA
ATOM      4  C   UNL     1      -0.387  10.974  21.188  0.00  0.00    +0.000 A 
ATOM      5  C   UNL     1      -1.192  10.788  22.324  0.00  0.00    +0.000 A 
ATOM      6  C   UNL     1      -1.491  11.881  23.150  0.00  0.00    +0.000 A 
ATOM      7  C   UNL     1      -1.020  13.176  22.873  0.00  0.00    +0.000 A 
ATOM      8  C   UNL     1      -0.241  13.361  21.712  0.00  0.00    +0.000 A 
ATOM      9  C   UNL     1       0.065  12.259  20.893  0.00  0.00    +0.000 A 
ATOM     10  S   UNL     1       0.995  12.208  19.446  0.00  0.00    +0.000 S 
BRANCH   7  11
ATOM     11  C   UNL     1      -1.322  14.315  23.773  0.00  0.00    +0.000 A 
ATOM     12  N   UNL     1      -0.390  15.287  23.886  0.00  0.00    +0.000 NA
ATOM     13  C   UNL     1      -0.697  16.313  24.701  0.00  0.00    +0.000 A 
ATOM     14  C   UNL     1      -1.877  16.406  25.399  0.00  0.00    +0.000 A 
ATOM     15  C   UNL     1      -2.754  15.367  25.214  0.00  0.00    +0.000 A 
ATOM     16  N   UNL     1      -2.506  14.316  24.411  0.00  0.00    +0.000 NA
ENDBRANCH   7  11
ENDBRANCH   1   2
BRANCH   1  20
ATOM     17  C   UNL     1       2.559   6.337  18.553  0.00  0.00    +0.000 A 
ATOM     18  N   UNL     1       2.389   6.558  19.840  0.00  0.00    +0.000 NA
ATOM     19  N   UNL     1       1.969   7.864  19.959  0.00  0.00    +0.000 NA
ATOM     20  C   UNL     1       1.886   8.346  18.735  0.00  0.00    +0.000 A 
ATOM     21  O   UNL     1       2.264   7.432  17.783  0.00  0.00    +0.000 OA
BRANCH  17  22
ATOM     22  C   UNL     1       2.937   5.086  17.869  0.00  0.00    +0.000 C 
BRANCH  22  24
ATOM     23  N   UNL     1       5.149   6.142  18.027  0.00  0.00    +0.000 N 
ATOM     24  C   UNL     1       4.442   4.976  17.803  0.00  0.00    +0.000 C 
ATOM     25  O   UNL     1       4.996   3.894  17.603  0.00  0.00    +0.000 OA
ATOM     26  H   UNL     1       4.656   6.987  18.307  0.00  0.00    +0.000 HD
BRANCH  23  27
ATOM     27  C   UNL     1       6.591   6.169  18.011  0.00  0.00    +0.000 C 
ATOM     28  C   UNL     1       7.316   7.306  17.306  0.00  0.00    +0.000 C 
ATOM     29  C   UNL     1       7.304   5.944  16.689  0.00  0.00    +0.000 C 
BRANCH  27  31
ATOM     30  N   UNL     1       7.674   5.273  20.212  0.00  0.00    +0.000 NA
ATOM     31  C   UNL     1       7.218   5.682  19.227  0.00  0.00    +0.000 C 
ENDBRANCH  27  31
ENDBRANCH  23  27
ENDBRANCH  22  24
ENDBRANCH  17  22
ENDBRANCH   1  20
TORSDOF 7
ENDMDL
MODEL 8
REMARK VINA RESULT:      -7.3      1.499      1.845
REMARK  Name = 
REMARK  7 active torsions:
REMARK  status: ('A' for Active; 'I' for Inactive)
REMARK    1  A    between atoms: C_2  and  C_3
REMARK    2  A    between atoms: C_3  and  N_4
REMARK    3  A    between atoms: C_5  and  C_7
REMARK    4  A    between atoms: C_7  and  C_8
REMARK    5  A    between atoms: C_11  and  C_12
REMARK    6  A    between atoms: C_12  and  C_13
REMARK    7  A    between atoms: C_18  and  C_19
REMARK                            x       y       z     vdW  Elec       q    Type
REMARK                         _______ _______ _______ _____ _____    ______ ____
ROOT
ATOM      1  C   UNL     1       2.241   8.828  18.064  0.00  0.00    +0.000 C 
ENDROOT
BRANCH   1   2
ATOM      2  C   UNL     1       1.007   9.622  18.373  0.00  0.00    +0.000 A 
ATOM      3  N   UNL     1      -0.079   9.607  17.628  0.00  0.00    +0.000 NA
ATOM      4  C   UNL     1      -1.055  10.412  18.191  0.00  0.00    +0.000 A 
ATOM      5  C   UNL     1      -2.353  10.610  17.691  0.00  0.00    +0.000 A 
ATOM      6  C   UNL     1      -3.254  11.418  18.398  0.00  0.00    +0.000 A 
ATOM      7  C   UNL     1      -2.898  12.059  19.597  0.00  0.00    +0.000 A 
ATOM      8  C   UNL     1      -1.582  11.884  20.074  0.00  0.00    +0.000 A 
ATOM      9  C   UNL     1      -0.687  11.063  19.367  0.00  0.00    +0.000 A 
ATOM     10  S   UNL     1       0.950  10.674  19.733  0.00  0.00    +0.000 S 
BRANCH   7  11
ATOM     11  C   UNL     1      -3.872  12.888  20.347  0.00  0.00    +0.000 A 
ATOM     12  N   UNL     1      -3.447  14.081  20.818  0.00  0.00    +0.000 NA
ATOM     13  C   UNL     1      -4.357  14.815  21.484  0.00  0.00    +0.000 A 
ATOM     14  C   UNL     1      -5.653  14.414  21.698  0.00  0.00    +0.000 A 
ATOM     15  C   UNL     1      -5.983  13.187  21.178  0.00  0.00    +0.000 A 
ATOM     16  N   UNL     1      -5.120  12.408  20.501  0.00  0.00    +0.000 NA
ENDBRANCH   7  11
ENDBRANCH   1   2
BRANCH   1  20
ATOM     17  C   UNL     1       2.912   5.578  19.310  0.00  0.00    +0.000 A 
ATOM     18  N   UNL     1       2.218   6.012  20.341  0.00  0.00    +0.000 NA
ATOM     19  N   UNL     1       1.873   7.315  20.057  0.00  0.00    +0.000 NA
ATOM     20  C   UNL     1       2.358   7.581  18.861  0.00  0.00    +0.000 A 
ATOM     21  O   UNL     1       3.051   6.523  18.327  0.00  0.00    +0.000 OA
BRANCH  17  22
ATOM     22  C   UNL     1       3.468   4.233  19.067  0.00  0.00    +0.000 C 
BRANCH  22  24
ATOM     23  N   UNL     1       4.591   4.671  16.927  0.00  0.00    +0.000 N 
ATOM     24  C   UNL     1       4.741   4.345  18.261  0.00  0.00    +0.000 C 
ATOM     25  O   UNL     1       5.844   4.193  18.786  0.00  0.00    +0.000 OA
ATOM     26  H   UNL     1       3.669   4.906  16.563  0.00  0.00    +0.000 HD
BRANCH  23  27
ATOM     27  C   UNL     1       5.727   4.828  16.053  0.00  0.00    +0.000 C 
ATOM     28  C   UNL     1       5.563   4.608  14.556  0.00  0.00    +0.000 C 
ATOM     29  C   UNL     1       6.294   3.592  15.375  0.00  0.00    +0.000 C 
BRANCH  27  31
ATOM     30  N   UNL     1       7.397   6.729  16.697  0.00  0.00    +0.000 NA
ATOM     31  C   UNL     1       6.642   5.889  16.436  0.00  0.00    +0.000 C 
ENDBRANCH  27  31
ENDBRANCH  23  27
ENDBRANCH  22  24
ENDBRANCH  17  22
ENDBRANCH   1  20
TORSDOF 7
ENDMDL
MODEL 9
REMARK VINA RESULT:      -7.3      3.489      4.156
REMARK  Name = 
REMARK  7 active torsions:
REMARK  status: ('A' for Active; 'I' for Inactive)
REMARK    1  A    between atoms: C_2  and  C_3
REMARK    2  A    between atoms: C_3  and  N_4
REMARK    3  A    between atoms: C_5  and  C_7
REMARK    4  A    between atoms: C_7  and  C_8
REMARK    5  A    between atoms: C_11  and  C_12
REMARK    6  A    between atoms: C_12  and  C_13
REMARK    7  A    between atoms: C_18  and  C_19
REMARK                            x       y       z     vdW  Elec       q    Type
REMARK                         _______ _______ _______ _____ _____    ______ ____
ROOT
ATOM      1  C   UNL     1       2.155   8.857  18.096  0.00  0.00    +0.000 C 
ENDROOT
BRANCH   1   2
ATOM      2  C   UNL     1       1.343   9.516  19.171  0.00  0.00    +0.000 A 
ATOM      3  N   UNL     1       0.955   8.908  20.273  0.00  0.00    +0.000 NA
ATOM      4  C   UNL     1       0.254   9.787  21.081  0.00  0.00    +0.000 A 
ATOM      5  C   UNL     1      -0.281   9.498  22.348  0.00  0.00    +0.000 A 
ATOM      6  C   UNL     1      -0.926  10.507  23.076  0.00  0.00    +0.000 A 
ATOM      7  C   UNL     1      -1.073  11.811  22.574  0.00  0.00    +0.000 A 
ATOM      8  C   UNL     1      -0.564  12.085  21.287  0.00  0.00    +0.000 A 
ATOM      9  C   UNL     1       0.092  11.072  20.566  0.00  0.00    +0.000 A 
ATOM     10  S   UNL     1       0.808  11.142  19.002  0.00  0.00    +0.000 S 
BRANCH   7  11
ATOM     11  C   UNL     1      -1.733  12.873  23.370  0.00  0.00    +0.000 A 
ATOM     12  N   UNL     1      -0.969  13.907  23.788  0.00  0.00    +0.000 NA
ATOM     13  C   UNL     1      -1.599  14.861  24.499  0.00  0.00    +0.000 A 
ATOM     14  C   UNL     1      -2.938  14.826  24.806  0.00  0.00    +0.000 A 
ATOM     15  C   UNL     1      -3.622  13.734  24.334  0.00  0.00    +0.000 A 
ATOM     16  N   UNL     1      -3.050  12.750  23.616  0.00  0.00    +0.000 NA
ENDBRANCH   7  11
ENDBRANCH   1   2
BRANCH   1  20
ATOM     17  C   UNL     1       2.887   5.504  18.984  0.00  0.00    +0.000 A 
ATOM     18  N   UNL     1       2.035   5.239  18.015  0.00  0.00    +0.000 NA
ATOM     19  N   UNL     1       1.597   6.454  17.539  0.00  0.00    +0.000 NA
ATOM     20  C   UNL     1       2.229   7.381  18.231  0.00  0.00    +0.000 A 
ATOM     21  O   UNL     1       3.060   6.849  19.186  0.00  0.00    +0.000 OA
BRANCH  17  22
ATOM     22  C   UNL     1       3.696   4.569  19.788  0.00  0.00    +0.000 C 
BRANCH  22  24
ATOM     23  N   UNL     1       5.652   5.656  18.774  0.00  0.00    +0.000 N 
ATOM     24  C   UNL     1       5.088   4.471  19.209  0.00  0.00    +0.000 C 
ATOM     25  O   UNL     1       5.691   3.398  19.171  0.00  0.00    +0.000 OA
ATOM     26  H   UNL     1       5.167   6.536  18.934  0.00  0.00    +0.000 HD
BRANCH  23  27
ATOM     27  C   UNL     1       6.982   5.703  18.219  0.00  0.00    +0.000 C 
ATOM     28  C   UNL     1       8.187   5.714  19.148  0.00  0.00    +0.000 C 
ATOM     29  C   UNL     1       7.806   6.963  18.419  0.00  0.00    +0.000 C 
BRANCH  27  31
ATOM     30  N   UNL     1       7.231   4.375  15.984  0.00  0.00    +0.000 NA
ATOM     31  C   UNL     1       7.147   4.958  16.983  0.00  0.00    +0.000 C 
ENDBRANCH  27  31
ENDBRANCH  23  27
ENDBRANCH  22  24
ENDBRANCH  17  22
ENDBRANCH   1  20
TORSDOF 7
ENDMDL
