MODEL 1
REMARK VINA RESULT:      -7.6      0.000      0.000
REMARK  Name = 
REMARK  9 active torsions:
REMARK  status: ('A' for Active; 'I' for Inactive)
REMARK    1  A    between atoms: C_1  and  C_2
REMARK    2  A    between atoms: C_2  and  N_3
REMARK    3  A    between atoms: N_3  and  C_4
REMARK    4  A    between atoms: N_3  and  S_6
REMARK    5  A    between atoms: C_4  and  C_5
REMARK    6  A    between atoms: S_6  and  C_9
REMARK    7  A    between atoms: C_11  and  C_12
REMARK    8  A    between atoms: N_14  and  C_15
REMARK    9  A    between atoms: C_26  and  C_27
REMARK                            x       y       z     vdW  Elec       q    Type
REMARK                         _______ _______ _______ _____ _____    ______ ____
ROOT
ATOM      1  C   UNL     1       1.185   9.473  19.852  0.00  0.00    +0.000 A 
ATOM      2  C   UNL     1       1.850   8.503  19.075  0.00  0.00    +0.000 A 
ATOM      3  C   UNL     1       2.065   7.208  19.570  0.00  0.00    +0.000 A 
ATOM      4  C   UNL     1       1.537   6.872  20.817  0.00  0.00    +0.000 A 
ATOM      5  C   UNL     1       0.945   7.850  21.620  0.00  0.00    +0.000 A 
ATOM      6  C   UNL     1       0.779   9.169  21.166  0.00  0.00    +0.000 A 
ATOM      7  C   UNL     1       0.176  10.164  22.118  0.00  0.00    +0.000 C 
ENDROOT
BRANCH   3   8
ATOM      8  C   UNL     1       2.804   6.213  18.720  0.00  0.00    +0.000 A 
ATOM      9  N   UNL     1       3.833   6.683  18.076  0.00  0.00    +0.000 NA
ATOM     10  N   UNL     1       4.566   5.866  17.261  0.00  0.00    +0.000 N 
ATOM     11  C   UNL     1       5.721   6.457  16.616  0.00  0.00    +0.000 C 
ATOM     12  C   UNL     1       4.272   4.535  17.012  0.00  0.00    +0.000 A 
ATOM     13  O   UNL     1       4.914   3.822  16.242  0.00  0.00    +0.000 OA
ATOM     14  C   UNL     1       3.131   3.970  17.751  0.00  0.00    +0.000 A 
ATOM     15  C   UNL     1       2.823   2.607  17.593  0.00  0.00    +0.000 A 
ATOM     16  C   UNL     1       1.776   2.040  18.312  0.00  0.00    +0.000 A 
ATOM     17  C   UNL     1       1.058   2.824  19.207  0.00  0.00    +0.000 A 
ATOM     18  C   UNL     1       1.385   4.174  19.383  0.00  0.00    +0.000 A 
ATOM     19  C   UNL     1       2.404   4.775  18.626  0.00  0.00    +0.000 A 
ENDBRANCH   3   8
BRANCH   1  20
ATOM     20  S   UNL     1       0.945  11.080  19.093  0.00  0.00    +0.000 S 
ATOM     21  O   UNL     1       1.609  11.032  17.807  0.00  0.00    +0.000 OA
ATOM     22  O   UNL     1       1.255  12.124  20.046  0.00  0.00    +0.000 OA
BRANCH  20  23
ATOM     23  N   UNL     1      -0.757  11.158  18.819  0.00  0.00    +0.000 NA
BRANCH  23  25
ATOM     24  C   UNL     1      -2.186  12.846  20.018  0.00  0.00    +0.000 C 
ATOM     25  C   UNL     1      -1.319  12.543  18.804  0.00  0.00    +0.000 C 
ENDBRANCH  23  25
BRANCH  23  26
ATOM     26  C   UNL     1      -1.227  10.268  17.711  0.00  0.00    +0.000 C 
ATOM     27  C   UNL     1      -2.690   9.865  17.822  0.00  0.00    +0.000 C 
ENDBRANCH  23  26
ENDBRANCH  20  23
ENDBRANCH   1  20
TORSDOF 5
ENDMDL
MODEL 2
REMARK VINA RESULT:      -7.6      0.600      1.347
REMARK  Name = 
REMARK  9 active torsions:
REMARK  status: ('A' for Active; 'I' for Inactive)
REMARK    1  A    between atoms: C_1  and  C_2
REMARK    2  A    between atoms: C_2  and  N_3
REMARK    3  A    between atoms: N_3  and  C_4
REMARK    4  A    between atoms: N_3  and  S_6
REMARK    5  A    between atoms: C_4  and  C_5
REMARK    6  A    between atoms: S_6  and  C_9
REMARK    7  A    between atoms: C_11  and  C_12
REMARK    8  A    between atoms: N_14  and  C_15
REMARK    9  A    between atoms: C_26  and  C_27
REMARK                            x       y       z     vdW  Elec       q    Type
REMARK                         _______ _______ _______ _____ _____    ______ ____
ROOT
ATOM      1  C   UNL     1       1.152   9.912  19.882  0.00  0.00    +0.000 A 
ATOM      2  C   UNL     1       1.769   8.869  19.162  0.00  0.00    +0.000 A 
ATOM      3  C   UNL     1       1.852   7.575  19.698  0.00  0.00    +0.000 A 
ATOM      4  C   UNL     1       1.241   7.319  20.926  0.00  0.00    +0.000 A 
ATOM      5  C   UNL     1       0.696   8.365  21.675  0.00  0.00    +0.000 A 
ATOM      6  C   UNL     1       0.662   9.680  21.181  0.00  0.00    +0.000 A 
ATOM      7  C   UNL     1       0.101  10.747  22.078  0.00  0.00    +0.000 C 
ENDROOT
BRANCH   3   8
ATOM      8  C   UNL     1       2.544   6.498  18.909  0.00  0.00    +0.000 A 
ATOM      9  N   UNL     1       3.486   6.909  18.110  0.00  0.00    +0.000 NA
ATOM     10  N   UNL     1       4.168   6.014  17.335  0.00  0.00    +0.000 N 
ATOM     11  C   UNL     1       5.232   6.548  16.507  0.00  0.00    +0.000 C 
ATOM     12  C   UNL     1       3.904   4.654  17.286  0.00  0.00    +0.000 A 
ATOM     13  O   UNL     1       4.496   3.866  16.550  0.00  0.00    +0.000 OA
ATOM     14  C   UNL     1       2.864   4.159  18.201  0.00  0.00    +0.000 A 
ATOM     15  C   UNL     1       2.595   2.780  18.248  0.00  0.00    +0.000 A 
ATOM     16  C   UNL     1       1.645   2.282  19.134  0.00  0.00    +0.000 A 
ATOM     17  C   UNL     1       0.987   3.155  19.991  0.00  0.00    +0.000 A 
ATOM     18  C   UNL     1       1.276   4.525  19.962  0.00  0.00    +0.000 A 
ATOM     19  C   UNL     1       2.193   5.051  19.038  0.00  0.00    +0.000 A 
ENDBRANCH   3   8
BRANCH   1  20
ATOM     20  S   UNL     1       1.082  11.511  19.072  0.00  0.00    +0.000 S 
ATOM     21  O   UNL     1       1.841  11.386  17.845  0.00  0.00    +0.000 OA
ATOM     22  O   UNL     1       1.385  12.556  20.025  0.00  0.00    +0.000 OA
BRANCH  20  23
ATOM     23  N   UNL     1      -0.584  11.693  18.661  0.00  0.00    +0.000 NA
BRANCH  23  25
ATOM     24  C   UNL     1      -1.654   9.937  17.212  0.00  0.00    +0.000 C 
ATOM     25  C   UNL     1      -1.357  10.416  18.627  0.00  0.00    +0.000 C 
ENDBRANCH  23  25
BRANCH  23  26
ATOM     26  C   UNL     1      -1.256  12.826  19.374  0.00  0.00    +0.000 C 
ATOM     27  C   UNL     1      -2.601  12.459  19.983  0.00  0.00    +0.000 C 
ENDBRANCH  23  26
ENDBRANCH  20  23
ENDBRANCH   1  20
TORSDOF 5
ENDMDL
MODEL 3
REMARK VINA RESULT:      -7.4      2.135      2.885
REMARK  Name = 
REMARK  9 active torsions:
REMARK  status: ('A' for Active; 'I' for Inactive)
REMARK    1  A    between atoms: C_1  and  C_2
REMARK    2  A    between atoms: C_2  and  N_3
REMARK    3  A    between atoms: N_3  and  C_4
REMARK    4  A    between atoms: N_3  and  S_6
REMARK    5  A    between atoms: C_4  and  C_5
REMARK    6  A    between atoms: S_6  and  C_9
REMARK    7  A    between atoms: C_11  and  C_12
REMARK    8  A    between atoms: N_14  and  C_15
REMARK    9  A    between atoms: C_26  and  C_27
REMARK                            x       y       z     vdW  Elec       q    Type
REMARK                         _______ _______ _______ _____ _____    ______ ____
ROOT
ATOM      1  C   UNL     1       0.907   9.390  20.094  0.00  0.00    +0.000 A 
ATOM      2  C   UNL     1       1.772   8.279  20.151  0.00  0.00    +0.000 A 
ATOM      3  C   UNL     1       2.205   7.642  18.978  0.00  0.00    +0.000 A 
ATOM      4  C   UNL     1       1.827   8.179  17.747  0.00  0.00    +0.000 A 
ATOM      5  C   UNL     1       0.910   9.233  17.687  0.00  0.00    +0.000 A 
ATOM      6  C   UNL     1       0.416   9.840  18.854  0.00  0.00    +0.000 A 
ATOM      7  C   UNL     1      -0.604  10.933  18.692  0.00  0.00    +0.000 C 
ENDROOT
BRANCH   3   8
ATOM      8  C   UNL     1       3.105   6.443  19.085  0.00  0.00    +0.000 A 
ATOM      9  N   UNL     1       4.310   6.605  18.621  0.00  0.00    +0.000 NA
ATOM     10  N   UNL     1       5.204   5.573  18.655  0.00  0.00    +0.000 N 
ATOM     11  C   UNL     1       6.538   5.850  18.160  0.00  0.00    +0.000 C 
ATOM     12  C   UNL     1       4.917   4.298  19.117  0.00  0.00    +0.000 A 
ATOM     13  O   UNL     1       5.718   3.365  19.101  0.00  0.00    +0.000 OA
ATOM     14  C   UNL     1       3.571   4.095  19.676  0.00  0.00    +0.000 A 
ATOM     15  C   UNL     1       3.240   2.843  20.222  0.00  0.00    +0.000 A 
ATOM     16  C   UNL     1       1.987   2.638  20.792  0.00  0.00    +0.000 A 
ATOM     17  C   UNL     1       1.080   3.690  20.843  0.00  0.00    +0.000 A 
ATOM     18  C   UNL     1       1.422   4.945  20.323  0.00  0.00    +0.000 A 
ATOM     19  C   UNL     1       2.662   5.152  19.697  0.00  0.00    +0.000 A 
ENDBRANCH   3   8
BRANCH   1  20
ATOM     20  S   UNL     1       0.454  10.133  21.663  0.00  0.00    +0.000 S 
ATOM     21  O   UNL     1       1.544   9.864  22.577  0.00  0.00    +0.000 OA
ATOM     22  O   UNL     1      -0.904   9.766  22.004  0.00  0.00    +0.000 OA
BRANCH  20  23
ATOM     23  N   UNL     1       0.433  11.825  21.328  0.00  0.00    +0.000 NA
BRANCH  23  25
ATOM     24  C   UNL     1      -1.654  13.225  21.446  0.00  0.00    +0.000 C 
ATOM     25  C   UNL     1      -0.481  12.619  22.204  0.00  0.00    +0.000 C 
ENDBRANCH  23  25
BRANCH  23  26
ATOM     26  C   UNL     1       1.796  12.414  21.131  0.00  0.00    +0.000 C 
ATOM     27  C   UNL     1       1.946  13.201  19.838  0.00  0.00    +0.000 C 
ENDBRANCH  23  26
ENDBRANCH  20  23
ENDBRANCH   1  20
TORSDOF 5
ENDMDL
MODEL 4
REMARK VINA RESULT:      -7.3      1.637      2.218
REMARK  Name = 
REMARK  9 active torsions:
REMARK  status: ('A' for Active; 'I' for Inactive)
REMARK    1  A    between atoms: C_1  and  C_2
REMARK    2  A    between atoms: C_2  and  N_3
REMARK    3  A    between atoms: N_3  and  C_4
REMARK    4  A    between atoms: N_3  and  S_6
REMARK    5  A    between atoms: C_4  and  C_5
REMARK    6  A    between atoms: S_6  and  C_9
REMARK    7  A    between atoms: C_11  and  C_12
REMARK    8  A    between atoms: N_14  and  C_15
REMARK    9  A    between atoms: C_26  and  C_27
REMARK                            x       y       z     vdW  Elec       q    Type
REMARK                         _______ _______ _______ _____ _____    ______ ____
ROOT
ATOM      1  C   UNL     1       0.368   9.843  19.974  0.00  0.00    +0.000 A 
ATOM      2  C   UNL     1       1.007   8.787  19.294  0.00  0.00    +0.000 A 
ATOM      3  C   UNL     1       1.719   7.804  19.997  0.00  0.00    +0.000 A 
ATOM      4  C   UNL     1       1.717   7.845  21.392  0.00  0.00    +0.000 A 
ATOM      5  C   UNL     1       1.149   8.930  22.066  0.00  0.00    +0.000 A 
ATOM      6  C   UNL     1       0.488   9.958  21.373  0.00  0.00    +0.000 A 
ATOM      7  C   UNL     1      -0.048  11.108  22.177  0.00  0.00    +0.000 C 
ENDROOT
BRANCH   3   8
ATOM      8  C   UNL     1       2.410   6.711  19.230  0.00  0.00    +0.000 A 
ATOM      9  N   UNL     1       3.279   7.111  18.347  0.00  0.00    +0.000 NA
ATOM     10  N   UNL     1       3.952   6.199  17.584  0.00  0.00    +0.000 N 
ATOM     11  C   UNL     1       4.934   6.726  16.656  0.00  0.00    +0.000 C 
ATOM     12  C   UNL     1       3.751   4.829  17.635  0.00  0.00    +0.000 A 
ATOM     13  O   UNL     1       4.332   4.022  16.910  0.00  0.00    +0.000 OA
ATOM     14  C   UNL     1       2.796   4.348  18.646  0.00  0.00    +0.000 A 
ATOM     15  C   UNL     1       2.598   2.964  18.793  0.00  0.00    +0.000 A 
ATOM     16  C   UNL     1       1.731   2.482  19.769  0.00  0.00    +0.000 A 
ATOM     17  C   UNL     1       1.088   3.378  20.614  0.00  0.00    +0.000 A 
ATOM     18  C   UNL     1       1.308   4.755  20.483  0.00  0.00    +0.000 A 
ATOM     19  C   UNL     1       2.138   5.260  19.469  0.00  0.00    +0.000 A 
ENDBRANCH   3   8
BRANCH   1  20
ATOM     20  S   UNL     1      -0.536  11.017  18.962  0.00  0.00    +0.000 S 
ATOM     21  O   UNL     1      -1.756  11.325  19.678  0.00  0.00    +0.000 OA
ATOM     22  O   UNL     1      -0.580  10.551  17.593  0.00  0.00    +0.000 OA
BRANCH  20  23
ATOM     23  N   UNL     1       0.464  12.423  18.967  0.00  0.00    +0.000 NA
BRANCH  23  25
ATOM     24  C   UNL     1       2.722  13.446  18.538  0.00  0.00    +0.000 C 
ATOM     25  C   UNL     1       1.854  12.197  18.468  0.00  0.00    +0.000 C 
ENDBRANCH  23  25
BRANCH  23  26
ATOM     26  C   UNL     1      -0.215  13.643  18.428  0.00  0.00    +0.000 C 
ATOM     27  C   UNL     1      -0.591  14.662  19.493  0.00  0.00    +0.000 C 
ENDBRANCH  23  26
ENDBRANCH  20  23
ENDBRANCH   1  20
TORSDOF 5
ENDMDL
MODEL 5
REMARK VINA RESULT:      -7.3      1.006      1.120
REMARK  Name = 
REMARK  9 active torsions:
REMARK  status: ('A' for Active; 'I' for Inactive)
REMARK    1  A    between atoms: C_1  and  C_2
REMARK    2  A    between atoms: C_2  and  N_3
REMARK    3  A    between atoms: N_3  and  C_4
REMARK    4  A    between atoms: N_3  and  S_6
REMARK    5  A    between atoms: C_4  and  C_5
REMARK    6  A    between atoms: S_6  and  C_9
REMARK    7  A    between atoms: C_11  and  C_12
REMARK    8  A    between atoms: N_14  and  C_15
REMARK    9  A    between atoms: C_26  and  C_27
REMARK                            x       y       z     vdW  Elec       q    Type
REMARK                         _______ _______ _______ _____ _____    ______ ____
ROOT
ATOM      1  C   UNL     1       0.877  10.043  20.502  0.00  0.00    +0.000 A 
ATOM      2  C   UNL     1       1.547   9.047  19.765  0.00  0.00    +0.000 A 
ATOM      3  C   UNL     1       1.506   7.703  20.167  0.00  0.00    +0.000 A 
ATOM      4  C   UNL     1       0.721   7.358  21.268  0.00  0.00    +0.000 A 
ATOM      5  C   UNL     1       0.117   8.351  22.044  0.00  0.00    +0.000 A 
ATOM      6  C   UNL     1       0.203   9.709  21.692  0.00  0.00    +0.000 A 
ATOM      7  C   UNL     1      -0.436  10.709  22.614  0.00  0.00    +0.000 C 
ENDROOT
BRANCH   3   8
ATOM      8  C   UNL     1       2.259   6.676  19.369  0.00  0.00    +0.000 A 
ATOM      9  N   UNL     1       3.108   7.153  18.504  0.00  0.00    +0.000 NA
ATOM     10  N   UNL     1       3.833   6.305  17.715  0.00  0.00    +0.000 N 
ATOM     11  C   UNL     1       4.787   6.916  16.810  0.00  0.00    +0.000 C 
ATOM     12  C   UNL     1       3.708   4.925  17.719  0.00  0.00    +0.000 A 
ATOM     13  O   UNL     1       4.335   4.176  16.972  0.00  0.00    +0.000 OA
ATOM     14  C   UNL     1       2.778   4.358  18.709  0.00  0.00    +0.000 A 
ATOM     15  C   UNL     1       2.656   2.961  18.809  0.00  0.00    +0.000 A 
ATOM     16  C   UNL     1       1.814   2.400  19.764  0.00  0.00    +0.000 A 
ATOM     17  C   UNL     1       1.119   3.231  20.634  0.00  0.00    +0.000 A 
ATOM     18  C   UNL     1       1.263   4.622  20.550  0.00  0.00    +0.000 A 
ATOM     19  C   UNL     1       2.068   5.205  19.558  0.00  0.00    +0.000 A 
ENDBRANCH   3   8
BRANCH   1  20
ATOM     20  S   UNL     1       0.981  11.717  19.864  0.00  0.00    +0.000 S 
ATOM     21  O   UNL     1       1.699  11.636  18.609  0.00  0.00    +0.000 OA
ATOM     22  O   UNL     1       1.421  12.613  20.911  0.00  0.00    +0.000 OA
BRANCH  20  23
ATOM     23  N   UNL     1      -0.659  12.132  19.523  0.00  0.00    +0.000 NA
BRANCH  23  25
ATOM     24  C   UNL     1      -2.096  13.634  20.939  0.00  0.00    +0.000 C 
ATOM     25  C   UNL     1      -1.025  13.541  19.861  0.00  0.00    +0.000 C 
ENDBRANCH  23  25
BRANCH  23  26
ATOM     26  C   UNL     1      -1.132  11.655  18.184  0.00  0.00    +0.000 C 
ATOM     27  C   UNL     1      -1.936  10.365  18.237  0.00  0.00    +0.000 C 
ENDBRANCH  23  26
ENDBRANCH  20  23
ENDBRANCH   1  20
TORSDOF 5
ENDMDL
MODEL 6
REMARK VINA RESULT:      -7.3      2.365      3.838
REMARK  Name = 
REMARK  9 active torsions:
REMARK  status: ('A' for Active; 'I' for Inactive)
REMARK    1  A    between atoms: C_1  and  C_2
REMARK    2  A    between atoms: C_2  and  N_3
REMARK    3  A    between atoms: N_3  and  C_4
REMARK    4  A    between atoms: N_3  and  S_6
REMARK    5  A    between atoms: C_4  and  C_5
REMARK    6  A    between atoms: S_6  and  C_9
REMARK    7  A    between atoms: C_11  and  C_12
REMARK    8  A    between atoms: N_14  and  C_15
REMARK    9  A    between atoms: C_26  and  C_27
REMARK                            x       y       z     vdW  Elec       q    Type
REMARK                         _______ _______ _______ _____ _____    ______ ____
ROOT
ATOM      1  C   UNL     1       1.040   9.237  20.106  0.00  0.00    +0.000 A 
ATOM      2  C   UNL     1       1.826   8.069  20.170  0.00  0.00    +0.000 A 
ATOM      3  C   UNL     1       2.285   7.446  19.000  0.00  0.00    +0.000 A 
ATOM      4  C   UNL     1       2.018   8.050  17.771  0.00  0.00    +0.000 A 
ATOM      5  C   UNL     1       1.178   9.165  17.700  0.00  0.00    +0.000 A 
ATOM      6  C   UNL     1       0.655   9.763  18.858  0.00  0.00    +0.000 A 
ATOM      7  C   UNL     1      -0.279  10.927  18.681  0.00  0.00    +0.000 C 
ENDROOT
BRANCH   3   8
ATOM      8  C   UNL     1       3.097   6.185  19.112  0.00  0.00    +0.000 A 
ATOM      9  N   UNL     1       2.581   5.253  19.860  0.00  0.00    +0.000 NA
ATOM     10  N   UNL     1       3.244   4.073  20.042  0.00  0.00    +0.000 N 
ATOM     11  C   UNL     1       2.580   3.071  20.853  0.00  0.00    +0.000 C 
ATOM     12  C   UNL     1       4.493   3.783  19.516  0.00  0.00    +0.000 A 
ATOM     13  O   UNL     1       5.099   2.733  19.725  0.00  0.00    +0.000 OA
ATOM     14  C   UNL     1       5.086   4.808  18.642  0.00  0.00    +0.000 A 
ATOM     15  C   UNL     1       6.321   4.546  18.024  0.00  0.00    +0.000 A 
ATOM     16  C   UNL     1       6.883   5.482  17.161  0.00  0.00    +0.000 A 
ATOM     17  C   UNL     1       6.199   6.661  16.893  0.00  0.00    +0.000 A 
ATOM     18  C   UNL     1       4.955   6.907  17.489  0.00  0.00    +0.000 A 
ATOM     19  C   UNL     1       4.399   5.997  18.403  0.00  0.00    +0.000 A 
ENDBRANCH   3   8
BRANCH   1  20
ATOM     20  S   UNL     1       0.543   9.953  21.674  0.00  0.00    +0.000 S 
ATOM     21  O   UNL     1       1.640   9.735  22.594  0.00  0.00    +0.000 OA
ATOM     22  O   UNL     1      -0.797   9.522  22.007  0.00  0.00    +0.000 OA
BRANCH  20  23
ATOM     23  N   UNL     1       0.442  11.644  21.343  0.00  0.00    +0.000 NA
BRANCH  23  25
ATOM     24  C   UNL     1      -1.737  12.900  21.373  0.00  0.00    +0.000 C 
ATOM     25  C   UNL     1      -0.553  12.381  22.178  0.00  0.00    +0.000 C 
ENDBRANCH  23  25
BRANCH  23  26
ATOM     26  C   UNL     1       1.778  12.309  21.210  0.00  0.00    +0.000 C 
ATOM     27  C   UNL     1       1.807  13.435  20.188  0.00  0.00    +0.000 C 
ENDBRANCH  23  26
ENDBRANCH  20  23
ENDBRANCH   1  20
TORSDOF 5
ENDMDL
MODEL 7
REMARK VINA RESULT:      -7.2      2.423      7.182
REMARK  Name = 
REMARK  9 active torsions:
REMARK  status: ('A' for Active; 'I' for Inactive)
REMARK    1  A    between atoms: C_1  and  C_2
REMARK    2  A    between atoms: C_2  and  N_3
REMARK    3  A    between atoms: N_3  and  C_4
REMARK    4  A    between atoms: N_3  and  S_6
REMARK    5  A    between atoms: C_4  and  C_5
REMARK    6  A    between atoms: S_6  and  C_9
REMARK    7  A    between atoms: C_11  and  C_12
REMARK    8  A    between atoms: N_14  and  C_15
REMARK    9  A    between atoms: C_26  and  C_27
REMARK                            x       y       z     vdW  Elec       q    Type
REMARK                         _______ _______ _______ _____ _____    ______ ____
ROOT
ATOM      1  C   UNL     1       3.477   5.069  19.325  0.00  0.00    +0.000 A 
ATOM      2  C   UNL     1       3.115   6.430  19.286  0.00  0.00    +0.000 A 
ATOM      3  C   UNL     1       2.021   6.905  20.026  0.00  0.00    +0.000 A 
ATOM      4  C   UNL     1       1.346   6.019  20.866  0.00  0.00    +0.000 A 
ATOM      5  C   UNL     1       1.654   4.656  20.849  0.00  0.00    +0.000 A 
ATOM      6  C   UNL     1       2.705   4.152  20.065  0.00  0.00    +0.000 A 
ATOM      7  C   UNL     1       2.930   2.667  20.073  0.00  0.00    +0.000 C 
ENDROOT
BRANCH   3   8
ATOM      8  C   UNL     1       1.651   8.360  19.933  0.00  0.00    +0.000 A 
ATOM      9  N   UNL     1       2.091   8.982  18.878  0.00  0.00    +0.000 NA
ATOM     10  N   UNL     1       1.825  10.311  18.704  0.00  0.00    +0.000 N 
ATOM     11  C   UNL     1       2.313  10.917  17.481  0.00  0.00    +0.000 C 
ATOM     12  C   UNL     1       1.138  11.101  19.611  0.00  0.00    +0.000 A 
ATOM     13  O   UNL     1       0.944  12.307  19.463  0.00  0.00    +0.000 OA
ATOM     14  C   UNL     1       0.604  10.416  20.799  0.00  0.00    +0.000 A 
ATOM     15  C   UNL     1      -0.160  11.149  21.724  0.00  0.00    +0.000 A 
ATOM     16  C   UNL     1      -0.711  10.516  22.834  0.00  0.00    +0.000 A 
ATOM     17  C   UNL     1      -0.524   9.149  23.002  0.00  0.00    +0.000 A 
ATOM     18  C   UNL     1       0.214   8.415  22.064  0.00  0.00    +0.000 A 
ATOM     19  C   UNL     1       0.820   9.049  20.968  0.00  0.00    +0.000 A 
ENDBRANCH   3   8
BRANCH   1  20
ATOM     20  S   UNL     1       4.913   4.595  18.360  0.00  0.00    +0.000 S 
ATOM     21  O   UNL     1       4.429   3.752  17.287  0.00  0.00    +0.000 OA
ATOM     22  O   UNL     1       5.966   4.138  19.240  0.00  0.00    +0.000 OA
BRANCH  20  23
ATOM     23  N   UNL     1       5.459   6.081  17.675  0.00  0.00    +0.000 NA
BRANCH  23  25
ATOM     24  C   UNL     1       7.298   7.795  17.578  0.00  0.00    +0.000 C 
ATOM     25  C   UNL     1       6.919   6.346  17.854  0.00  0.00    +0.000 C 
ENDBRANCH  23  25
BRANCH  23  26
ATOM     26  C   UNL     1       4.930   6.337  16.298  0.00  0.00    +0.000 C 
ATOM     27  C   UNL     1       5.706   5.629  15.198  0.00  0.00    +0.000 C 
ENDBRANCH  23  26
ENDBRANCH  20  23
ENDBRANCH   1  20
TORSDOF 5
ENDMDL
MODEL 8
REMARK VINA RESULT:      -7.2      1.669      2.143
REMARK  Name = 
REMARK  9 active torsions:
REMARK  status: ('A' for Active; 'I' for Inactive)
REMARK    1  A    between atoms: C_1  and  C_2
REMARK    2  A    between atoms: C_2  and  N_3
REMARK    3  A    between atoms: N_3  and  C_4
REMARK    4  A    between atoms: N_3  and  S_6
REMARK    5  A    between atoms: C_4  and  C_5
REMARK    6  A    between atoms: S_6  and  C_9
REMARK    7  A    between atoms: C_11  and  C_12
REMARK    8  A    between atoms: N_14  and  C_15
REMARK    9  A    between atoms: C_26  and  C_27
REMARK                            x       y       z     vdW  Elec       q    Type
REMARK                         _______ _______ _______ _____ _____    ______ ____
ROOT
ATOM      1  C   UNL     1       0.293   9.893  19.944  0.00  0.00    +0.000 A 
ATOM      2  C   UNL     1       0.938   8.833  19.277  0.00  0.00    +0.000 A 
ATOM      3  C   UNL     1       1.681   7.880  19.990  0.00  0.00    +0.000 A 
ATOM      4  C   UNL     1       1.704   7.954  21.382  0.00  0.00    +0.000 A 
ATOM      5  C   UNL     1       1.129   9.045  22.041  0.00  0.00    +0.000 A 
ATOM      6  C   UNL     1       0.436  10.044  21.337  0.00  0.00    +0.000 A 
ATOM      7  C   UNL     1      -0.106  11.203  22.124  0.00  0.00    +0.000 C 
ENDROOT
BRANCH   3   8
ATOM      8  C   UNL     1       2.378   6.781  19.236  0.00  0.00    +0.000 A 
ATOM      9  N   UNL     1       3.231   7.176  18.335  0.00  0.00    +0.000 NA
ATOM     10  N   UNL     1       3.908   6.258  17.582  0.00  0.00    +0.000 N 
ATOM     11  C   UNL     1       4.872   6.780  16.633  0.00  0.00    +0.000 C 
ATOM     12  C   UNL     1       3.725   4.887  17.661  0.00  0.00    +0.000 A 
ATOM     13  O   UNL     1       4.308   4.074  16.946  0.00  0.00    +0.000 OA
ATOM     14  C   UNL     1       2.788   4.413  18.692  0.00  0.00    +0.000 A 
ATOM     15  C   UNL     1       2.610   3.029  18.868  0.00  0.00    +0.000 A 
ATOM     16  C   UNL     1       1.762   2.555  19.863  0.00  0.00    +0.000 A 
ATOM     17  C   UNL     1       1.116   3.459  20.698  0.00  0.00    +0.000 A 
ATOM     18  C   UNL     1       1.317   4.836  20.539  0.00  0.00    +0.000 A 
ATOM     19  C   UNL     1       2.128   5.332  19.506  0.00  0.00    +0.000 A 
ENDBRANCH   3   8
BRANCH   1  20
ATOM     20  S   UNL     1      -0.652  11.026  18.922  0.00  0.00    +0.000 S 
ATOM     21  O   UNL     1      -1.775  11.465  19.723  0.00  0.00    +0.000 OA
ATOM     22  O   UNL     1      -0.859  10.447  17.613  0.00  0.00    +0.000 OA
BRANCH  20  23
ATOM     23  N   UNL     1       0.412  12.366  18.700  0.00  0.00    +0.000 NA
BRANCH  23  25
ATOM     24  C   UNL     1      -0.392  14.747  18.833  0.00  0.00    +0.000 C 
ATOM     25  C   UNL     1       0.132  13.533  19.590  0.00  0.00    +0.000 C 
ENDBRANCH  23  25
BRANCH  23  26
ATOM     26  C   UNL     1       1.854  11.977  18.597  0.00  0.00    +0.000 C 
ATOM     27  C   UNL     1       2.785  13.136  18.274  0.00  0.00    +0.000 C 
ENDBRANCH  23  26
ENDBRANCH  20  23
ENDBRANCH   1  20
TORSDOF 5
ENDMDL
MODEL 9
REMARK VINA RESULT:      -7.2      1.283      2.603
REMARK  Name = 
REMARK  9 active torsions:
REMARK  status: ('A' for Active; 'I' for Inactive)
REMARK    1  A    between atoms: C_1  and  C_2
REMARK    2  A    between atoms: C_2  and  N_3
REMARK    3  A    between atoms: N_3  and  C_4
REMARK    4  A    between atoms: N_3  and  S_6
REMARK    5  A    between atoms: C_4  and  C_5
REMARK    6  A    between atoms: S_6  and  C_9
REMARK    7  A    between atoms: C_11  and  C_12
REMARK    8  A    between atoms: N_14  and  C_15
REMARK    9  A    between atoms: C_26  and  C_27
REMARK                            x       y       z     vdW  Elec       q    Type
REMARK                         _______ _______ _______ _____ _____    ______ ____
ROOT
ATOM      1  C   UNL     1       1.300   9.195  19.653  0.00  0.00    +0.000 A 
ATOM      2  C   UNL     1       1.797   8.027  19.042  0.00  0.00    +0.000 A 
ATOM      3  C   UNL     1       1.893   6.824  19.759  0.00  0.00    +0.000 A 
ATOM      4  C   UNL     1       1.411   6.785  21.067  0.00  0.00    +0.000 A 
ATOM      5  C   UNL     1       0.989   7.958  21.700  0.00  0.00    +0.000 A 
ATOM      6  C   UNL     1       0.948   9.185  21.016  0.00  0.00    +0.000 A 
ATOM      7  C   UNL     1       0.527  10.401  21.792  0.00  0.00    +0.000 C 
ENDROOT
BRANCH   3   8
ATOM      8  C   UNL     1       2.454   5.608  19.077  0.00  0.00    +0.000 A 
ATOM      9  N   UNL     1       1.956   4.469  19.464  0.00  0.00    +0.000 NA
ATOM     10  N   UNL     1       2.408   3.301  18.919  0.00  0.00    +0.000 N 
ATOM     11  C   UNL     1       1.770   2.081  19.374  0.00  0.00    +0.000 C 
ATOM     12  C   UNL     1       3.426   3.211  17.984  0.00  0.00    +0.000 A 
ATOM     13  O   UNL     1       3.854   2.149  17.534  0.00  0.00    +0.000 OA
ATOM     14  C   UNL     1       3.987   4.485  17.506  0.00  0.00    +0.000 A 
ATOM     15  C   UNL     1       4.976   4.464  16.507  0.00  0.00    +0.000 A 
ATOM     16  C   UNL     1       5.492   5.656  16.010  0.00  0.00    +0.000 A 
ATOM     17  C   UNL     1       5.001   6.865  16.487  0.00  0.00    +0.000 A 
ATOM     18  C   UNL     1       3.995   6.884  17.462  0.00  0.00    +0.000 A 
ATOM     19  C   UNL     1       3.501   5.690  18.012  0.00  0.00    +0.000 A 
ENDBRANCH   3   8
BRANCH   1  20
ATOM     20  S   UNL     1       1.199  10.658  18.619  0.00  0.00    +0.000 S 
ATOM     21  O   UNL     1       1.719  10.282  17.322  0.00  0.00    +0.000 OA
ATOM     22  O   UNL     1       1.737  11.798  19.330  0.00  0.00    +0.000 OA
BRANCH  20  23
ATOM     23  N   UNL     1      -0.496  10.937  18.463  0.00  0.00    +0.000 NA
BRANCH  23  25
ATOM     24  C   UNL     1      -1.551  12.907  19.618  0.00  0.00    +0.000 C 
ATOM     25  C   UNL     1      -0.880  12.377  18.358  0.00  0.00    +0.000 C 
ENDBRANCH  23  25
BRANCH  23  26
ATOM     26  C   UNL     1      -1.165  10.027  17.479  0.00  0.00    +0.000 C 
ATOM     27  C   UNL     1      -2.670   9.915  17.667  0.00  0.00    +0.000 C 
ENDBRANCH  23  26
ENDBRANCH  20  23
ENDBRANCH   1  20
TORSDOF 5
ENDMDL
