MODEL 1
REMARK VINA RESULT:      -7.3      0.000      0.000
REMARK  Name = 
REMARK  8 active torsions:
REMARK  status: ('A' for Active; 'I' for Inactive)
REMARK    1  A    between atoms: N_1  and  S_2
REMARK    2  A    between atoms: S_2  and  C_5
REMARK    3  A    between atoms: C_8  and  N_9
REMARK    4  A    between atoms: C_10  and  C_12
REMARK    5  A    between atoms: C_12  and  C_13
REMARK    6  A    between atoms: C_13  and  C_14
REMARK    7  A    between atoms: C_14  and  C_15
REMARK    8  A    between atoms: C_15  and  N_16
REMARK                            x       y       z     vdW  Elec       q    Type
REMARK                         _______ _______ _______ _____ _____    ______ ____
ROOT
ATOM      1  N   UNL     1       6.243   6.074  18.255  0.00  0.00    +0.000 N 
ATOM      2  C   UNL     1       7.237   6.701  17.540  0.00  0.00    +0.000 C 
ATOM      3  O   UNL     1       7.292   6.699  16.314  0.00  0.00    +0.000 OA
ATOM      4  H   UNL     1       6.376   5.892  19.240  0.00  0.00    +0.000 HD
ENDROOT
BRANCH   1   8
ATOM      5  C   UNL     1       2.970   4.081  19.169  0.00  0.00    +0.000 C 
ATOM      6  C   UNL     1       2.896   5.534  18.748  0.00  0.00    +0.000 C 
ATOM      7  C   UNL     1       3.875   6.148  18.057  0.00  0.00    +0.000 C 
ATOM      8  C   UNL     1       5.128   5.452  17.589  0.00  0.00    +0.000 C 
ATOM      9  C   UNL     1       5.157   3.990  17.938  0.00  0.00    +0.000 C 
ATOM     10  C   UNL     1       4.203   3.371  18.652  0.00  0.00    +0.000 C 
BRANCH   5  11
ATOM     11  S   UNL     1       1.496   3.173  18.546  0.00  0.00    +0.000 S 
ATOM     12  O   UNL     1       0.990   3.799  17.345  0.00  0.00    +0.000 OA
ATOM     13  O   UNL     1       0.605   2.869  19.651  0.00  0.00    +0.000 OA
BRANCH  11  14
ATOM     14  N   UNL     1       2.104   1.687  18.058  0.00  0.00    +0.000 NA
ATOM     15  H   UNL     1       1.386   0.968  18.172  0.00  0.00    +0.000 HD
ATOM     16  H   UNL     1       2.969   1.468  18.551  0.00  0.00    +0.000 HD
ENDBRANCH  11  14
ENDBRANCH   5  11
ENDBRANCH   1   8
BRANCH   2  17
ATOM     17  C   UNL     1       8.217   7.470  18.401  0.00  0.00    +0.000 C 
BRANCH  17  18
ATOM     18  C   UNL     1       8.323   8.944  17.993  0.00  0.00    +0.000 C 
BRANCH  18  19
ATOM     19  C   UNL     1       9.004   9.871  19.023  0.00  0.00    +0.000 C 
BRANCH  19  20
ATOM     20  C   UNL     1      10.001  10.854  18.391  0.00  0.00    +0.000 C 
BRANCH  20  21
ATOM     21  N   UNL     1       9.798  12.283  18.673  0.00  0.00    +0.000 NA
ATOM     22  C   UNL     1      10.026  13.067  17.426  0.00  0.00    +0.000 C 
ATOM     23  C   UNL     1      11.507  13.182  17.007  0.00  0.00    +0.000 C 
ATOM     24  O   UNL     1      12.330  13.666  18.076  0.00  0.00    +0.000 OA
ATOM     25  C   UNL     1      12.180  12.856  19.249  0.00  0.00    +0.000 C 
ATOM     26  C   UNL     1      10.713  12.819  19.700  0.00  0.00    +0.000 C 
ENDBRANCH  20  21
ENDBRANCH  19  20
ENDBRANCH  18  19
ENDBRANCH  17  18
ENDBRANCH   2  17
TORSDOF 8
ENDMDL
MODEL 2
REMARK VINA RESULT:      -7.2      0.797      1.066
REMARK  Name = 
REMARK  8 active torsions:
REMARK  status: ('A' for Active; 'I' for Inactive)
REMARK    1  A    between atoms: N_1  and  S_2
REMARK    2  A    between atoms: S_2  and  C_5
REMARK    3  A    between atoms: C_8  and  N_9
REMARK    4  A    between atoms: C_10  and  C_12
REMARK    5  A    between atoms: C_12  and  C_13
REMARK    6  A    between atoms: C_13  and  C_14
REMARK    7  A    between atoms: C_14  and  C_15
REMARK    8  A    between atoms: C_15  and  N_16
REMARK                            x       y       z     vdW  Elec       q    Type
REMARK                         _______ _______ _______ _____ _____    ______ ____
ROOT
ATOM      1  N   UNL     1       6.343   6.216  18.268  0.00  0.00    +0.000 N 
ATOM      2  C   UNL     1       7.359   6.818  17.564  0.00  0.00    +0.000 C 
ATOM      3  O   UNL     1       7.523   6.672  16.356  0.00  0.00    +0.000 OA
ATOM      4  H   UNL     1       6.398   6.164  19.276  0.00  0.00    +0.000 HD
ENDROOT
BRANCH   1   8
ATOM      5  C   UNL     1       2.946   4.407  19.107  0.00  0.00    +0.000 C 
ATOM      6  C   UNL     1       2.953   5.734  18.376  0.00  0.00    +0.000 C 
ATOM      7  C   UNL     1       4.030   6.203  17.718  0.00  0.00    +0.000 C 
ATOM      8  C   UNL     1       5.329   5.445  17.598  0.00  0.00    +0.000 C 
ATOM      9  C   UNL     1       5.287   4.094  18.255  0.00  0.00    +0.000 C 
ATOM     10  C   UNL     1       4.231   3.626  18.939  0.00  0.00    +0.000 C 
BRANCH   5  11
ATOM     11  S   UNL     1       1.566   3.359  18.487  0.00  0.00    +0.000 S 
ATOM     12  O   UNL     1       1.037   3.900  17.254  0.00  0.00    +0.000 OA
ATOM     13  O   UNL     1       0.677   3.020  19.584  0.00  0.00    +0.000 OA
BRANCH  11  14
ATOM     14  N   UNL     1       2.304   1.913  18.065  0.00  0.00    +0.000 NA
ATOM     15  H   UNL     1       3.278   1.920  18.377  0.00  0.00    +0.000 HD
ATOM     16  H   UNL     1       2.207   1.732  17.066  0.00  0.00    +0.000 HD
ENDBRANCH  11  14
ENDBRANCH   5  11
ENDBRANCH   1   8
BRANCH   2  17
ATOM     17  C   UNL     1       8.214   7.749  18.397  0.00  0.00    +0.000 C 
BRANCH  17  18
ATOM     18  C   UNL     1       8.124   9.205  17.926  0.00  0.00    +0.000 C 
BRANCH  18  19
ATOM     19  C   UNL     1       9.333  10.096  18.285  0.00  0.00    +0.000 C 
BRANCH  19  20
ATOM     20  C   UNL     1       8.941  11.533  18.658  0.00  0.00    +0.000 C 
BRANCH  20  21
ATOM     21  N   UNL     1       9.979  12.369  19.280  0.00  0.00    +0.000 NA
ATOM     22  C   UNL     1       9.502  13.778  19.344  0.00  0.00    +0.000 C 
ATOM     23  C   UNL     1       9.485  14.508  17.985  0.00  0.00    +0.000 C 
ATOM     24  O   UNL     1      10.750  14.424  17.315  0.00  0.00    +0.000 OA
ATOM     25  C   UNL     1      11.166  13.059  17.171  0.00  0.00    +0.000 C 
ATOM     26  C   UNL     1      11.257  12.372  18.541  0.00  0.00    +0.000 C 
ENDBRANCH  20  21
ENDBRANCH  19  20
ENDBRANCH  18  19
ENDBRANCH  17  18
ENDBRANCH   2  17
TORSDOF 8
ENDMDL
MODEL 3
REMARK VINA RESULT:      -7.1      1.362      1.810
REMARK  Name = 
REMARK  8 active torsions:
REMARK  status: ('A' for Active; 'I' for Inactive)
REMARK    1  A    between atoms: N_1  and  S_2
REMARK    2  A    between atoms: S_2  and  C_5
REMARK    3  A    between atoms: C_8  and  N_9
REMARK    4  A    between atoms: C_10  and  C_12
REMARK    5  A    between atoms: C_12  and  C_13
REMARK    6  A    between atoms: C_13  and  C_14
REMARK    7  A    between atoms: C_14  and  C_15
REMARK    8  A    between atoms: C_15  and  N_16
REMARK                            x       y       z     vdW  Elec       q    Type
REMARK                         _______ _______ _______ _____ _____    ______ ____
ROOT
ATOM      1  N   UNL     1       5.757   5.916  17.988  0.00  0.00    +0.000 N 
ATOM      2  C   UNL     1       7.078   6.277  18.114  0.00  0.00    +0.000 C 
ATOM      3  O   UNL     1       7.916   5.584  18.682  0.00  0.00    +0.000 OA
ATOM      4  H   UNL     1       5.071   6.616  17.742  0.00  0.00    +0.000 HD
ENDROOT
BRANCH   1   8
ATOM      5  C   UNL     1       2.351   4.017  18.548  0.00  0.00    +0.000 C 
ATOM      6  C   UNL     1       3.220   3.705  17.346  0.00  0.00    +0.000 C 
ATOM      7  C   UNL     1       4.532   4.000  17.294  0.00  0.00    +0.000 C 
ATOM      8  C   UNL     1       5.292   4.629  18.435  0.00  0.00    +0.000 C 
ATOM      9  C   UNL     1       4.443   4.860  19.654  0.00  0.00    +0.000 C 
ATOM     10  C   UNL     1       3.127   4.598  19.710  0.00  0.00    +0.000 C 
BRANCH   5  11
ATOM     11  S   UNL     1       1.523   2.482  19.136  0.00  0.00    +0.000 S 
ATOM     12  O   UNL     1       0.273   2.285  18.437  0.00  0.00    +0.000 OA
ATOM     13  O   UNL     1       1.574   2.424  20.586  0.00  0.00    +0.000 OA
BRANCH  11  14
ATOM     14  N   UNL     1       2.531   1.246  18.617  0.00  0.00    +0.000 NA
ATOM     15  H   UNL     1       2.433   1.123  17.607  0.00  0.00    +0.000 HD
ATOM     16  H   UNL     1       2.357   0.389  19.142  0.00  0.00    +0.000 HD
ENDBRANCH  11  14
ENDBRANCH   5  11
ENDBRANCH   1   8
BRANCH   2  17
ATOM     17  C   UNL     1       7.428   7.573  17.412  0.00  0.00    +0.000 C 
BRANCH  17  18
ATOM     18  C   UNL     1       8.415   8.426  18.218  0.00  0.00    +0.000 C 
BRANCH  18  19
ATOM     19  C   UNL     1       8.369   9.942  17.932  0.00  0.00    +0.000 C 
BRANCH  19  20
ATOM     20  C   UNL     1       9.310  10.759  18.830  0.00  0.00    +0.000 C 
BRANCH  20  21
ATOM     21  N   UNL     1      10.347  11.557  18.160  0.00  0.00    +0.000 NA
ATOM     22  C   UNL     1      11.603  11.504  18.960  0.00  0.00    +0.000 C 
ATOM     23  C   UNL     1      11.563  12.332  20.262  0.00  0.00    +0.000 C 
ATOM     24  O   UNL     1      11.163  13.688  20.024  0.00  0.00    +0.000 OA
ATOM     25  C   UNL     1       9.907  13.740  19.333  0.00  0.00    +0.000 C 
ATOM     26  C   UNL     1       9.989  12.980  18.001  0.00  0.00    +0.000 C 
ENDBRANCH  20  21
ENDBRANCH  19  20
ENDBRANCH  18  19
ENDBRANCH  17  18
ENDBRANCH   2  17
TORSDOF 8
ENDMDL
MODEL 4
REMARK VINA RESULT:      -7.1      1.166      1.376
REMARK  Name = 
REMARK  8 active torsions:
REMARK  status: ('A' for Active; 'I' for Inactive)
REMARK    1  A    between atoms: N_1  and  S_2
REMARK    2  A    between atoms: S_2  and  C_5
REMARK    3  A    between atoms: C_8  and  N_9
REMARK    4  A    between atoms: C_10  and  C_12
REMARK    5  A    between atoms: C_12  and  C_13
REMARK    6  A    between atoms: C_13  and  C_14
REMARK    7  A    between atoms: C_14  and  C_15
REMARK    8  A    between atoms: C_15  and  N_16
REMARK                            x       y       z     vdW  Elec       q    Type
REMARK                         _______ _______ _______ _____ _____    ______ ____
ROOT
ATOM      1  N   UNL     1       5.779   5.947  18.042  0.00  0.00    +0.000 N 
ATOM      2  C   UNL     1       7.110   6.265  18.174  0.00  0.00    +0.000 C 
ATOM      3  O   UNL     1       7.921   5.550  18.755  0.00  0.00    +0.000 OA
ATOM      4  H   UNL     1       5.118   6.666  17.784  0.00  0.00    +0.000 HD
ENDROOT
BRANCH   1   8
ATOM      5  C   UNL     1       2.317   4.111  18.452  0.00  0.00    +0.000 C 
ATOM      6  C   UNL     1       3.251   3.751  17.315  0.00  0.00    +0.000 C 
ATOM      7  C   UNL     1       4.569   4.026  17.333  0.00  0.00    +0.000 C 
ATOM      8  C   UNL     1       5.268   4.681  18.499  0.00  0.00    +0.000 C 
ATOM      9  C   UNL     1       4.351   4.959  19.656  0.00  0.00    +0.000 C 
ATOM     10  C   UNL     1       3.030   4.717  19.641  0.00  0.00    +0.000 C 
BRANCH   5  11
ATOM     11  S   UNL     1       1.433   2.606  19.035  0.00  0.00    +0.000 S 
ATOM     12  O   UNL     1       0.187   2.446  18.318  0.00  0.00    +0.000 OA
ATOM     13  O   UNL     1       1.461   2.553  20.485  0.00  0.00    +0.000 OA
BRANCH  11  14
ATOM     14  N   UNL     1       2.408   1.336  18.535  0.00  0.00    +0.000 NA
ATOM     15  H   UNL     1       2.615   1.432  17.539  0.00  0.00    +0.000 HD
ATOM     16  H   UNL     1       1.984   0.438  18.770  0.00  0.00    +0.000 HD
ENDBRANCH  11  14
ENDBRANCH   5  11
ENDBRANCH   1   8
BRANCH   2  17
ATOM     17  C   UNL     1       7.508   7.541  17.462  0.00  0.00    +0.000 C 
BRANCH  17  18
ATOM     18  C   UNL     1       8.420   8.428  18.317  0.00  0.00    +0.000 C 
BRANCH  18  19
ATOM     19  C   UNL     1       8.335   9.942  18.028  0.00  0.00    +0.000 C 
BRANCH  19  20
ATOM     20  C   UNL     1       9.400  10.764  18.771  0.00  0.00    +0.000 C 
BRANCH  20  21
ATOM     21  N   UNL     1       9.164  12.210  18.889  0.00  0.00    +0.000 NA
ATOM     22  C   UNL     1       9.603  12.884  17.635  0.00  0.00    +0.000 C 
ATOM     23  C   UNL     1      11.134  12.973  17.462  0.00  0.00    +0.000 C 
ATOM     24  O   UNL     1      11.770  13.554  18.608  0.00  0.00    +0.000 OA
ATOM     25  C   UNL     1      11.419  12.848  19.805  0.00  0.00    +0.000 C 
ATOM     26  C   UNL     1       9.897  12.840  20.005  0.00  0.00    +0.000 C 
ENDBRANCH  20  21
ENDBRANCH  19  20
ENDBRANCH  18  19
ENDBRANCH  17  18
ENDBRANCH   2  17
TORSDOF 8
ENDMDL
MODEL 5
REMARK VINA RESULT:      -7.1      0.772      1.123
REMARK  Name = 
REMARK  8 active torsions:
REMARK  status: ('A' for Active; 'I' for Inactive)
REMARK    1  A    between atoms: N_1  and  S_2
REMARK    2  A    between atoms: S_2  and  C_5
REMARK    3  A    between atoms: C_8  and  N_9
REMARK    4  A    between atoms: C_10  and  C_12
REMARK    5  A    between atoms: C_12  and  C_13
REMARK    6  A    between atoms: C_13  and  C_14
REMARK    7  A    between atoms: C_14  and  C_15
REMARK    8  A    between atoms: C_15  and  N_16
REMARK                            x       y       z     vdW  Elec       q    Type
REMARK                         _______ _______ _______ _____ _____    ______ ____
ROOT
ATOM      1  N   UNL     1       6.276   5.979  18.066  0.00  0.00    +0.000 N 
ATOM      2  C   UNL     1       6.928   7.046  17.493  0.00  0.00    +0.000 C 
ATOM      3  O   UNL     1       6.543   7.602  16.469  0.00  0.00    +0.000 OA
ATOM      4  H   UNL     1       6.758   5.408  18.747  0.00  0.00    +0.000 HD
ENDROOT
BRANCH   1   8
ATOM      5  C   UNL     1       3.092   4.016  19.301  0.00  0.00    +0.000 C 
ATOM      6  C   UNL     1       3.043   5.516  19.098  0.00  0.00    +0.000 C 
ATOM      7  C   UNL     1       3.922   6.180  18.324  0.00  0.00    +0.000 C 
ATOM      8  C   UNL     1       5.021   5.506  17.543  0.00  0.00    +0.000 C 
ATOM      9  C   UNL     1       5.013   4.010  17.683  0.00  0.00    +0.000 C 
ATOM     10  C   UNL     1       4.161   3.336  18.473  0.00  0.00    +0.000 C 
BRANCH   5  11
ATOM     11  S   UNL     1       1.472   3.269  18.848  0.00  0.00    +0.000 S 
ATOM     12  O   UNL     1       1.038   3.755  17.556  0.00  0.00    +0.000 OA
ATOM     13  O   UNL     1       0.577   3.312  19.990  0.00  0.00    +0.000 OA
BRANCH  11  14
ATOM     14  N   UNL     1       1.815   1.642  18.627  0.00  0.00    +0.000 NA
ATOM     15  H   UNL     1       2.625   1.542  18.012  0.00  0.00    +0.000 HD
ATOM     16  H   UNL     1       0.994   1.139  18.291  0.00  0.00    +0.000 HD
ENDBRANCH  11  14
ENDBRANCH   5  11
ENDBRANCH   1   8
BRANCH   2  17
ATOM     17  C   UNL     1       8.121   7.533  18.288  0.00  0.00    +0.000 C 
BRANCH  17  18
ATOM     18  C   UNL     1       8.314   9.050  18.185  0.00  0.00    +0.000 C 
BRANCH  18  19
ATOM     19  C   UNL     1       9.201   9.683  19.278  0.00  0.00    +0.000 C 
BRANCH  19  20
ATOM     20  C   UNL     1       9.318  11.210  19.159  0.00  0.00    +0.000 C 
BRANCH  20  21
ATOM     21  N   UNL     1       9.700  11.750  17.845  0.00  0.00    +0.000 NA
ATOM     22  C   UNL     1      11.180  11.911  17.792  0.00  0.00    +0.000 C 
ATOM     23  C   UNL     1      11.723  13.090  18.628  0.00  0.00    +0.000 C 
ATOM     24  O   UNL     1      11.060  14.321  18.312  0.00  0.00    +0.000 OA
ATOM     25  C   UNL     1       9.639  14.191  18.452  0.00  0.00    +0.000 C 
ATOM     26  C   UNL     1       9.105  13.068  17.551  0.00  0.00    +0.000 C 
ENDBRANCH  20  21
ENDBRANCH  19  20
ENDBRANCH  18  19
ENDBRANCH  17  18
ENDBRANCH   2  17
TORSDOF 8
ENDMDL
MODEL 6
REMARK VINA RESULT:      -7.0      1.273      1.802
REMARK  Name = 
REMARK  8 active torsions:
REMARK  status: ('A' for Active; 'I' for Inactive)
REMARK    1  A    between atoms: N_1  and  S_2
REMARK    2  A    between atoms: S_2  and  C_5
REMARK    3  A    between atoms: C_8  and  N_9
REMARK    4  A    between atoms: C_10  and  C_12
REMARK    5  A    between atoms: C_12  and  C_13
REMARK    6  A    between atoms: C_13  and  C_14
REMARK    7  A    between atoms: C_14  and  C_15
REMARK    8  A    between atoms: C_15  and  N_16
REMARK                            x       y       z     vdW  Elec       q    Type
REMARK                         _______ _______ _______ _____ _____    ______ ____
ROOT
ATOM      1  N   UNL     1       6.115   6.145  17.802  0.00  0.00    +0.000 N 
ATOM      2  C   UNL     1       7.358   6.639  18.122  0.00  0.00    +0.000 C 
ATOM      3  O   UNL     1       8.081   6.146  18.983  0.00  0.00    +0.000 OA
ATOM      4  H   UNL     1       5.469   6.720  17.280  0.00  0.00    +0.000 HD
ENDROOT
BRANCH   1   8
ATOM      5  C   UNL     1       2.701   4.235  18.267  0.00  0.00    +0.000 C 
ATOM      6  C   UNL     1       3.715   3.766  17.243  0.00  0.00    +0.000 C 
ATOM      7  C   UNL     1       5.018   4.097  17.297  0.00  0.00    +0.000 C 
ATOM      8  C   UNL     1       5.622   4.931  18.399  0.00  0.00    +0.000 C 
ATOM      9  C   UNL     1       4.627   5.324  19.455  0.00  0.00    +0.000 C 
ATOM     10  C   UNL     1       3.319   5.026  19.399  0.00  0.00    +0.000 C 
BRANCH   5  11
ATOM     11  S   UNL     1       1.835   2.786  19.000  0.00  0.00    +0.000 S 
ATOM     12  O   UNL     1       0.593   2.536  18.303  0.00  0.00    +0.000 OA
ATOM     13  O   UNL     1       1.860   2.883  20.449  0.00  0.00    +0.000 OA
BRANCH  11  14
ATOM     14  N   UNL     1       2.829   1.485  18.635  0.00  0.00    +0.000 NA
ATOM     15  H   UNL     1       3.778   1.817  18.454  0.00  0.00    +0.000 HD
ATOM     16  H   UNL     1       2.444   0.937  17.866  0.00  0.00    +0.000 HD
ENDBRANCH  11  14
ENDBRANCH   5  11
ENDBRANCH   1   8
BRANCH   2  17
ATOM     17  C   UNL     1       7.795   7.803  17.257  0.00  0.00    +0.000 C 
BRANCH  17  18
ATOM     18  C   UNL     1       7.836   9.125  18.032  0.00  0.00    +0.000 C 
BRANCH  18  19
ATOM     19  C   UNL     1       9.096   9.351  18.894  0.00  0.00    +0.000 C 
BRANCH  19  20
ATOM     20  C   UNL     1       9.296  10.817  19.307  0.00  0.00    +0.000 C 
BRANCH  20  21
ATOM     21  N   UNL     1      10.677  11.321  19.335  0.00  0.00    +0.000 NA
ATOM     22  C   UNL     1      10.748  12.514  20.225  0.00  0.00    +0.000 C 
ATOM     23  C   UNL     1      10.111  13.789  19.633  0.00  0.00    +0.000 C 
ATOM     24  O   UNL     1      10.626  14.090  18.329  0.00  0.00    +0.000 OA
ATOM     25  C   UNL     1      10.474  12.971  17.445  0.00  0.00    +0.000 C 
ATOM     26  C   UNL     1      11.184  11.732  18.011  0.00  0.00    +0.000 C 
ENDBRANCH  20  21
ENDBRANCH  19  20
ENDBRANCH  18  19
ENDBRANCH  17  18
ENDBRANCH   2  17
TORSDOF 8
ENDMDL
MODEL 7
REMARK VINA RESULT:      -7.0      0.983      1.501
REMARK  Name = 
REMARK  8 active torsions:
REMARK  status: ('A' for Active; 'I' for Inactive)
REMARK    1  A    between atoms: N_1  and  S_2
REMARK    2  A    between atoms: S_2  and  C_5
REMARK    3  A    between atoms: C_8  and  N_9
REMARK    4  A    between atoms: C_10  and  C_12
REMARK    5  A    between atoms: C_12  and  C_13
REMARK    6  A    between atoms: C_13  and  C_14
REMARK    7  A    between atoms: C_14  and  C_15
REMARK    8  A    between atoms: C_15  and  N_16
REMARK                            x       y       z     vdW  Elec       q    Type
REMARK                         _______ _______ _______ _____ _____    ______ ____
ROOT
ATOM      1  N   UNL     1       6.409   5.977  18.377  0.00  0.00    +0.000 N 
ATOM      2  C   UNL     1       7.367   6.598  17.611  0.00  0.00    +0.000 C 
ATOM      3  O   UNL     1       7.524   6.378  16.414  0.00  0.00    +0.000 OA
ATOM      4  H   UNL     1       6.482   6.002  19.384  0.00  0.00    +0.000 HD
ENDROOT
BRANCH   1   8
ATOM      5  C   UNL     1       2.845   4.499  19.171  0.00  0.00    +0.000 C 
ATOM      6  C   UNL     1       3.010   5.608  18.153  0.00  0.00    +0.000 C 
ATOM      7  C   UNL     1       4.182   5.880  17.549  0.00  0.00    +0.000 C 
ATOM      8  C   UNL     1       5.444   5.088  17.783  0.00  0.00    +0.000 C 
ATOM      9  C   UNL     1       5.253   3.938  18.731  0.00  0.00    +0.000 C 
ATOM     10  C   UNL     1       4.098   3.672  19.363  0.00  0.00    +0.000 C 
BRANCH   5  11
ATOM     11  S   UNL     1       1.498   3.361  18.644  0.00  0.00    +0.000 S 
ATOM     12  O   UNL     1       0.920   3.809  17.396  0.00  0.00    +0.000 OA
ATOM     13  O   UNL     1       0.648   3.050  19.779  0.00  0.00    +0.000 OA
BRANCH  11  14
ATOM     14  N   UNL     1       2.287   1.925  18.287  0.00  0.00    +0.000 NA
ATOM     15  H   UNL     1       2.038   1.620  17.344  0.00  0.00    +0.000 HD
ATOM     16  H   UNL     1       2.097   1.218  18.998  0.00  0.00    +0.000 HD
ENDBRANCH  11  14
ENDBRANCH   5  11
ENDBRANCH   1   8
BRANCH   2  17
ATOM     17  C   UNL     1       8.164   7.647  18.360  0.00  0.00    +0.000 C 
BRANCH  17  18
ATOM     18  C   UNL     1       8.325   8.943  17.557  0.00  0.00    +0.000 C 
BRANCH  18  19
ATOM     19  C   UNL     1       8.297  10.245  18.385  0.00  0.00    +0.000 C 
BRANCH  19  20
ATOM     20  C   UNL     1       9.524  10.416  19.293  0.00  0.00    +0.000 C 
BRANCH  20  21
ATOM     21  N   UNL     1      10.603  11.285  18.800  0.00  0.00    +0.000 NA
ATOM     22  C   UNL     1      11.289  11.922  19.959  0.00  0.00    +0.000 C 
ATOM     23  C   UNL     1      10.473  13.034  20.650  0.00  0.00    +0.000 C 
ATOM     24  O   UNL     1      10.016  14.023  19.717  0.00  0.00    +0.000 OA
ATOM     25  C   UNL     1       9.276  13.418  18.648  0.00  0.00    +0.000 C 
ATOM     26  C   UNL     1      10.132  12.372  17.920  0.00  0.00    +0.000 C 
ENDBRANCH  20  21
ENDBRANCH  19  20
ENDBRANCH  18  19
ENDBRANCH  17  18
ENDBRANCH   2  17
TORSDOF 8
ENDMDL
MODEL 8
REMARK VINA RESULT:      -6.9      1.233      1.623
REMARK  Name = 
REMARK  8 active torsions:
REMARK  status: ('A' for Active; 'I' for Inactive)
REMARK    1  A    between atoms: N_1  and  S_2
REMARK    2  A    between atoms: S_2  and  C_5
REMARK    3  A    between atoms: C_8  and  N_9
REMARK    4  A    between atoms: C_10  and  C_12
REMARK    5  A    between atoms: C_12  and  C_13
REMARK    6  A    between atoms: C_13  and  C_14
REMARK    7  A    between atoms: C_14  and  C_15
REMARK    8  A    between atoms: C_15  and  N_16
REMARK                            x       y       z     vdW  Elec       q    Type
REMARK                         _______ _______ _______ _____ _____    ______ ____
ROOT
ATOM      1  N   UNL     1       5.925   6.889  17.809  0.00  0.00    +0.000 N 
ATOM      2  C   UNL     1       7.125   7.285  17.267  0.00  0.00    +0.000 C 
ATOM      3  O   UNL     1       7.792   6.581  16.513  0.00  0.00    +0.000 OA
ATOM      4  H   UNL     1       5.548   7.387  18.602  0.00  0.00    +0.000 HD
ENDROOT
BRANCH   1   8
ATOM      5  C   UNL     1       3.438   4.227  19.308  0.00  0.00    +0.000 C 
ATOM      6  C   UNL     1       2.975   5.203  18.246  0.00  0.00    +0.000 C 
ATOM      7  C   UNL     1       3.823   5.847  17.423  0.00  0.00    +0.000 C 
ATOM      8  C   UNL     1       5.316   5.639  17.434  0.00  0.00    +0.000 C 
ATOM      9  C   UNL     1       5.761   4.608  18.433  0.00  0.00    +0.000 C 
ATOM     10  C   UNL     1       4.931   3.979  19.281  0.00  0.00    +0.000 C 
BRANCH   5  11
ATOM     11  S   UNL     1       2.596   2.607  19.079  0.00  0.00    +0.000 S 
ATOM     12  O   UNL     1       1.817   2.274  20.251  0.00  0.00    +0.000 OA
ATOM     13  O   UNL     1       3.528   1.646  18.516  0.00  0.00    +0.000 OA
BRANCH  11  14
ATOM     14  N   UNL     1       1.479   2.892  17.860  0.00  0.00    +0.000 NA
ATOM     15  H   UNL     1       1.265   2.017  17.378  0.00  0.00    +0.000 HD
ATOM     16  H   UNL     1       1.807   3.624  17.230  0.00  0.00    +0.000 HD
ENDBRANCH  11  14
ENDBRANCH   5  11
ENDBRANCH   1   8
BRANCH   2  17
ATOM     17  C   UNL     1       7.515   8.706  17.616  0.00  0.00    +0.000 C 
BRANCH  17  18
ATOM     18  C   UNL     1       8.764   8.769  18.503  0.00  0.00    +0.000 C 
BRANCH  18  19
ATOM     19  C   UNL     1       9.055  10.143  19.143  0.00  0.00    +0.000 C 
BRANCH  19  20
ATOM     20  C   UNL     1       9.795  11.107  18.203  0.00  0.00    +0.000 C 
BRANCH  20  21
ATOM     21  N   UNL     1      10.766  12.025  18.818  0.00  0.00    +0.000 NA
ATOM     22  C   UNL     1      10.066  13.271  19.239  0.00  0.00    +0.000 C 
ATOM     23  C   UNL     1       9.664  14.200  18.073  0.00  0.00    +0.000 C 
ATOM     24  O   UNL     1      10.776  14.498  17.218  0.00  0.00    +0.000 OA
ATOM     25  C   UNL     1      11.394  13.297  16.739  0.00  0.00    +0.000 C 
ATOM     26  C   UNL     1      11.861  12.422  17.912  0.00  0.00    +0.000 C 
ENDBRANCH  20  21
ENDBRANCH  19  20
ENDBRANCH  18  19
ENDBRANCH  17  18
ENDBRANCH   2  17
TORSDOF 8
ENDMDL
MODEL 9
REMARK VINA RESULT:      -6.8      1.591      1.946
REMARK  Name = 
REMARK  8 active torsions:
REMARK  status: ('A' for Active; 'I' for Inactive)
REMARK    1  A    between atoms: N_1  and  S_2
REMARK    2  A    between atoms: S_2  and  C_5
REMARK    3  A    between atoms: C_8  and  N_9
REMARK    4  A    between atoms: C_10  and  C_12
REMARK    5  A    between atoms: C_12  and  C_13
REMARK    6  A    between atoms: C_13  and  C_14
REMARK    7  A    between atoms: C_14  and  C_15
REMARK    8  A    between atoms: C_15  and  N_16
REMARK                            x       y       z     vdW  Elec       q    Type
REMARK                         _______ _______ _______ _____ _____    ______ ____
ROOT
ATOM      1  N   UNL     1       5.611   5.283  17.468  0.00  0.00    +0.000 N 
ATOM      2  C   UNL     1       5.980   6.577  17.184  0.00  0.00    +0.000 C 
ATOM      3  O   UNL     1       5.174   7.481  16.983  0.00  0.00    +0.000 OA
ATOM      4  H   UNL     1       6.289   4.541  17.377  0.00  0.00    +0.000 HD
ENDROOT
BRANCH   1   8
ATOM      5  C   UNL     1       3.347   3.407  20.090  0.00  0.00    +0.000 C 
ATOM      6  C   UNL     1       3.338   4.919  20.005  0.00  0.00    +0.000 C 
ATOM      7  C   UNL     1       3.752   5.595  18.918  0.00  0.00    +0.000 C 
ATOM      8  C   UNL     1       4.228   4.928  17.652  0.00  0.00    +0.000 C 
ATOM      9  C   UNL     1       4.156   3.428  17.712  0.00  0.00    +0.000 C 
ATOM     10  C   UNL     1       3.773   2.740  18.800  0.00  0.00    +0.000 C 
BRANCH   5  11
ATOM     11  S   UNL     1       1.663   2.794  20.510  0.00  0.00    +0.000 S 
ATOM     12  O   UNL     1       1.596   2.423  21.906  0.00  0.00    +0.000 OA
ATOM     13  O   UNL     1       1.206   1.876  19.482  0.00  0.00    +0.000 OA
BRANCH  11  14
ATOM     14  N   UNL     1       0.682   4.145  20.353  0.00  0.00    +0.000 NA
ATOM     15  H   UNL     1       0.411   4.483  21.279  0.00  0.00    +0.000 HD
ATOM     16  H   UNL     1      -0.118   3.947  19.751  0.00  0.00    +0.000 HD
ENDBRANCH  11  14
ENDBRANCH   5  11
ENDBRANCH   1   8
BRANCH   2  17
ATOM     17  C   UNL     1       7.475   6.810  17.224  0.00  0.00    +0.000 C 
BRANCH  17  18
ATOM     18  C   UNL     1       7.886   7.790  18.330  0.00  0.00    +0.000 C 
BRANCH  18  19
ATOM     19  C   UNL     1       8.201   9.227  17.860  0.00  0.00    +0.000 C 
BRANCH  19  20
ATOM     20  C   UNL     1       9.117   9.995  18.825  0.00  0.00    +0.000 C 
BRANCH  20  21
ATOM     21  N   UNL     1       9.174  11.456  18.671  0.00  0.00    +0.000 NA
ATOM     22  C   UNL     1      10.362  11.818  17.847  0.00  0.00    +0.000 C 
ATOM     23  C   UNL     1      11.713  11.670  18.579  0.00  0.00    +0.000 C 
ATOM     24  O   UNL     1      11.724  12.367  19.832  0.00  0.00    +0.000 OA
ATOM     25  C   UNL     1      10.631  11.951  20.662  0.00  0.00    +0.000 C 
ATOM     26  C   UNL     1       9.291  12.182  19.950  0.00  0.00    +0.000 C 
ENDBRANCH  20  21
ENDBRANCH  19  20
ENDBRANCH  18  19
ENDBRANCH  17  18
ENDBRANCH   2  17
TORSDOF 8
ENDMDL
