MODEL 1
REMARK VINA RESULT:      -8.8      0.000      0.000
REMARK  Name = 
REMARK  9 active torsions:
REMARK  status: ('A' for Active; 'I' for Inactive)
REMARK    1  A    between atoms: C_1  and  O_2
REMARK    2  A    between atoms: O_2  and  C_3
REMARK    3  A    between atoms: C_12  and  O_13
REMARK    4  A    between atoms: O_13  and  C_14
REMARK    5  A    between atoms: C_14  and  C_15
REMARK    6  A    between atoms: C_15  and  C_16
REMARK    7  A    between atoms: C_16  and  C_17
REMARK    8  A    between atoms: C_17  and  O_18
REMARK    9  A    between atoms: O_18  and  C_19
REMARK                            x       y       z     vdW  Elec       q    Type
REMARK                         _______ _______ _______ _____ _____    ______ ____
ROOT
ATOM      1  C   UNL     1       3.085   3.319  19.786  0.00  0.00    +0.000 A 
ATOM      2  C   UNL     1       2.523   3.502  21.050  0.00  0.00    +0.000 A 
ATOM      3  C   UNL     1       1.962   4.721  21.412  0.00  0.00    +0.000 A 
ATOM      4  C   UNL     1       1.963   5.794  20.518  0.00  0.00    +0.000 A 
ATOM      5  C   UNL     1       1.443   7.022  20.910  0.00  0.00    +0.000 A 
ATOM      6  C   UNL     1       1.410   8.110  20.030  0.00  0.00    +0.000 A 
ATOM      7  N   UNL     1       1.913   7.948  18.773  0.00  0.00    +0.000 N 
ATOM      8  C   UNL     1       2.441   6.758  18.383  0.00  0.00    +0.000 A 
ATOM      9  C   UNL     1       2.490   5.638  19.228  0.00  0.00    +0.000 A 
ATOM     10  C   UNL     1       3.032   4.376  18.851  0.00  0.00    +0.000 A 
ATOM     11  C   UNL     1       1.798   9.027  17.755  0.00  0.00    +0.000 C 
ATOM     12  C   UNL     1       2.010  10.399  18.365  0.00  0.00    +0.000 C 
ATOM     13  C   UNL     1       1.142  10.575  19.579  0.00  0.00    +0.000 A 
ATOM     14  C   UNL     1       0.685  11.860  19.930  0.00  0.00    +0.000 A 
ATOM     15  C   UNL     1      -0.020  11.999  21.105  0.00  0.00    +0.000 A 
ATOM     16  C   UNL     1      -0.283  10.922  21.906  0.00  0.00    +0.000 A 
ATOM     17  C   UNL     1       0.131   9.648  21.578  0.00  0.00    +0.000 A 
ATOM     18  C   UNL     1       0.878   9.443  20.397  0.00  0.00    +0.000 A 
ATOM     19  O   UNL     1      -0.962  11.264  23.033  0.00  0.00    +0.000 OA
ATOM     20  C   UNL     1      -1.031  12.700  22.884  0.00  0.00    +0.000 C 
ATOM     21  O   UNL     1      -0.506  13.158  21.618  0.00  0.00    +0.000 OA
ENDROOT
BRANCH   1  23
ATOM     22  C   UNL     1       4.729   1.718  20.411  0.00  0.00    +0.000 C 
ATOM     23  O   UNL     1       3.767   2.176  19.459  0.00  0.00    +0.000 OA
ENDBRANCH   1  23
BRANCH  10  24
ATOM     24  O   UNL     1       3.499   4.326  17.555  0.00  0.00    +0.000 OA
BRANCH  24  25
ATOM     25  C   UNL     1       4.849   3.904  17.335  0.00  0.00    +0.000 C 
BRANCH  25  26
ATOM     26  C   UNL     1       5.789   4.716  18.227  0.00  0.00    +0.000 C 
BRANCH  26  27
ATOM     27  C   UNL     1       6.184   6.086  17.679  0.00  0.00    +0.000 C 
BRANCH  27  28
ATOM     28  C   UNL     1       6.123   6.137  16.156  0.00  0.00    +0.000 C 
BRANCH  28  29
ATOM     29  O   UNL     1       7.392   5.752  15.621  0.00  0.00    +0.000 OA
BRANCH  29  30
ATOM     30  C   UNL     1       7.252   5.167  14.375  0.00  0.00    +0.000 A 
ATOM     31  C   UNL     1       6.375   4.097  14.278  0.00  0.00    +0.000 A 
ATOM     32  C   UNL     1       6.202   3.504  13.031  0.00  0.00    +0.000 A 
ATOM     33  C   UNL     1       6.905   3.997  11.936  0.00  0.00    +0.000 A 
ATOM     34  C   UNL     1       7.759   5.066  12.130  0.00  0.00    +0.000 A 
ATOM     35  N   UNL     1       7.944   5.664  13.326  0.00  0.00    +0.000 NA
ENDBRANCH  29  30
ENDBRANCH  28  29
ENDBRANCH  27  28
ENDBRANCH  26  27
ENDBRANCH  25  26
ENDBRANCH  24  25
ENDBRANCH  10  24
TORSDOF 8
ENDMDL
MODEL 2
REMARK VINA RESULT:      -8.6      1.058      1.168
REMARK  Name = 
REMARK  9 active torsions:
REMARK  status: ('A' for Active; 'I' for Inactive)
REMARK    1  A    between atoms: C_1  and  O_2
REMARK    2  A    between atoms: O_2  and  C_3
REMARK    3  A    between atoms: C_12  and  O_13
REMARK    4  A    between atoms: O_13  and  C_14
REMARK    5  A    between atoms: C_14  and  C_15
REMARK    6  A    between atoms: C_15  and  C_16
REMARK    7  A    between atoms: C_16  and  C_17
REMARK    8  A    between atoms: C_17  and  O_18
REMARK    9  A    between atoms: O_18  and  C_19
REMARK                            x       y       z     vdW  Elec       q    Type
REMARK                         _______ _______ _______ _____ _____    ______ ____
ROOT
ATOM      1  C   UNL     1       3.287   4.205  19.277  0.00  0.00    +0.000 A 
ATOM      2  C   UNL     1       2.645   4.153  20.515  0.00  0.00    +0.000 A 
ATOM      3  C   UNL     1       1.958   5.256  21.008  0.00  0.00    +0.000 A 
ATOM      4  C   UNL     1       1.908   6.444  20.277  0.00  0.00    +0.000 A 
ATOM      5  C   UNL     1       1.258   7.555  20.803  0.00  0.00    +0.000 A 
ATOM      6  C   UNL     1       1.173   8.754  20.085  0.00  0.00    +0.000 A 
ATOM      7  N   UNL     1       1.755   8.820  18.854  0.00  0.00    +0.000 N 
ATOM      8  C   UNL     1       2.409   7.747  18.335  0.00  0.00    +0.000 A 
ATOM      9  C   UNL     1       2.515   6.523  19.015  0.00  0.00    +0.000 A 
ATOM     10  C   UNL     1       3.188   5.379  18.500  0.00  0.00    +0.000 A 
ATOM     11  C   UNL     1       1.597  10.023  17.993  0.00  0.00    +0.000 C 
ATOM     12  C   UNL     1       1.650  11.303  18.804  0.00  0.00    +0.000 C 
ATOM     13  C   UNL     1       0.707  11.227  19.971  0.00  0.00    +0.000 A 
ATOM     14  C   UNL     1       0.117  12.406  20.469  0.00  0.00    +0.000 A 
ATOM     15  C   UNL     1      -0.659  12.312  21.603  0.00  0.00    +0.000 A 
ATOM     16  C   UNL     1      -0.865  11.111  22.225  0.00  0.00    +0.000 A 
ATOM     17  C   UNL     1      -0.320   9.937  21.748  0.00  0.00    +0.000 A 
ATOM     18  C   UNL     1       0.504   9.970  20.601  0.00  0.00    +0.000 A 
ATOM     19  O   UNL     1      -1.632  11.228  23.342  0.00  0.00    +0.000 OA
ATOM     20  C   UNL     1      -1.822  12.659  23.393  0.00  0.00    +0.000 C 
ATOM     21  O   UNL     1      -1.274  13.339  22.242  0.00  0.00    +0.000 OA
ENDROOT
BRANCH   1  23
ATOM     22  C   UNL     1       3.450   1.918  18.640  0.00  0.00    +0.000 C 
ATOM     23  O   UNL     1       4.087   3.182  18.837  0.00  0.00    +0.000 OA
ENDBRANCH   1  23
BRANCH  10  24
ATOM     24  O   UNL     1       3.726   5.558  17.243  0.00  0.00    +0.000 OA
BRANCH  24  25
ATOM     25  C   UNL     1       4.769   6.525  17.082  0.00  0.00    +0.000 C 
BRANCH  25  26
ATOM     26  C   UNL     1       5.966   6.132  17.949  0.00  0.00    +0.000 C 
BRANCH  26  27
ATOM     27  C   UNL     1       7.282   5.945  17.194  0.00  0.00    +0.000 C 
BRANCH  27  28
ATOM     28  C   UNL     1       7.491   4.502  16.750  0.00  0.00    +0.000 C 
BRANCH  28  29
ATOM     29  O   UNL     1       6.417   4.115  15.888  0.00  0.00    +0.000 OA
BRANCH  29  30
ATOM     30  C   UNL     1       6.753   4.302  14.558  0.00  0.00    +0.000 A 
ATOM     31  C   UNL     1       6.090   3.517  13.627  0.00  0.00    +0.000 A 
ATOM     32  C   UNL     1       6.395   3.700  12.281  0.00  0.00    +0.000 A 
ATOM     33  C   UNL     1       7.343   4.651  11.918  0.00  0.00    +0.000 A 
ATOM     34  C   UNL     1       7.954   5.386  12.918  0.00  0.00    +0.000 A 
ATOM     35  N   UNL     1       7.675   5.233  14.230  0.00  0.00    +0.000 NA
ENDBRANCH  29  30
ENDBRANCH  28  29
ENDBRANCH  27  28
ENDBRANCH  26  27
ENDBRANCH  25  26
ENDBRANCH  24  25
ENDBRANCH  10  24
TORSDOF 8
ENDMDL
MODEL 3
REMARK VINA RESULT:      -8.4      3.437     10.175
REMARK  Name = 
REMARK  9 active torsions:
REMARK  status: ('A' for Active; 'I' for Inactive)
REMARK    1  A    between atoms: C_1  and  O_2
REMARK    2  A    between atoms: O_2  and  C_3
REMARK    3  A    between atoms: C_12  and  O_13
REMARK    4  A    between atoms: O_13  and  C_14
REMARK    5  A    between atoms: C_14  and  C_15
REMARK    6  A    between atoms: C_15  and  C_16
REMARK    7  A    between atoms: C_16  and  C_17
REMARK    8  A    between atoms: C_17  and  O_18
REMARK    9  A    between atoms: O_18  and  C_19
REMARK                            x       y       z     vdW  Elec       q    Type
REMARK                         _______ _______ _______ _____ _____    ______ ____
ROOT
ATOM      1  C   UNL     1      -0.980  11.629  22.206  0.00  0.00    +0.000 A 
ATOM      2  C   UNL     1      -1.023  10.537  23.075  0.00  0.00    +0.000 A 
ATOM      3  C   UNL     1      -0.379   9.348  22.757  0.00  0.00    +0.000 A 
ATOM      4  C   UNL     1       0.315   9.217  21.552  0.00  0.00    +0.000 A 
ATOM      5  C   UNL     1       0.912   8.006  21.224  0.00  0.00    +0.000 A 
ATOM      6  C   UNL     1       1.632   7.851  20.033  0.00  0.00    +0.000 A 
ATOM      7  N   UNL     1       1.727   8.914  19.185  0.00  0.00    +0.000 N 
ATOM      8  C   UNL     1       1.132  10.099  19.485  0.00  0.00    +0.000 A 
ATOM      9  C   UNL     1       0.406  10.303  20.669  0.00  0.00    +0.000 A 
ATOM     10  C   UNL     1      -0.227  11.531  21.016  0.00  0.00    +0.000 A 
ATOM     11  C   UNL     1       2.577   8.850  17.965  0.00  0.00    +0.000 C 
ATOM     12  C   UNL     1       2.493   7.492  17.295  0.00  0.00    +0.000 C 
ATOM     13  C   UNL     1       2.731   6.396  18.294  0.00  0.00    +0.000 A 
ATOM     14  C   UNL     1       3.310   5.182  17.874  0.00  0.00    +0.000 A 
ATOM     15  C   UNL     1       3.417   4.163  18.793  0.00  0.00    +0.000 A 
ATOM     16  C   UNL     1       2.987   4.322  20.083  0.00  0.00    +0.000 A 
ATOM     17  C   UNL     1       2.438   5.506  20.530  0.00  0.00    +0.000 A 
ATOM     18  C   UNL     1       2.280   6.582  19.629  0.00  0.00    +0.000 A 
ATOM     19  O   UNL     1       3.149   3.197  20.829  0.00  0.00    +0.000 OA
ATOM     20  C   UNL     1       3.664   2.283  19.835  0.00  0.00    +0.000 C 
ATOM     21  O   UNL     1       3.912   2.921  18.562  0.00  0.00    +0.000 OA
ENDROOT
BRANCH   1  23
ATOM     22  C   UNL     1      -3.135  12.576  22.550  0.00  0.00    +0.000 C 
ATOM     23  O   UNL     1      -1.722  12.759  22.432  0.00  0.00    +0.000 OA
ENDBRANCH   1  23
BRANCH  10  24
ATOM     24  O   UNL     1      -0.053  12.538  20.091  0.00  0.00    +0.000 OA
BRANCH  24  25
ATOM     25  C   UNL     1      -1.205  13.033  19.401  0.00  0.00    +0.000 C 
BRANCH  25  26
ATOM     26  C   UNL     1      -1.564  12.082  18.259  0.00  0.00    +0.000 C 
BRANCH  26  27
ATOM     27  C   UNL     1      -2.678  11.083  18.569  0.00  0.00    +0.000 C 
BRANCH  27  28
ATOM     28  C   UNL     1      -3.641  10.912  17.400  0.00  0.00    +0.000 C 
BRANCH  28  29
ATOM     29  O   UNL     1      -4.649  11.924  17.469  0.00  0.00    +0.000 OA
BRANCH  29  30
ATOM     30  C   UNL     1      -5.496  11.713  18.543  0.00  0.00    +0.000 A 
ATOM     31  C   UNL     1      -6.279  10.569  18.509  0.00  0.00    +0.000 A 
ATOM     32  C   UNL     1      -7.125  10.323  19.586  0.00  0.00    +0.000 A 
ATOM     33  C   UNL     1      -7.158  11.222  20.648  0.00  0.00    +0.000 A 
ATOM     34  C   UNL     1      -6.343  12.337  20.592  0.00  0.00    +0.000 A 
ATOM     35  N   UNL     1      -5.509  12.598  19.563  0.00  0.00    +0.000 NA
ENDBRANCH  29  30
ENDBRANCH  28  29
ENDBRANCH  27  28
ENDBRANCH  26  27
ENDBRANCH  25  26
ENDBRANCH  24  25
ENDBRANCH  10  24
TORSDOF 8
ENDMDL
MODEL 4
REMARK VINA RESULT:      -8.3      3.661     10.386
REMARK  Name = 
REMARK  9 active torsions:
REMARK  status: ('A' for Active; 'I' for Inactive)
REMARK    1  A    between atoms: C_1  and  O_2
REMARK    2  A    between atoms: O_2  and  C_3
REMARK    3  A    between atoms: C_12  and  O_13
REMARK    4  A    between atoms: O_13  and  C_14
REMARK    5  A    between atoms: C_14  and  C_15
REMARK    6  A    between atoms: C_15  and  C_16
REMARK    7  A    between atoms: C_16  and  C_17
REMARK    8  A    between atoms: C_17  and  O_18
REMARK    9  A    between atoms: O_18  and  C_19
REMARK                            x       y       z     vdW  Elec       q    Type
REMARK                         _______ _______ _______ _____ _____    ______ ____
ROOT
ATOM      1  C   UNL     1      -1.086  11.383  22.358  0.00  0.00    +0.000 A 
ATOM      2  C   UNL     1      -0.984  10.300  23.233  0.00  0.00    +0.000 A 
ATOM      3  C   UNL     1      -0.275   9.160  22.876  0.00  0.00    +0.000 A 
ATOM      4  C   UNL     1       0.340   9.070  21.626  0.00  0.00    +0.000 A 
ATOM      5  C   UNL     1       1.004   7.905  21.262  0.00  0.00    +0.000 A 
ATOM      6  C   UNL     1       1.649   7.793  20.024  0.00  0.00    +0.000 A 
ATOM      7  N   UNL     1       1.602   8.851  19.167  0.00  0.00    +0.000 N 
ATOM      8  C   UNL     1       0.940   9.991  19.502  0.00  0.00    +0.000 A 
ATOM      9  C   UNL     1       0.285  10.151  20.734  0.00  0.00    +0.000 A 
ATOM     10  C   UNL     1      -0.413  11.330  21.119  0.00  0.00    +0.000 A 
ATOM     11  C   UNL     1       2.366   8.839  17.889  0.00  0.00    +0.000 C 
ATOM     12  C   UNL     1       2.340   7.472  17.234  0.00  0.00    +0.000 C 
ATOM     13  C   UNL     1       2.731   6.408  18.219  0.00  0.00    +0.000 A 
ATOM     14  C   UNL     1       3.370   5.237  17.765  0.00  0.00    +0.000 A 
ATOM     15  C   UNL     1       3.619   4.239  18.679  0.00  0.00    +0.000 A 
ATOM     16  C   UNL     1       3.270   4.378  19.995  0.00  0.00    +0.000 A 
ATOM     17  C   UNL     1       2.665   5.521  20.474  0.00  0.00    +0.000 A 
ATOM     18  C   UNL     1       2.362   6.573  19.581  0.00  0.00    +0.000 A 
ATOM     19  O   UNL     1       3.570   3.276  20.733  0.00  0.00    +0.000 OA
ATOM     20  C   UNL     1       4.082   2.394  19.710  0.00  0.00    +0.000 C 
ATOM     21  O   UNL     1       4.191   3.036  18.420  0.00  0.00    +0.000 OA
ENDROOT
BRANCH   1  23
ATOM     22  C   UNL     1      -1.288  13.549  23.322  0.00  0.00    +0.000 C 
ATOM     23  O   UNL     1      -1.895  12.456  22.631  0.00  0.00    +0.000 OA
ENDBRANCH   1  23
BRANCH  10  24
ATOM     24  O   UNL     1      -0.382  12.338  20.178  0.00  0.00    +0.000 OA
BRANCH  24  25
ATOM     25  C   UNL     1      -1.576  12.613  19.437  0.00  0.00    +0.000 C 
BRANCH  25  26
ATOM     26  C   UNL     1      -2.107  11.315  18.826  0.00  0.00    +0.000 C 
BRANCH  26  27
ATOM     27  C   UNL     1      -3.280  11.482  17.861  0.00  0.00    +0.000 C 
BRANCH  27  28
ATOM     28  C   UNL     1      -4.524  12.024  18.555  0.00  0.00    +0.000 C 
BRANCH  28  29
ATOM     29  O   UNL     1      -5.680  11.371  18.025  0.00  0.00    +0.000 OA
BRANCH  29  30
ATOM     30  C   UNL     1      -6.418  10.769  19.029  0.00  0.00    +0.000 A 
ATOM     31  C   UNL     1      -6.989  11.606  19.976  0.00  0.00    +0.000 A 
ATOM     32  C   UNL     1      -7.752  11.026  20.986  0.00  0.00    +0.000 A 
ATOM     33  C   UNL     1      -7.915   9.645  21.012  0.00  0.00    +0.000 A 
ATOM     34  C   UNL     1      -7.306   8.891  20.025  0.00  0.00    +0.000 A 
ATOM     35  N   UNL     1      -6.564   9.426  19.032  0.00  0.00    +0.000 NA
ENDBRANCH  29  30
ENDBRANCH  28  29
ENDBRANCH  27  28
ENDBRANCH  26  27
ENDBRANCH  25  26
ENDBRANCH  24  25
ENDBRANCH  10  24
TORSDOF 8
ENDMDL
MODEL 5
REMARK VINA RESULT:      -8.3      1.289      2.446
REMARK  Name = 
REMARK  9 active torsions:
REMARK  status: ('A' for Active; 'I' for Inactive)
REMARK    1  A    between atoms: C_1  and  O_2
REMARK    2  A    between atoms: O_2  and  C_3
REMARK    3  A    between atoms: C_12  and  O_13
REMARK    4  A    between atoms: O_13  and  C_14
REMARK    5  A    between atoms: C_14  and  C_15
REMARK    6  A    between atoms: C_15  and  C_16
REMARK    7  A    between atoms: C_16  and  C_17
REMARK    8  A    between atoms: C_17  and  O_18
REMARK    9  A    between atoms: O_18  and  C_19
REMARK                            x       y       z     vdW  Elec       q    Type
REMARK                         _______ _______ _______ _____ _____    ______ ____
ROOT
ATOM      1  C   UNL     1       3.594   4.019  19.814  0.00  0.00    +0.000 A 
ATOM      2  C   UNL     1       2.837   4.069  20.986  0.00  0.00    +0.000 A 
ATOM      3  C   UNL     1       2.095   5.199  21.307  0.00  0.00    +0.000 A 
ATOM      4  C   UNL     1       2.104   6.315  20.467  0.00  0.00    +0.000 A 
ATOM      5  C   UNL     1       1.397   7.457  20.824  0.00  0.00    +0.000 A 
ATOM      6  C   UNL     1       1.369   8.583  19.993  0.00  0.00    +0.000 A 
ATOM      7  N   UNL     1       2.065   8.547  18.822  0.00  0.00    +0.000 N 
ATOM      8  C   UNL     1       2.776   7.443  18.468  0.00  0.00    +0.000 A 
ATOM      9  C   UNL     1       2.828   6.289  19.266  0.00  0.00    +0.000 A 
ATOM     10  C   UNL     1       3.558   5.115  18.925  0.00  0.00    +0.000 A 
ATOM     11  C   UNL     1       1.978   9.663  17.841  0.00  0.00    +0.000 C 
ATOM     12  C   UNL     1       1.942  11.013  18.531  0.00  0.00    +0.000 C 
ATOM     13  C   UNL     1       0.892  11.027  19.606  0.00  0.00    +0.000 A 
ATOM     14  C   UNL     1       0.246  12.235  19.935  0.00  0.00    +0.000 A 
ATOM     15  C   UNL     1      -0.633  12.232  20.994  0.00  0.00    +0.000 A 
ATOM     16  C   UNL     1      -0.886  11.090  21.703  0.00  0.00    +0.000 A 
ATOM     17  C   UNL     1      -0.287   9.887  21.390  0.00  0.00    +0.000 A 
ATOM     18  C   UNL     1       0.642   9.829  20.329  0.00  0.00    +0.000 A 
ATOM     19  O   UNL     1      -1.756  11.294  22.727  0.00  0.00    +0.000 OA
ATOM     20  C   UNL     1      -1.965  12.720  22.627  0.00  0.00    +0.000 C 
ATOM     21  O   UNL     1      -1.316  13.302  21.474  0.00  0.00    +0.000 OA
ENDROOT
BRANCH   1  23
ATOM     22  C   UNL     1       4.547   1.971  20.560  0.00  0.00    +0.000 C 
ATOM     23  O   UNL     1       4.442   2.975  19.549  0.00  0.00    +0.000 OA
ENDBRANCH   1  23
BRANCH  10  24
ATOM     24  O   UNL     1       4.211   5.187  17.714  0.00  0.00    +0.000 OA
BRANCH  24  25
ATOM     25  C   UNL     1       3.687   4.436  16.613  0.00  0.00    +0.000 C 
BRANCH  25  26
ATOM     26  C   UNL     1       4.811   3.620  15.973  0.00  0.00    +0.000 C 
BRANCH  26  27
ATOM     27  C   UNL     1       5.257   4.098  14.592  0.00  0.00    +0.000 C 
BRANCH  27  28
ATOM     28  C   UNL     1       6.499   4.978  14.660  0.00  0.00    +0.000 C 
BRANCH  28  29
ATOM     29  O   UNL     1       7.385   4.466  15.659  0.00  0.00    +0.000 OA
BRANCH  29  30
ATOM     30  C   UNL     1       7.532   5.362  16.703  0.00  0.00    +0.000 A 
ATOM     31  C   UNL     1       7.648   4.828  17.977  0.00  0.00    +0.000 A 
ATOM     32  C   UNL     1       7.817   5.707  19.043  0.00  0.00    +0.000 A 
ATOM     33  C   UNL     1       7.862   7.076  18.798  0.00  0.00    +0.000 A 
ATOM     34  C   UNL     1       7.735   7.516  17.494  0.00  0.00    +0.000 A 
ATOM     35  N   UNL     1       7.575   6.686  16.441  0.00  0.00    +0.000 NA
ENDBRANCH  29  30
ENDBRANCH  28  29
ENDBRANCH  27  28
ENDBRANCH  26  27
ENDBRANCH  25  26
ENDBRANCH  24  25
ENDBRANCH  10  24
TORSDOF 8
ENDMDL
MODEL 6
REMARK VINA RESULT:      -8.3      3.310      9.368
REMARK  Name = 
REMARK  9 active torsions:
REMARK  status: ('A' for Active; 'I' for Inactive)
REMARK    1  A    between atoms: C_1  and  O_2
REMARK    2  A    between atoms: O_2  and  C_3
REMARK    3  A    between atoms: C_12  and  O_13
REMARK    4  A    between atoms: O_13  and  C_14
REMARK    5  A    between atoms: C_14  and  C_15
REMARK    6  A    between atoms: C_15  and  C_16
REMARK    7  A    between atoms: C_16  and  C_17
REMARK    8  A    between atoms: C_17  and  O_18
REMARK    9  A    between atoms: O_18  and  C_19
REMARK                            x       y       z     vdW  Elec       q    Type
REMARK                         _______ _______ _______ _____ _____    ______ ____
ROOT
ATOM      1  C   UNL     1      -1.181  11.881  22.582  0.00  0.00    +0.000 A 
ATOM      2  C   UNL     1      -1.216  10.735  23.379  0.00  0.00    +0.000 A 
ATOM      3  C   UNL     1      -0.571   9.571  22.982  0.00  0.00    +0.000 A 
ATOM      4  C   UNL     1       0.117   9.520  21.767  0.00  0.00    +0.000 A 
ATOM      5  C   UNL     1       0.716   8.334  21.359  0.00  0.00    +0.000 A 
ATOM      6  C   UNL     1       1.430   8.258  20.157  0.00  0.00    +0.000 A 
ATOM      7  N   UNL     1       1.517   9.374  19.378  0.00  0.00    +0.000 N 
ATOM      8  C   UNL     1       0.920  10.535  19.756  0.00  0.00    +0.000 A 
ATOM      9  C   UNL     1       0.199  10.661  20.955  0.00  0.00    +0.000 A 
ATOM     10  C   UNL     1      -0.435  11.861  21.384  0.00  0.00    +0.000 A 
ATOM     11  C   UNL     1       2.359   9.391  18.152  0.00  0.00    +0.000 C 
ATOM     12  C   UNL     1       2.276   8.079  17.396  0.00  0.00    +0.000 C 
ATOM     13  C   UNL     1       2.523   6.922  18.322  0.00  0.00    +0.000 A 
ATOM     14  C   UNL     1       3.103   5.739  17.822  0.00  0.00    +0.000 A 
ATOM     15  C   UNL     1       3.218   4.664  18.674  0.00  0.00    +0.000 A 
ATOM     16  C   UNL     1       2.796   4.738  19.973  0.00  0.00    +0.000 A 
ATOM     17  C   UNL     1       2.246   5.890  20.498  0.00  0.00    +0.000 A 
ATOM     18  C   UNL     1       2.079   7.020  19.668  0.00  0.00    +0.000 A 
ATOM     19  O   UNL     1       2.966   3.569  20.644  0.00  0.00    +0.000 OA
ATOM     20  C   UNL     1       3.477   2.722  19.591  0.00  0.00    +0.000 C 
ATOM     21  O   UNL     1       3.716   3.440  18.360  0.00  0.00    +0.000 OA
ENDROOT
BRANCH   1  23
ATOM     22  C   UNL     1      -3.122  12.768  23.632  0.00  0.00    +0.000 C 
ATOM     23  O   UNL     1      -1.926  12.991  22.883  0.00  0.00    +0.000 OA
ENDBRANCH   1  23
BRANCH  10  24
ATOM     24  O   UNL     1      -0.269  12.926  20.524  0.00  0.00    +0.000 OA
BRANCH  24  25
ATOM     25  C   UNL     1      -1.437  13.611  20.058  0.00  0.00    +0.000 C 
BRANCH  25  26
ATOM     26  C   UNL     1      -2.400  12.605  19.427  0.00  0.00    +0.000 C 
BRANCH  26  27
ATOM     27  C   UNL     1      -3.813  12.603  20.009  0.00  0.00    +0.000 C 
BRANCH  27  28
ATOM     28  C   UNL     1      -4.871  12.309  18.953  0.00  0.00    +0.000 C 
BRANCH  28  29
ATOM     29  O   UNL     1      -4.857  10.912  18.648  0.00  0.00    +0.000 OA
BRANCH  29  30
ATOM     30  C   UNL     1      -4.151  10.662  17.484  0.00  0.00    +0.000 A 
ATOM     31  C   UNL     1      -3.153   9.701  17.550  0.00  0.00    +0.000 A 
ATOM     32  C   UNL     1      -2.441   9.418  16.388  0.00  0.00    +0.000 A 
ATOM     33  C   UNL     1      -2.749  10.098  15.214  0.00  0.00    +0.000 A 
ATOM     34  C   UNL     1      -3.760  11.041  15.246  0.00  0.00    +0.000 A 
ATOM     35  N   UNL     1      -4.469  11.334  16.357  0.00  0.00    +0.000 NA
ENDBRANCH  29  30
ENDBRANCH  28  29
ENDBRANCH  27  28
ENDBRANCH  26  27
ENDBRANCH  25  26
ENDBRANCH  24  25
ENDBRANCH  10  24
TORSDOF 8
ENDMDL
MODEL 7
REMARK VINA RESULT:      -8.3      3.257     10.967
REMARK  Name = 
REMARK  9 active torsions:
REMARK  status: ('A' for Active; 'I' for Inactive)
REMARK    1  A    between atoms: C_1  and  O_2
REMARK    2  A    between atoms: O_2  and  C_3
REMARK    3  A    between atoms: C_12  and  O_13
REMARK    4  A    between atoms: O_13  and  C_14
REMARK    5  A    between atoms: C_14  and  C_15
REMARK    6  A    between atoms: C_15  and  C_16
REMARK    7  A    between atoms: C_16  and  C_17
REMARK    8  A    between atoms: C_17  and  O_18
REMARK    9  A    between atoms: O_18  and  C_19
REMARK                            x       y       z     vdW  Elec       q    Type
REMARK                         _______ _______ _______ _____ _____    ______ ____
ROOT
ATOM      1  C   UNL     1      -1.088  11.623  22.436  0.00  0.00    +0.000 A 
ATOM      2  C   UNL     1      -1.058  10.523  23.294  0.00  0.00    +0.000 A 
ATOM      3  C   UNL     1      -0.391   9.358  22.936  0.00  0.00    +0.000 A 
ATOM      4  C   UNL     1       0.254   9.261  21.701  0.00  0.00    +0.000 A 
ATOM      5  C   UNL     1       0.876   8.073  21.336  0.00  0.00    +0.000 A 
ATOM      6  C   UNL     1       1.548   7.952  20.114  0.00  0.00    +0.000 A 
ATOM      7  N   UNL     1       1.572   9.025  19.273  0.00  0.00    +0.000 N 
ATOM      8  C   UNL     1       0.953  10.187  19.610  0.00  0.00    +0.000 A 
ATOM      9  C   UNL     1       0.272  10.357  20.827  0.00  0.00    +0.000 A 
ATOM     10  C   UNL     1      -0.384  11.560  21.213  0.00  0.00    +0.000 A 
ATOM     11  C   UNL     1       2.370   8.999  18.017  0.00  0.00    +0.000 C 
ATOM     12  C   UNL     1       2.301   7.646  17.337  0.00  0.00    +0.000 C 
ATOM     13  C   UNL     1       2.617   6.549  18.314  0.00  0.00    +0.000 A 
ATOM     14  C   UNL     1       3.216   5.359  17.857  0.00  0.00    +0.000 A 
ATOM     15  C   UNL     1       3.395   4.335  18.760  0.00  0.00    +0.000 A 
ATOM     16  C   UNL     1       3.017   4.469  20.069  0.00  0.00    +0.000 A 
ATOM     17  C   UNL     1       2.450   5.630  20.551  0.00  0.00    +0.000 A 
ATOM     18  C   UNL     1       2.219   6.708  19.669  0.00  0.00    +0.000 A 
ATOM     19  O   UNL     1       3.247   3.343  20.795  0.00  0.00    +0.000 OA
ATOM     20  C   UNL     1       3.747   2.456  19.771  0.00  0.00    +0.000 C 
ATOM     21  O   UNL     1       3.920   3.112  18.495  0.00  0.00    +0.000 OA
ENDROOT
BRANCH   1  23
ATOM     22  C   UNL     1      -1.218  13.783  23.424  0.00  0.00    +0.000 C 
ATOM     23  O   UNL     1      -1.856  12.726  22.705  0.00  0.00    +0.000 OA
ENDBRANCH   1  23
BRANCH  10  24
ATOM     24  O   UNL     1      -0.283  12.580  20.292  0.00  0.00    +0.000 OA
BRANCH  24  25
ATOM     25  C   UNL     1      -1.485  13.077  19.693  0.00  0.00    +0.000 C 
BRANCH  25  26
ATOM     26  C   UNL     1      -2.123  11.978  18.843  0.00  0.00    +0.000 C 
BRANCH  26  27
ATOM     27  C   UNL     1      -3.639  11.848  18.979  0.00  0.00    +0.000 C 
BRANCH  27  28
ATOM     28  C   UNL     1      -4.197  12.736  20.085  0.00  0.00    +0.000 C 
BRANCH  28  29
ATOM     29  O   UNL     1      -5.619  12.596  20.128  0.00  0.00    +0.000 OA
BRANCH  29  30
ATOM     30  C   UNL     1      -6.081  12.579  21.433  0.00  0.00    +0.000 A 
ATOM     31  C   UNL     1      -5.213  13.041  22.411  0.00  0.00    +0.000 A 
ATOM     32  C   UNL     1      -5.660  13.052  23.729  0.00  0.00    +0.000 A 
ATOM     33  C   UNL     1      -6.946  12.604  24.019  0.00  0.00    +0.000 A 
ATOM     34  C   UNL     1      -7.738  12.159  22.977  0.00  0.00    +0.000 A 
ATOM     35  N   UNL     1      -7.333  12.142  21.690  0.00  0.00    +0.000 NA
ENDBRANCH  29  30
ENDBRANCH  28  29
ENDBRANCH  27  28
ENDBRANCH  26  27
ENDBRANCH  25  26
ENDBRANCH  24  25
ENDBRANCH  10  24
TORSDOF 8
ENDMDL
MODEL 8
REMARK VINA RESULT:      -8.3      1.410      1.737
REMARK  Name = 
REMARK  9 active torsions:
REMARK  status: ('A' for Active; 'I' for Inactive)
REMARK    1  A    between atoms: C_1  and  O_2
REMARK    2  A    between atoms: O_2  and  C_3
REMARK    3  A    between atoms: C_12  and  O_13
REMARK    4  A    between atoms: O_13  and  C_14
REMARK    5  A    between atoms: C_14  and  C_15
REMARK    6  A    between atoms: C_15  and  C_16
REMARK    7  A    between atoms: C_16  and  C_17
REMARK    8  A    between atoms: C_17  and  O_18
REMARK    9  A    between atoms: O_18  and  C_19
REMARK                            x       y       z     vdW  Elec       q    Type
REMARK                         _______ _______ _______ _____ _____    ______ ____
ROOT
ATOM      1  C   UNL     1       3.337   3.887  19.420  0.00  0.00    +0.000 A 
ATOM      2  C   UNL     1       2.699   3.895  20.662  0.00  0.00    +0.000 A 
ATOM      3  C   UNL     1       2.028   5.025  21.111  0.00  0.00    +0.000 A 
ATOM      4  C   UNL     1       1.989   6.183  20.332  0.00  0.00    +0.000 A 
ATOM      5  C   UNL     1       1.356   7.323  20.815  0.00  0.00    +0.000 A 
ATOM      6  C   UNL     1       1.283   8.492  20.049  0.00  0.00    +0.000 A 
ATOM      7  N   UNL     1       1.861   8.500  18.814  0.00  0.00    +0.000 N 
ATOM      8  C   UNL     1       2.500   7.399  18.337  0.00  0.00    +0.000 A 
ATOM      9  C   UNL     1       2.593   6.203  19.066  0.00  0.00    +0.000 A 
ATOM     10  C   UNL     1       3.250   5.030  18.596  0.00  0.00    +0.000 A 
ATOM     11  C   UNL     1       1.715   9.669  17.905  0.00  0.00    +0.000 C 
ATOM     12  C   UNL     1       1.787  10.981  18.663  0.00  0.00    +0.000 C 
ATOM     13  C   UNL     1       0.847  10.964  19.835  0.00  0.00    +0.000 A 
ATOM     14  C   UNL     1       0.274  12.169  20.286  0.00  0.00    +0.000 A 
ATOM     15  C   UNL     1      -0.498  12.132  21.426  0.00  0.00    +0.000 A 
ATOM     16  C   UNL     1      -0.718  10.961  22.097  0.00  0.00    +0.000 A 
ATOM     17  C   UNL     1      -0.189   9.761  21.666  0.00  0.00    +0.000 A 
ATOM     18  C   UNL     1       0.631   9.737  20.517  0.00  0.00    +0.000 A 
ATOM     19  O   UNL     1      -1.478  11.132  23.211  0.00  0.00    +0.000 OA
ATOM     20  C   UNL     1      -1.651  12.567  23.204  0.00  0.00    +0.000 C 
ATOM     21  O   UNL     1      -1.099  13.192  22.024  0.00  0.00    +0.000 OA
ENDROOT
BRANCH   1  23
ATOM     22  C   UNL     1       3.458   1.772  18.339  0.00  0.00    +0.000 C 
ATOM     23  O   UNL     1       4.123   2.838  19.020  0.00  0.00    +0.000 OA
ENDBRANCH   1  23
BRANCH  10  24
ATOM     24  O   UNL     1       3.785   5.151  17.331  0.00  0.00    +0.000 OA
BRANCH  24  25
ATOM     25  C   UNL     1       5.091   5.720  17.198  0.00  0.00    +0.000 C 
BRANCH  25  26
ATOM     26  C   UNL     1       6.111   4.605  16.961  0.00  0.00    +0.000 C 
BRANCH  26  27
ATOM     27  C   UNL     1       5.949   3.843  15.648  0.00  0.00    +0.000 C 
BRANCH  27  28
ATOM     28  C   UNL     1       6.042   4.760  14.434  0.00  0.00    +0.000 C 
BRANCH  28  29
ATOM     29  O   UNL     1       6.866   4.143  13.441  0.00  0.00    +0.000 OA
BRANCH  29  30
ATOM     30  C   UNL     1       6.106   3.413  12.543  0.00  0.00    +0.000 A 
ATOM     31  C   UNL     1       4.868   3.934  12.201  0.00  0.00    +0.000 A 
ATOM     32  C   UNL     1       4.092   3.229  11.285  0.00  0.00    +0.000 A 
ATOM     33  C   UNL     1       4.577   2.039  10.752  0.00  0.00    +0.000 A 
ATOM     34  C   UNL     1       5.823   1.597  11.155  0.00  0.00    +0.000 A 
ATOM     35  N   UNL     1       6.599   2.262  12.037  0.00  0.00    +0.000 NA
ENDBRANCH  29  30
ENDBRANCH  28  29
ENDBRANCH  27  28
ENDBRANCH  26  27
ENDBRANCH  25  26
ENDBRANCH  24  25
ENDBRANCH  10  24
TORSDOF 8
ENDMDL
MODEL 9
REMARK VINA RESULT:      -8.3      2.880      3.943
REMARK  Name = 
REMARK  9 active torsions:
REMARK  status: ('A' for Active; 'I' for Inactive)
REMARK    1  A    between atoms: C_1  and  O_2
REMARK    2  A    between atoms: O_2  and  C_3
REMARK    3  A    between atoms: C_12  and  O_13
REMARK    4  A    between atoms: O_13  and  C_14
REMARK    5  A    between atoms: C_14  and  C_15
REMARK    6  A    between atoms: C_15  and  C_16
REMARK    7  A    between atoms: C_16  and  C_17
REMARK    8  A    between atoms: C_17  and  O_18
REMARK    9  A    between atoms: O_18  and  C_19
REMARK                            x       y       z     vdW  Elec       q    Type
REMARK                         _______ _______ _______ _____ _____    ______ ____
ROOT
ATOM      1  C   UNL     1       3.481   4.116  19.172  0.00  0.00    +0.000 A 
ATOM      2  C   UNL     1       2.842   4.061  20.412  0.00  0.00    +0.000 A 
ATOM      3  C   UNL     1       2.144   5.157  20.903  0.00  0.00    +0.000 A 
ATOM      4  C   UNL     1       2.080   6.344  20.170  0.00  0.00    +0.000 A 
ATOM      5  C   UNL     1       1.420   7.449  20.695  0.00  0.00    +0.000 A 
ATOM      6  C   UNL     1       1.321   8.645  19.975  0.00  0.00    +0.000 A 
ATOM      7  N   UNL     1       1.899   8.714  18.743  0.00  0.00    +0.000 N 
ATOM      8  C   UNL     1       2.563   7.647  18.224  0.00  0.00    +0.000 A 
ATOM      9  C   UNL     1       2.683   6.426  18.907  0.00  0.00    +0.000 A 
ATOM     10  C   UNL     1       3.367   5.288  18.392  0.00  0.00    +0.000 A 
ATOM     11  C   UNL     1       1.726   9.914  17.879  0.00  0.00    +0.000 C 
ATOM     12  C   UNL     1       1.768  11.196  18.687  0.00  0.00    +0.000 C 
ATOM     13  C   UNL     1       0.828  11.113  19.856  0.00  0.00    +0.000 A 
ATOM     14  C   UNL     1       0.226  12.286  20.353  0.00  0.00    +0.000 A 
ATOM     15  C   UNL     1      -0.545  12.187  21.489  0.00  0.00    +0.000 A 
ATOM     16  C   UNL     1      -0.738  10.986  22.114  0.00  0.00    +0.000 A 
ATOM     17  C   UNL     1      -0.181   9.816  21.638  0.00  0.00    +0.000 A 
ATOM     18  C   UNL     1       0.640   9.855  20.490  0.00  0.00    +0.000 A 
ATOM     19  O   UNL     1      -1.502  11.096  23.232  0.00  0.00    +0.000 OA
ATOM     20  C   UNL     1      -1.708  12.526  23.281  0.00  0.00    +0.000 C 
ATOM     21  O   UNL     1      -1.170  13.209  22.127  0.00  0.00    +0.000 OA
ENDROOT
BRANCH   1  23
ATOM     22  C   UNL     1       3.634   1.971  18.155  0.00  0.00    +0.000 C 
ATOM     23  O   UNL     1       4.291   3.101  18.733  0.00  0.00    +0.000 OA
ENDBRANCH   1  23
BRANCH  10  24
ATOM     24  O   UNL     1       3.900   5.469  17.134  0.00  0.00    +0.000 OA
BRANCH  24  25
ATOM     25  C   UNL     1       4.871   6.506  16.950  0.00  0.00    +0.000 C 
BRANCH  25  26
ATOM     26  C   UNL     1       6.034   6.293  17.921  0.00  0.00    +0.000 C 
BRANCH  26  27
ATOM     27  C   UNL     1       7.422   6.562  17.342  0.00  0.00    +0.000 C 
BRANCH  27  28
ATOM     28  C   UNL     1       7.788   8.041  17.386  0.00  0.00    +0.000 C 
BRANCH  28  29
ATOM     29  O   UNL     1       8.374   8.343  18.654  0.00  0.00    +0.000 OA
BRANCH  29  30
ATOM     30  C   UNL     1       8.754   9.672  18.725  0.00  0.00    +0.000 A 
ATOM     31  C   UNL     1       8.341  10.499  17.692  0.00  0.00    +0.000 A 
ATOM     32  C   UNL     1       8.693  11.844  17.749  0.00  0.00    +0.000 A 
ATOM     33  C   UNL     1       9.439  12.310  18.828  0.00  0.00    +0.000 A 
ATOM     34  C   UNL     1       9.807  11.410  19.811  0.00  0.00    +0.000 A 
ATOM     35  N   UNL     1       9.476  10.101  19.783  0.00  0.00    +0.000 NA
ENDBRANCH  29  30
ENDBRANCH  28  29
ENDBRANCH  27  28
ENDBRANCH  26  27
ENDBRANCH  25  26
ENDBRANCH  24  25
ENDBRANCH  10  24
TORSDOF 8
ENDMDL
