MODEL 1
REMARK VINA RESULT:      -8.6      0.000      0.000
REMARK  Name = 
REMARK  5 active torsions:
REMARK  status: ('A' for Active; 'I' for Inactive)
REMARK    1  A    between atoms: C_1  and  C_2
REMARK    2  A    between atoms: C_7  and  N_8
REMARK    3  A    between atoms: C_9  and  C_11
REMARK    4  A    between atoms: C_11  and  N_12
REMARK    5  A    between atoms: C_14  and  C_15
REMARK                            x       y       z     vdW  Elec       q    Type
REMARK                         _______ _______ _______ _____ _____    ______ ____
ROOT
ATOM      1  C   UNL     1       3.250   4.453  19.995  0.00  0.00    +0.000 C 
ENDROOT
BRANCH   1   2
ATOM      2  N   UNL     1       4.201   4.787  18.942  0.00  0.00    +0.000 N 
ATOM      3  N   UNL     1       5.421   5.262  19.363  0.00  0.00    +0.000 NA
ATOM      4  C   UNL     1       6.390   5.384  18.510  0.00  0.00    +0.000 A 
ATOM      5  C   UNL     1       7.712   5.908  19.022  0.00  0.00    +0.000 C 
ATOM      6  C   UNL     1       6.261   5.015  17.089  0.00  0.00    +0.000 A 
ATOM      7  C   UNL     1       7.332   5.087  16.186  0.00  0.00    +0.000 A 
ATOM      8  C   UNL     1       7.152   4.682  14.860  0.00  0.00    +0.000 A 
ATOM      9  C   UNL     1       5.911   4.215  14.435  0.00  0.00    +0.000 A 
ATOM     10  C   UNL     1       4.843   4.151  15.333  0.00  0.00    +0.000 A 
ATOM     11  C   UNL     1       5.020   4.552  16.661  0.00  0.00    +0.000 A 
ATOM     12  C   UNL     1       3.909   4.450  17.628  0.00  0.00    +0.000 A 
ATOM     13  O   UNL     1       2.798   4.069  17.264  0.00  0.00    +0.000 OA
ENDBRANCH   1   2
BRANCH   1  15
ATOM     14  N   UNL     1       2.569   6.840  20.077  0.00  0.00    +0.000 N 
ATOM     15  C   UNL     1       2.198   5.515  20.306  0.00  0.00    +0.000 C 
ATOM     16  O   UNL     1       1.053   5.139  20.590  0.00  0.00    +0.000 OA
ATOM     17  H   UNL     1       3.460   6.991  19.615  0.00  0.00    +0.000 HD
BRANCH  14  24
ATOM     18  C   UNL     1       2.000   8.692  17.802  0.00  0.00    +0.000 C 
ATOM     19  C   UNL     1       1.412   8.836  19.180  0.00  0.00    +0.000 A 
ATOM     20  C   UNL     1       0.526   9.916  19.389  0.00  0.00    +0.000 A 
ATOM     21  C   UNL     1      -0.069  10.137  20.630  0.00  0.00    +0.000 A 
ATOM     22  C   UNL     1       0.236   9.298  21.688  0.00  0.00    +0.000 A 
ATOM     23  C   UNL     1       1.120   8.235  21.499  0.00  0.00    +0.000 A 
ATOM     24  C   UNL     1       1.706   7.963  20.250  0.00  0.00    +0.000 A 
ENDBRANCH  14  24
ENDBRANCH   1  15
TORSDOF 3
ENDMDL
MODEL 2
REMARK VINA RESULT:      -7.7      2.570      7.375
REMARK  Name = 
REMARK  5 active torsions:
REMARK  status: ('A' for Active; 'I' for Inactive)
REMARK    1  A    between atoms: C_1  and  C_2
REMARK    2  A    between atoms: C_7  and  N_8
REMARK    3  A    between atoms: C_9  and  C_11
REMARK    4  A    between atoms: C_11  and  N_12
REMARK    5  A    between atoms: C_14  and  C_15
REMARK                            x       y       z     vdW  Elec       q    Type
REMARK                         _______ _______ _______ _____ _____    ______ ____
ROOT
ATOM      1  C   UNL     1       6.762   6.200  17.404  0.00  0.00    +0.000 C 
ENDROOT
BRANCH   1   2
ATOM      2  N   UNL     1       5.508   6.121  18.144  0.00  0.00    +0.000 N 
ATOM      3  N   UNL     1       4.536   7.020  17.775  0.00  0.00    +0.000 NA
ATOM      4  C   UNL     1       3.330   6.883  18.232  0.00  0.00    +0.000 A 
ATOM      5  C   UNL     1       2.296   7.896  17.795  0.00  0.00    +0.000 C 
ATOM      6  C   UNL     1       2.929   5.783  19.127  0.00  0.00    +0.000 A 
ATOM      7  C   UNL     1       1.609   5.602  19.565  0.00  0.00    +0.000 A 
ATOM      8  C   UNL     1       1.290   4.513  20.380  0.00  0.00    +0.000 A 
ATOM      9  C   UNL     1       2.281   3.612  20.762  0.00  0.00    +0.000 A 
ATOM     10  C   UNL     1       3.597   3.797  20.332  0.00  0.00    +0.000 A 
ATOM     11  C   UNL     1       3.920   4.884  19.514  0.00  0.00    +0.000 A 
ATOM     12  C   UNL     1       5.300   5.066  19.021  0.00  0.00    +0.000 A 
ATOM     13  O   UNL     1       6.194   4.299  19.372  0.00  0.00    +0.000 OA
ENDBRANCH   1   2
BRANCH   1  15
ATOM     14  N   UNL     1       6.210   5.519  15.081  0.00  0.00    +0.000 N 
ATOM     15  C   UNL     1       6.917   5.219  16.245  0.00  0.00    +0.000 C 
ATOM     16  O   UNL     1       7.761   4.319  16.348  0.00  0.00    +0.000 OA
ATOM     17  H   UNL     1       5.742   6.420  15.051  0.00  0.00    +0.000 HD
BRANCH  14  24
ATOM     18  C   UNL     1       8.465   5.897  13.158  0.00  0.00    +0.000 C 
ATOM     19  C   UNL     1       7.344   4.911  12.967  0.00  0.00    +0.000 A 
ATOM     20  C   UNL     1       7.383   4.113  11.802  0.00  0.00    +0.000 A 
ATOM     21  C   UNL     1       6.391   3.173  11.532  0.00  0.00    +0.000 A 
ATOM     22  C   UNL     1       5.328   3.037  12.408  0.00  0.00    +0.000 A 
ATOM     23  C   UNL     1       5.269   3.830  13.556  0.00  0.00    +0.000 A 
ATOM     24  C   UNL     1       6.275   4.758  13.876  0.00  0.00    +0.000 A 
ENDBRANCH  14  24
ENDBRANCH   1  15
TORSDOF 3
ENDMDL
MODEL 3
REMARK VINA RESULT:      -7.5      2.286      7.328
REMARK  Name = 
REMARK  5 active torsions:
REMARK  status: ('A' for Active; 'I' for Inactive)
REMARK    1  A    between atoms: C_1  and  C_2
REMARK    2  A    between atoms: C_7  and  N_8
REMARK    3  A    between atoms: C_9  and  C_11
REMARK    4  A    between atoms: C_11  and  N_12
REMARK    5  A    between atoms: C_14  and  C_15
REMARK                            x       y       z     vdW  Elec       q    Type
REMARK                         _______ _______ _______ _____ _____    ______ ____
ROOT
ATOM      1  C   UNL     1       6.244   6.254  17.448  0.00  0.00    +0.000 C 
ENDROOT
BRANCH   1   2
ATOM      2  N   UNL     1       5.120   5.952  18.326  0.00  0.00    +0.000 N 
ATOM      3  N   UNL     1       4.121   6.896  18.369  0.00  0.00    +0.000 NA
ATOM      4  C   UNL     1       2.999   6.615  18.956  0.00  0.00    +0.000 A 
ATOM      5  C   UNL     1       1.932   7.685  18.975  0.00  0.00    +0.000 C 
ATOM      6  C   UNL     1       2.722   5.307  19.576  0.00  0.00    +0.000 A 
ATOM      7  C   UNL     1       1.483   4.988  20.152  0.00  0.00    +0.000 A 
ATOM      8  C   UNL     1       1.273   3.713  20.685  0.00  0.00    +0.000 A 
ATOM      9  C   UNL     1       2.292   2.765  20.652  0.00  0.00    +0.000 A 
ATOM     10  C   UNL     1       3.529   3.087  20.086  0.00  0.00    +0.000 A 
ATOM     11  C   UNL     1       3.742   4.360  19.548  0.00  0.00    +0.000 A 
ATOM     12  C   UNL     1       5.030   4.697  18.911  0.00  0.00    +0.000 A 
ATOM     13  O   UNL     1       5.952   3.883  18.899  0.00  0.00    +0.000 OA
ENDBRANCH   1   2
BRANCH   1  15
ATOM     14  N   UNL     1       6.677   4.883  15.423  0.00  0.00    +0.000 N 
ATOM     15  C   UNL     1       6.019   5.988  15.961  0.00  0.00    +0.000 C 
ATOM     16  O   UNL     1       5.164   6.661  15.369  0.00  0.00    +0.000 OA
ATOM     17  H   UNL     1       7.159   4.275  16.078  0.00  0.00    +0.000 HD
BRANCH  14  24
ATOM     18  C   UNL     1       8.609   5.775  13.324  0.00  0.00    +0.000 C 
ATOM     19  C   UNL     1       7.459   4.837  13.075  0.00  0.00    +0.000 A 
ATOM     20  C   UNL     1       7.306   4.347  11.759  0.00  0.00    +0.000 A 
ATOM     21  C   UNL     1       6.272   3.476  11.424  0.00  0.00    +0.000 A 
ATOM     22  C   UNL     1       5.357   3.104  12.394  0.00  0.00    +0.000 A 
ATOM     23  C   UNL     1       5.488   3.592  13.696  0.00  0.00    +0.000 A 
ATOM     24  C   UNL     1       6.544   4.440  14.073  0.00  0.00    +0.000 A 
ENDBRANCH  14  24
ENDBRANCH   1  15
TORSDOF 3
ENDMDL
MODEL 4
REMARK VINA RESULT:      -7.3      0.624      1.507
REMARK  Name = 
REMARK  5 active torsions:
REMARK  status: ('A' for Active; 'I' for Inactive)
REMARK    1  A    between atoms: C_1  and  C_2
REMARK    2  A    between atoms: C_7  and  N_8
REMARK    3  A    between atoms: C_9  and  C_11
REMARK    4  A    between atoms: C_11  and  N_12
REMARK    5  A    between atoms: C_14  and  C_15
REMARK                            x       y       z     vdW  Elec       q    Type
REMARK                         _______ _______ _______ _____ _____    ______ ____
ROOT
ATOM      1  C   UNL     1       3.137   5.011  20.202  0.00  0.00    +0.000 C 
ENDROOT
BRANCH   1   2
ATOM      2  N   UNL     1       4.147   5.150  19.161  0.00  0.00    +0.000 N 
ATOM      3  N   UNL     1       5.411   5.479  19.590  0.00  0.00    +0.000 NA
ATOM      4  C   UNL     1       6.406   5.418  18.761  0.00  0.00    +0.000 A 
ATOM      5  C   UNL     1       7.775   5.788  19.281  0.00  0.00    +0.000 C 
ATOM      6  C   UNL     1       6.258   4.986  17.359  0.00  0.00    +0.000 A 
ATOM      7  C   UNL     1       7.348   4.858  16.486  0.00  0.00    +0.000 A 
ATOM      8  C   UNL     1       7.143   4.403  15.180  0.00  0.00    +0.000 A 
ATOM      9  C   UNL     1       5.859   4.084  14.745  0.00  0.00    +0.000 A 
ATOM     10  C   UNL     1       4.773   4.219  15.614  0.00  0.00    +0.000 A 
ATOM     11  C   UNL     1       4.975   4.671  16.921  0.00  0.00    +0.000 A 
ATOM     12  C   UNL     1       3.839   4.778  17.860  0.00  0.00    +0.000 A 
ATOM     13  O   UNL     1       2.695   4.530  17.485  0.00  0.00    +0.000 OA
ENDBRANCH   1   2
BRANCH   1  15
ATOM     14  N   UNL     1       2.427   7.355  19.789  0.00  0.00    +0.000 N 
ATOM     15  C   UNL     1       2.052   6.085  20.228  0.00  0.00    +0.000 C 
ATOM     16  O   UNL     1       0.891   5.739  20.484  0.00  0.00    +0.000 OA
ATOM     17  H   UNL     1       3.352   7.441  19.378  0.00  0.00    +0.000 HD
BRANCH  14  24
ATOM     18  C   UNL     1       1.449   8.769  22.233  0.00  0.00    +0.000 C 
ATOM     19  C   UNL     1       1.086   9.159  20.825  0.00  0.00    +0.000 A 
ATOM     20  C   UNL     1       0.235  10.275  20.669  0.00  0.00    +0.000 A 
ATOM     21  C   UNL     1      -0.162  10.715  19.408  0.00  0.00    +0.000 A 
ATOM     22  C   UNL     1       0.262  10.025  18.284  0.00  0.00    +0.000 A 
ATOM     23  C   UNL     1       1.091   8.911  18.425  0.00  0.00    +0.000 A 
ATOM     24  C   UNL     1       1.541   8.468  19.682  0.00  0.00    +0.000 A 
ENDBRANCH  14  24
ENDBRANCH   1  15
TORSDOF 3
ENDMDL
MODEL 5
REMARK VINA RESULT:      -7.2      2.469      7.206
REMARK  Name = 
REMARK  5 active torsions:
REMARK  status: ('A' for Active; 'I' for Inactive)
REMARK    1  A    between atoms: C_1  and  C_2
REMARK    2  A    between atoms: C_7  and  N_8
REMARK    3  A    between atoms: C_9  and  C_11
REMARK    4  A    between atoms: C_11  and  N_12
REMARK    5  A    between atoms: C_14  and  C_15
REMARK                            x       y       z     vdW  Elec       q    Type
REMARK                         _______ _______ _______ _____ _____    ______ ____
ROOT
ATOM      1  C   UNL     1       6.740   5.955  18.132  0.00  0.00    +0.000 C 
ENDROOT
BRANCH   1   2
ATOM      2  N   UNL     1       5.393   5.751  18.652  0.00  0.00    +0.000 N 
ATOM      3  N   UNL     1       4.459   6.691  18.285  0.00  0.00    +0.000 NA
ATOM      4  C   UNL     1       3.203   6.475  18.528  0.00  0.00    +0.000 A 
ATOM      5  C   UNL     1       2.216   7.538  18.104  0.00  0.00    +0.000 C 
ATOM      6  C   UNL     1       2.709   5.244  19.169  0.00  0.00    +0.000 A 
ATOM      7  C   UNL     1       1.344   4.988  19.368  0.00  0.00    +0.000 A 
ATOM      8  C   UNL     1       0.941   3.780  19.945  0.00  0.00    +0.000 A 
ATOM      9  C   UNL     1       1.891   2.836  20.328  0.00  0.00    +0.000 A 
ATOM     10  C   UNL     1       3.251   3.096  20.136  0.00  0.00    +0.000 A 
ATOM     11  C   UNL     1       3.658   4.302  19.556  0.00  0.00    +0.000 A 
ATOM     12  C   UNL     1       5.090   4.569  19.311  0.00  0.00    +0.000 A 
ATOM     13  O   UNL     1       5.944   3.761  19.670  0.00  0.00    +0.000 OA
ENDBRANCH   1   2
BRANCH   1  15
ATOM     14  N   UNL     1       6.462   5.620  15.687  0.00  0.00    +0.000 N 
ATOM     15  C   UNL     1       7.087   5.190  16.857  0.00  0.00    +0.000 C 
ATOM     16  O   UNL     1       7.997   4.352  16.907  0.00  0.00    +0.000 OA
ATOM     17  H   UNL     1       5.918   6.476  15.748  0.00  0.00    +0.000 HD
BRANCH  14  24
ATOM     18  C   UNL     1       4.877   3.289  14.695  0.00  0.00    +0.000 C 
ATOM     19  C   UNL     1       5.951   3.984  13.902  0.00  0.00    +0.000 A 
ATOM     20  C   UNL     1       6.204   3.495  12.601  0.00  0.00    +0.000 A 
ATOM     21  C   UNL     1       7.180   4.068  11.787  0.00  0.00    +0.000 A 
ATOM     22  C   UNL     1       7.938   5.119  12.274  0.00  0.00    +0.000 A 
ATOM     23  C   UNL     1       7.708   5.603  13.563  0.00  0.00    +0.000 A 
ATOM     24  C   UNL     1       6.704   5.072  14.392  0.00  0.00    +0.000 A 
ENDBRANCH  14  24
ENDBRANCH   1  15
TORSDOF 3
ENDMDL
MODEL 6
REMARK VINA RESULT:      -7.2      3.303      8.635
REMARK  Name = 
REMARK  5 active torsions:
REMARK  status: ('A' for Active; 'I' for Inactive)
REMARK    1  A    between atoms: C_1  and  C_2
REMARK    2  A    between atoms: C_7  and  N_8
REMARK    3  A    between atoms: C_9  and  C_11
REMARK    4  A    between atoms: C_11  and  N_12
REMARK    5  A    between atoms: C_14  and  C_15
REMARK                            x       y       z     vdW  Elec       q    Type
REMARK                         _______ _______ _______ _____ _____    ______ ____
ROOT
ATOM      1  C   UNL     1       1.534   8.985  21.808  0.00  0.00    +0.000 C 
ENDROOT
BRANCH   1   2
ATOM      2  N   UNL     1       0.662  10.143  21.652  0.00  0.00    +0.000 N 
ATOM      3  N   UNL     1       0.649  10.721  20.404  0.00  0.00    +0.000 NA
ATOM      4  C   UNL     1      -0.246  11.616  20.122  0.00  0.00    +0.000 A 
ATOM      5  C   UNL     1      -0.219  12.221  18.737  0.00  0.00    +0.000 C 
ATOM      6  C   UNL     1      -1.285  12.043  21.076  0.00  0.00    +0.000 A 
ATOM      7  C   UNL     1      -2.290  12.963  20.742  0.00  0.00    +0.000 A 
ATOM      8  C   UNL     1      -3.270  13.293  21.682  0.00  0.00    +0.000 A 
ATOM      9  C   UNL     1      -3.246  12.715  22.949  0.00  0.00    +0.000 A 
ATOM     10  C   UNL     1      -2.240  11.804  23.283  0.00  0.00    +0.000 A 
ATOM     11  C   UNL     1      -1.259  11.470  22.344  0.00  0.00    +0.000 A 
ATOM     12  C   UNL     1      -0.215  10.478  22.673  0.00  0.00    +0.000 A 
ATOM     13  O   UNL     1      -0.160   9.981  23.796  0.00  0.00    +0.000 OA
ENDBRANCH   1   2
BRANCH   1  15
ATOM     14  N   UNL     1       2.127   6.871  20.648  0.00  0.00    +0.000 N 
ATOM     15  C   UNL     1       1.104   7.720  21.069  0.00  0.00    +0.000 C 
ATOM     16  O   UNL     1      -0.104   7.451  21.024  0.00  0.00    +0.000 OA
ATOM     17  H   UNL     1       3.066   7.096  20.964  0.00  0.00    +0.000 HD
BRANCH  14  24
ATOM     18  C   UNL     1       2.923   6.481  17.795  0.00  0.00    +0.000 C 
ATOM     19  C   UNL     1       2.310   5.411  18.658  0.00  0.00    +0.000 A 
ATOM     20  C   UNL     1       2.117   4.144  18.066  0.00  0.00    +0.000 A 
ATOM     21  C   UNL     1       1.554   3.087  18.780  0.00  0.00    +0.000 A 
ATOM     22  C   UNL     1       1.148   3.292  20.088  0.00  0.00    +0.000 A 
ATOM     23  C   UNL     1       1.321   4.544  20.680  0.00  0.00    +0.000 A 
ATOM     24  C   UNL     1       1.922   5.617  19.999  0.00  0.00    +0.000 A 
ENDBRANCH  14  24
ENDBRANCH   1  15
TORSDOF 3
ENDMDL
MODEL 7
REMARK VINA RESULT:      -7.1      2.784      7.974
REMARK  Name = 
REMARK  5 active torsions:
REMARK  status: ('A' for Active; 'I' for Inactive)
REMARK    1  A    between atoms: C_1  and  C_2
REMARK    2  A    between atoms: C_7  and  N_8
REMARK    3  A    between atoms: C_9  and  C_11
REMARK    4  A    between atoms: C_11  and  N_12
REMARK    5  A    between atoms: C_14  and  C_15
REMARK                            x       y       z     vdW  Elec       q    Type
REMARK                         _______ _______ _______ _____ _____    ______ ____
ROOT
ATOM      1  C   UNL     1       5.527   5.803  16.088  0.00  0.00    +0.000 C 
ENDROOT
BRANCH   1   2
ATOM      2  N   UNL     1       4.465   5.259  16.926  0.00  0.00    +0.000 N 
ATOM      3  N   UNL     1       4.350   3.889  16.937  0.00  0.00    +0.000 NA
ATOM      4  C   UNL     1       3.577   3.317  17.807  0.00  0.00    +0.000 A 
ATOM      5  C   UNL     1       3.487   1.809  17.780  0.00  0.00    +0.000 C 
ATOM      6  C   UNL     1       2.814   4.068  18.820  0.00  0.00    +0.000 A 
ATOM      7  C   UNL     1       2.031   3.440  19.800  0.00  0.00    +0.000 A 
ATOM      8  C   UNL     1       1.366   4.211  20.758  0.00  0.00    +0.000 A 
ATOM      9  C   UNL     1       1.473   5.600  20.734  0.00  0.00    +0.000 A 
ATOM     10  C   UNL     1       2.247   6.225  19.752  0.00  0.00    +0.000 A 
ATOM     11  C   UNL     1       2.916   5.457  18.795  0.00  0.00    +0.000 A 
ATOM     12  C   UNL     1       3.769   6.105  17.779  0.00  0.00    +0.000 A 
ATOM     13  O   UNL     1       3.852   7.330  17.724  0.00  0.00    +0.000 OA
ENDBRANCH   1   2
BRANCH   1  15
ATOM     14  N   UNL     1       5.549   4.592  13.920  0.00  0.00    +0.000 N 
ATOM     15  C   UNL     1       6.197   4.816  15.135  0.00  0.00    +0.000 C 
ATOM     16  O   UNL     1       7.327   4.400  15.422  0.00  0.00    +0.000 OA
ATOM     17  H   UNL     1       4.750   5.184  13.713  0.00  0.00    +0.000 HD
BRANCH  14  24
ATOM     18  C   UNL     1       8.018   5.342  12.412  0.00  0.00    +0.000 C 
ATOM     19  C   UNL     1       7.225   4.085  12.171  0.00  0.00    +0.000 A 
ATOM     20  C   UNL     1       7.701   3.210  11.170  0.00  0.00    +0.000 A 
ATOM     21  C   UNL     1       7.037   2.022  10.868  0.00  0.00    +0.000 A 
ATOM     22  C   UNL     1       5.870   1.707  11.543  0.00  0.00    +0.000 A 
ATOM     23  C   UNL     1       5.381   2.570  12.525  0.00  0.00    +0.000 A 
ATOM     24  C   UNL     1       6.050   3.755  12.879  0.00  0.00    +0.000 A 
ENDBRANCH  14  24
ENDBRANCH   1  15
TORSDOF 3
ENDMDL
MODEL 8
REMARK VINA RESULT:      -7.0      2.357      3.747
REMARK  Name = 
REMARK  5 active torsions:
REMARK  status: ('A' for Active; 'I' for Inactive)
REMARK    1  A    between atoms: C_1  and  C_2
REMARK    2  A    between atoms: C_7  and  N_8
REMARK    3  A    between atoms: C_9  and  C_11
REMARK    4  A    between atoms: C_11  and  N_12
REMARK    5  A    between atoms: C_14  and  C_15
REMARK                            x       y       z     vdW  Elec       q    Type
REMARK                         _______ _______ _______ _____ _____    ______ ____
ROOT
ATOM      1  C   UNL     1       1.826   7.428  21.021  0.00  0.00    +0.000 C 
ENDROOT
BRANCH   1   2
ATOM      2  N   UNL     1       2.176   6.538  19.921  0.00  0.00    +0.000 N 
ATOM      3  N   UNL     1       3.011   7.065  18.964  0.00  0.00    +0.000 NA
ATOM      4  C   UNL     1       3.535   6.284  18.071  0.00  0.00    +0.000 A 
ATOM      5  C   UNL     1       4.448   6.910  17.043  0.00  0.00    +0.000 C 
ATOM      6  C   UNL     1       3.297   4.830  18.035  0.00  0.00    +0.000 A 
ATOM      7  C   UNL     1       3.919   3.982  17.107  0.00  0.00    +0.000 A 
ATOM      8  C   UNL     1       3.680   2.605  17.155  0.00  0.00    +0.000 A 
ATOM      9  C   UNL     1       2.822   2.078  18.117  0.00  0.00    +0.000 A 
ATOM     10  C   UNL     1       2.197   2.925  19.036  0.00  0.00    +0.000 A 
ATOM     11  C   UNL     1       2.436   4.302  18.993  0.00  0.00    +0.000 A 
ATOM     12  C   UNL     1       1.812   5.201  19.985  0.00  0.00    +0.000 A 
ATOM     13  O   UNL     1       1.029   4.757  20.822  0.00  0.00    +0.000 OA
ENDBRANCH   1   2
BRANCH   1  15
ATOM     14  N   UNL     1       1.004   9.268  19.570  0.00  0.00    +0.000 N 
ATOM     15  C   UNL     1       0.780   8.496  20.710  0.00  0.00    +0.000 C 
ATOM     16  O   UNL     1      -0.259   8.512  21.383  0.00  0.00    +0.000 OA
ATOM     17  H   UNL     1       1.776   8.988  18.973  0.00  0.00    +0.000 HD
BRANCH  14  24
ATOM     18  C   UNL     1       1.206  12.091  20.531  0.00  0.00    +0.000 C 
ATOM     19  C   UNL     1       0.207  11.611  19.513  0.00  0.00    +0.000 A 
ATOM     20  C   UNL     1      -0.677  12.575  18.980  0.00  0.00    +0.000 A 
ATOM     21  C   UNL     1      -1.641  12.231  18.033  0.00  0.00    +0.000 A 
ATOM     22  C   UNL     1      -1.754  10.912  17.628  0.00  0.00    +0.000 A 
ATOM     23  C   UNL     1      -0.896   9.947  18.157  0.00  0.00    +0.000 A 
ATOM     24  C   UNL     1       0.111  10.270  19.084  0.00  0.00    +0.000 A 
ENDBRANCH  14  24
ENDBRANCH   1  15
TORSDOF 3
ENDMDL
MODEL 9
REMARK VINA RESULT:      -7.0      2.176      7.192
REMARK  Name = 
REMARK  5 active torsions:
REMARK  status: ('A' for Active; 'I' for Inactive)
REMARK    1  A    between atoms: C_1  and  C_2
REMARK    2  A    between atoms: C_7  and  N_8
REMARK    3  A    between atoms: C_9  and  C_11
REMARK    4  A    between atoms: C_11  and  N_12
REMARK    5  A    between atoms: C_14  and  C_15
REMARK                            x       y       z     vdW  Elec       q    Type
REMARK                         _______ _______ _______ _____ _____    ______ ____
ROOT
ATOM      1  C   UNL     1       6.137   6.614  17.825  0.00  0.00    +0.000 C 
ENDROOT
BRANCH   1   2
ATOM      2  N   UNL     1       5.039   6.114  18.643  0.00  0.00    +0.000 N 
ATOM      3  N   UNL     1       4.022   7.005  18.892  0.00  0.00    +0.000 NA
ATOM      4  C   UNL     1       2.918   6.585  19.428  0.00  0.00    +0.000 A 
ATOM      5  C   UNL     1       1.830   7.602  19.680  0.00  0.00    +0.000 C 
ATOM      6  C   UNL     1       2.680   5.172  19.774  0.00  0.00    +0.000 A 
ATOM      7  C   UNL     1       1.460   4.713  20.293  0.00  0.00    +0.000 A 
ATOM      8  C   UNL     1       1.287   3.352  20.560  0.00  0.00    +0.000 A 
ATOM      9  C   UNL     1       2.324   2.455  20.319  0.00  0.00    +0.000 A 
ATOM     10  C   UNL     1       3.542   2.914  19.810  0.00  0.00    +0.000 A 
ATOM     11  C   UNL     1       3.718   4.275  19.538  0.00  0.00    +0.000 A 
ATOM     12  C   UNL     1       4.986   4.764  18.962  0.00  0.00    +0.000 A 
ATOM     13  O   UNL     1       5.923   3.993  18.771  0.00  0.00    +0.000 OA
ENDBRANCH   1   2
BRANCH   1  15
ATOM     14  N   UNL     1       6.955   5.381  15.831  0.00  0.00    +0.000 N 
ATOM     15  C   UNL     1       6.048   6.315  16.331  0.00  0.00    +0.000 C 
ATOM     16  O   UNL     1       5.099   6.791  15.694  0.00  0.00    +0.000 OA
ATOM     17  H   UNL     1       7.524   4.887  16.512  0.00  0.00    +0.000 HD
BRANCH  14  24
ATOM     18  C   UNL     1       5.209   3.127  14.936  0.00  0.00    +0.000 C 
ATOM     19  C   UNL     1       6.154   3.877  14.036  0.00  0.00    +0.000 A 
ATOM     20  C   UNL     1       6.196   3.483  12.680  0.00  0.00    +0.000 A 
ATOM     21  C   UNL     1       7.039   4.112  11.767  0.00  0.00    +0.000 A 
ATOM     22  C   UNL     1       7.876   5.126  12.202  0.00  0.00    +0.000 A 
ATOM     23  C   UNL     1       7.854   5.516  13.542  0.00  0.00    +0.000 A 
ATOM     24  C   UNL     1       6.986   4.927  14.479  0.00  0.00    +0.000 A 
ENDBRANCH  14  24
ENDBRANCH   1  15
TORSDOF 3
ENDMDL
