MODEL 1
REMARK VINA RESULT:      -8.1      0.000      0.000
REMARK  Name = 
REMARK  4 active torsions:
REMARK  status: ('A' for Active; 'I' for Inactive)
REMARK    1  A    between atoms: C_1  and  S_2
REMARK    2  A    between atoms: S_2  and  C_3
REMARK    3  A    between atoms: C_8  and  C_9
REMARK    4  A    between atoms: N_11  and  C_12
REMARK                            x       y       z     vdW  Elec       q    Type
REMARK                         _______ _______ _______ _____ _____    ______ ____
ROOT
ATOM      1  C   UNL     1       4.709   4.328  17.173  0.00  0.00    +0.000 C 
ATOM      2  O   UNL     1       3.683   4.999  17.232  0.00  0.00    +0.000 OA
ATOM      3  N   UNL     1       4.981   3.310  18.063  0.00  0.00    +0.000 N 
ATOM      4  H   UNL     1       5.911   2.903  18.046  0.00  0.00    +0.000 HD
ENDROOT
BRANCH   3   5
ATOM      5  C   UNL     1       4.166   3.061  19.256  0.00  0.00    +0.000 C 
ATOM      6  C   UNL     1       3.474   4.369  19.669  0.00  0.00    +0.000 C 
ATOM      7  C   UNL     1       2.727   4.333  21.002  0.00  0.00    +0.000 C 
ATOM      8  C   UNL     1       1.480   3.454  21.113  0.00  0.00    +0.000 C 
ATOM      9  C   UNL     1       0.536   3.487  19.912  0.00  0.00    +0.000 C 
ATOM     10  C   UNL     1       0.677   2.310  18.942  0.00  0.00    +0.000 C 
ATOM     11  C   UNL     1       1.985   2.199  18.155  0.00  0.00    +0.000 C 
ATOM     12  C   UNL     1       3.221   1.874  19.002  0.00  0.00    +0.000 C 
ENDBRANCH   3   5
BRANCH   1  18
ATOM     13  C   UNL     1       6.736   5.518  16.098  0.00  0.00    +0.000 A 
ATOM     14  N   UNL     1       7.593   5.669  15.051  0.00  0.00    +0.000 NA
ATOM     15  C   UNL     1       7.404   4.913  13.949  0.00  0.00    +0.000 A 
ATOM     16  C   UNL     1       6.385   3.995  13.824  0.00  0.00    +0.000 A 
ATOM     17  C   UNL     1       5.518   3.836  14.900  0.00  0.00    +0.000 A 
ATOM     18  C   UNL     1       5.689   4.587  16.077  0.00  0.00    +0.000 A 
BRANCH  13  20
ATOM     19  C   UNL     1       7.769   5.417  18.664  0.00  0.00    +0.000 C 
ATOM     20  S   UNL     1       7.077   6.604  17.482  0.00  0.00    +0.000 S 
ENDBRANCH  13  20
ENDBRANCH   1  18
TORSDOF 3
ENDMDL
MODEL 2
REMARK VINA RESULT:      -7.9      0.994      1.176
REMARK  Name = 
REMARK  4 active torsions:
REMARK  status: ('A' for Active; 'I' for Inactive)
REMARK    1  A    between atoms: C_1  and  S_2
REMARK    2  A    between atoms: S_2  and  C_3
REMARK    3  A    between atoms: C_8  and  C_9
REMARK    4  A    between atoms: N_11  and  C_12
REMARK                            x       y       z     vdW  Elec       q    Type
REMARK                         _______ _______ _______ _____ _____    ______ ____
ROOT
ATOM      1  C   UNL     1       4.757   3.975  17.405  0.00  0.00    +0.000 C 
ATOM      2  O   UNL     1       4.310   4.837  18.156  0.00  0.00    +0.000 OA
ATOM      3  N   UNL     1       4.421   2.643  17.523  0.00  0.00    +0.000 N 
ATOM      4  H   UNL     1       4.943   1.973  16.967  0.00  0.00    +0.000 HD
ENDROOT
BRANCH   3   5
ATOM      5  C   UNL     1       3.652   2.116  18.655  0.00  0.00    +0.000 C 
ATOM      6  C   UNL     1       3.964   2.956  19.903  0.00  0.00    +0.000 C 
ATOM      7  C   UNL     1       3.387   2.431  21.217  0.00  0.00    +0.000 C 
ATOM      8  C   UNL     1       1.868   2.440  21.399  0.00  0.00    +0.000 C 
ATOM      9  C   UNL     1       1.147   3.691  20.898  0.00  0.00    +0.000 C 
ATOM     10  C   UNL     1       0.488   3.555  19.523  0.00  0.00    +0.000 C 
ATOM     11  C   UNL     1       1.410   3.369  18.316  0.00  0.00    +0.000 C 
ATOM     12  C   UNL     1       2.162   2.033  18.279  0.00  0.00    +0.000 C 
ENDBRANCH   3   5
BRANCH   1  18
ATOM     13  C   UNL     1       6.817   5.172  16.404  0.00  0.00    +0.000 A 
ATOM     14  N   UNL     1       7.599   5.471  15.329  0.00  0.00    +0.000 NA
ATOM     15  C   UNL     1       7.233   5.003  14.117  0.00  0.00    +0.000 A 
ATOM     16  C   UNL     1       6.106   4.241  13.905  0.00  0.00    +0.000 A 
ATOM     17  C   UNL     1       5.316   3.930  15.007  0.00  0.00    +0.000 A 
ATOM     18  C   UNL     1       5.669   4.377  16.293  0.00  0.00    +0.000 A 
BRANCH  13  20
ATOM     19  C   UNL     1       7.541   7.623  17.467  0.00  0.00    +0.000 C 
ATOM     20  S   UNL     1       7.396   5.881  17.945  0.00  0.00    +0.000 S 
ENDBRANCH  13  20
ENDBRANCH   1  18
TORSDOF 3
ENDMDL
MODEL 3
REMARK VINA RESULT:      -7.6      1.276      2.174
REMARK  Name = 
REMARK  4 active torsions:
REMARK  status: ('A' for Active; 'I' for Inactive)
REMARK    1  A    between atoms: C_1  and  S_2
REMARK    2  A    between atoms: S_2  and  C_3
REMARK    3  A    between atoms: C_8  and  C_9
REMARK    4  A    between atoms: N_11  and  C_12
REMARK                            x       y       z     vdW  Elec       q    Type
REMARK                         _______ _______ _______ _____ _____    ______ ____
ROOT
ATOM      1  C   UNL     1       4.408   4.103  17.090  0.00  0.00    +0.000 C 
ATOM      2  O   UNL     1       4.530   3.104  17.792  0.00  0.00    +0.000 OA
ATOM      3  N   UNL     1       3.311   4.936  17.170  0.00  0.00    +0.000 N 
ATOM      4  H   UNL     1       3.208   5.652  16.458  0.00  0.00    +0.000 HD
ENDROOT
BRANCH   3   5
ATOM      5  C   UNL     1       2.121   4.606  17.961  0.00  0.00    +0.000 C 
ATOM      6  C   UNL     1       2.030   3.080  18.110  0.00  0.00    +0.000 C 
ATOM      7  C   UNL     1       0.748   2.551  18.753  0.00  0.00    +0.000 C 
ATOM      8  C   UNL     1       0.490   2.869  20.227  0.00  0.00    +0.000 C 
ATOM      9  C   UNL     1       1.701   2.756  21.152  0.00  0.00    +0.000 C 
ATOM     10  C   UNL     1       2.383   4.083  21.495  0.00  0.00    +0.000 C 
ATOM     11  C   UNL     1       3.081   4.830  20.356  0.00  0.00    +0.000 C 
ATOM     12  C   UNL     1       2.141   5.392  19.283  0.00  0.00    +0.000 C 
ENDBRANCH   3   5
BRANCH   1  18
ATOM     13  C   UNL     1       6.621   5.255  16.417  0.00  0.00    +0.000 A 
ATOM     14  N   UNL     1       7.577   5.515  15.482  0.00  0.00    +0.000 NA
ATOM     15  C   UNL     1       7.417   5.012  14.240  0.00  0.00    +0.000 A 
ATOM     16  C   UNL     1       6.333   4.249  13.863  0.00  0.00    +0.000 A 
ATOM     17  C   UNL     1       5.364   3.978  14.824  0.00  0.00    +0.000 A 
ATOM     18  C   UNL     1       5.500   4.464  16.137  0.00  0.00    +0.000 A 
BRANCH  13  20
ATOM     19  C   UNL     1       7.593   7.616  17.487  0.00  0.00    +0.000 C 
ATOM     20  S   UNL     1       6.938   6.009  18.011  0.00  0.00    +0.000 S 
ENDBRANCH  13  20
ENDBRANCH   1  18
TORSDOF 3
ENDMDL
MODEL 4
REMARK VINA RESULT:      -7.4      4.764      6.852
REMARK  Name = 
REMARK  4 active torsions:
REMARK  status: ('A' for Active; 'I' for Inactive)
REMARK    1  A    between atoms: C_1  and  S_2
REMARK    2  A    between atoms: S_2  and  C_3
REMARK    3  A    between atoms: C_8  and  C_9
REMARK    4  A    between atoms: N_11  and  C_12
REMARK                            x       y       z     vdW  Elec       q    Type
REMARK                         _______ _______ _______ _____ _____    ______ ____
ROOT
ATOM      1  C   UNL     1       2.200   6.761  19.943  0.00  0.00    +0.000 C 
ATOM      2  O   UNL     1       2.699   7.329  18.977  0.00  0.00    +0.000 OA
ATOM      3  N   UNL     1       1.540   7.441  20.945  0.00  0.00    +0.000 N 
ATOM      4  H   UNL     1       1.288   6.925  21.781  0.00  0.00    +0.000 HD
ENDROOT
BRANCH   3   5
ATOM      5  C   UNL     1       1.535   8.905  21.038  0.00  0.00    +0.000 C 
ATOM      6  C   UNL     1       0.532   9.466  20.019  0.00  0.00    +0.000 C 
ATOM      7  C   UNL     1       0.533  10.985  19.853  0.00  0.00    +0.000 C 
ATOM      8  C   UNL     1       0.060  11.844  21.027  0.00  0.00    +0.000 C 
ATOM      9  C   UNL     1      -1.176  11.334  21.767  0.00  0.00    +0.000 C 
ATOM     10  C   UNL     1      -0.890  10.583  23.071  0.00  0.00    +0.000 C 
ATOM     11  C   UNL     1      -0.162   9.241  22.965  0.00  0.00    +0.000 C 
ATOM     12  C   UNL     1       1.294   9.333  22.496  0.00  0.00    +0.000 C 
ENDBRANCH   3   5
BRANCH   1  18
ATOM     13  C   UNL     1       3.371   4.468  19.715  0.00  0.00    +0.000 A 
ATOM     14  N   UNL     1       3.342   3.112  19.843  0.00  0.00    +0.000 NA
ATOM     15  C   UNL     1       2.199   2.530  20.261  0.00  0.00    +0.000 A 
ATOM     16  C   UNL     1       1.053   3.233  20.563  0.00  0.00    +0.000 A 
ATOM     17  C   UNL     1       1.091   4.618  20.440  0.00  0.00    +0.000 A 
ATOM     18  C   UNL     1       2.267   5.271  20.028  0.00  0.00    +0.000 A 
BRANCH  13  20
ATOM     19  C   UNL     1       4.889   4.539  17.401  0.00  0.00    +0.000 C 
ATOM     20  S   UNL     1       4.935   5.110  19.120  0.00  0.00    +0.000 S 
ENDBRANCH  13  20
ENDBRANCH   1  18
TORSDOF 3
ENDMDL
MODEL 5
REMARK VINA RESULT:      -7.2      1.046      1.864
REMARK  Name = 
REMARK  4 active torsions:
REMARK  status: ('A' for Active; 'I' for Inactive)
REMARK    1  A    between atoms: C_1  and  S_2
REMARK    2  A    between atoms: S_2  and  C_3
REMARK    3  A    between atoms: C_8  and  C_9
REMARK    4  A    between atoms: N_11  and  C_12
REMARK                            x       y       z     vdW  Elec       q    Type
REMARK                         _______ _______ _______ _____ _____    ______ ____
ROOT
ATOM      1  C   UNL     1       4.361   5.469  16.814  0.00  0.00    +0.000 C 
ATOM      2  O   UNL     1       4.081   6.614  17.155  0.00  0.00    +0.000 OA
ATOM      3  N   UNL     1       3.659   4.369  17.259  0.00  0.00    +0.000 N 
ATOM      4  H   UNL     1       4.039   3.450  17.056  0.00  0.00    +0.000 HD
ENDROOT
BRANCH   3   5
ATOM      5  C   UNL     1       2.640   4.452  18.311  0.00  0.00    +0.000 C 
ATOM      6  C   UNL     1       1.697   3.245  18.188  0.00  0.00    +0.000 C 
ATOM      7  C   UNL     1       0.466   3.270  19.093  0.00  0.00    +0.000 C 
ATOM      8  C   UNL     1       0.674   3.153  20.604  0.00  0.00    +0.000 C 
ATOM      9  C   UNL     1       1.714   2.128  21.054  0.00  0.00    +0.000 C 
ATOM     10  C   UNL     1       3.087   2.706  21.407  0.00  0.00    +0.000 C 
ATOM     11  C   UNL     1       3.904   3.323  20.270  0.00  0.00    +0.000 C 
ATOM     12  C   UNL     1       3.320   4.613  19.682  0.00  0.00    +0.000 C 
ENDBRANCH   3   5
BRANCH   1  18
ATOM     13  C   UNL     1       6.783   5.749  15.956  0.00  0.00    +0.000 A 
ATOM     14  N   UNL     1       7.743   5.476  15.029  0.00  0.00    +0.000 NA
ATOM     15  C   UNL     1       7.412   4.720  13.961  0.00  0.00    +0.000 A 
ATOM     16  C   UNL     1       6.149   4.209  13.755  0.00  0.00    +0.000 A 
ATOM     17  C   UNL     1       5.174   4.482  14.709  0.00  0.00    +0.000 A 
ATOM     18  C   UNL     1       5.479   5.248  15.849  0.00  0.00    +0.000 A 
BRANCH  13  20
ATOM     19  C   UNL     1       7.576   5.545  18.599  0.00  0.00    +0.000 C 
ATOM     20  S   UNL     1       7.345   6.789  17.302  0.00  0.00    +0.000 S 
ENDBRANCH  13  20
ENDBRANCH   1  18
TORSDOF 3
ENDMDL
MODEL 6
REMARK VINA RESULT:      -7.0      1.181      1.983
REMARK  Name = 
REMARK  4 active torsions:
REMARK  status: ('A' for Active; 'I' for Inactive)
REMARK    1  A    between atoms: C_1  and  S_2
REMARK    2  A    between atoms: S_2  and  C_3
REMARK    3  A    between atoms: C_8  and  C_9
REMARK    4  A    between atoms: N_11  and  C_12
REMARK                            x       y       z     vdW  Elec       q    Type
REMARK                         _______ _______ _______ _____ _____    ______ ____
ROOT
ATOM      1  C   UNL     1       4.615   4.206  16.639  0.00  0.00    +0.000 C 
ATOM      2  O   UNL     1       4.466   3.050  17.025  0.00  0.00    +0.000 OA
ATOM      3  N   UNL     1       3.885   5.258  17.150  0.00  0.00    +0.000 N 
ATOM      4  H   UNL     1       3.954   6.155  16.680  0.00  0.00    +0.000 HD
ENDROOT
BRANCH   3   5
ATOM      5  C   UNL     1       2.750   5.068  18.060  0.00  0.00    +0.000 C 
ATOM      6  C   UNL     1       2.023   3.768  17.683  0.00  0.00    +0.000 C 
ATOM      7  C   UNL     1       0.705   3.510  18.413  0.00  0.00    +0.000 C 
ATOM      8  C   UNL     1       0.750   3.234  19.918  0.00  0.00    +0.000 C 
ATOM      9  C   UNL     1       1.875   2.314  20.390  0.00  0.00    +0.000 C 
ATOM     10  C   UNL     1       3.093   3.027  20.984  0.00  0.00    +0.000 C 
ATOM     11  C   UNL     1       3.934   3.888  20.038  0.00  0.00    +0.000 C 
ATOM     12  C   UNL     1       3.232   5.148  19.518  0.00  0.00    +0.000 C 
ENDBRANCH   3   5
BRANCH   1  18
ATOM     13  C   UNL     1       6.755   5.353  15.752  0.00  0.00    +0.000 A 
ATOM     14  N   UNL     1       7.660   5.546  14.753  0.00  0.00    +0.000 NA
ATOM     15  C   UNL     1       7.464   4.914  13.576  0.00  0.00    +0.000 A 
ATOM     16  C   UNL     1       6.393   4.084  13.328  0.00  0.00    +0.000 A 
ATOM     17  C   UNL     1       5.477   3.882  14.355  0.00  0.00    +0.000 A 
ATOM     18  C   UNL     1       5.651   4.503  15.606  0.00  0.00    +0.000 A 
BRANCH  13  20
ATOM     19  C   UNL     1       7.715   4.941  18.315  0.00  0.00    +0.000 C 
ATOM     20  S   UNL     1       7.112   6.275  17.247  0.00  0.00    +0.000 S 
ENDBRANCH  13  20
ENDBRANCH   1  18
TORSDOF 3
ENDMDL
MODEL 7
REMARK VINA RESULT:      -7.0      1.468      2.124
REMARK  Name = 
REMARK  4 active torsions:
REMARK  status: ('A' for Active; 'I' for Inactive)
REMARK    1  A    between atoms: C_1  and  S_2
REMARK    2  A    between atoms: S_2  and  C_3
REMARK    3  A    between atoms: C_8  and  C_9
REMARK    4  A    between atoms: N_11  and  C_12
REMARK                            x       y       z     vdW  Elec       q    Type
REMARK                         _______ _______ _______ _____ _____    ______ ____
ROOT
ATOM      1  C   UNL     1       4.714   3.551  16.453  0.00  0.00    +0.000 C 
ATOM      2  O   UNL     1       4.822   2.391  16.839  0.00  0.00    +0.000 OA
ATOM      3  N   UNL     1       3.694   4.380  16.871  0.00  0.00    +0.000 N 
ATOM      4  H   UNL     1       3.583   5.270  16.397  0.00  0.00    +0.000 HD
ENDROOT
BRANCH   3   5
ATOM      5  C   UNL     1       2.557   3.899  17.663  0.00  0.00    +0.000 C 
ATOM      6  C   UNL     1       3.068   2.906  18.718  0.00  0.00    +0.000 C 
ATOM      7  C   UNL     1       1.992   2.169  19.512  0.00  0.00    +0.000 C 
ATOM      8  C   UNL     1       1.113   2.976  20.470  0.00  0.00    +0.000 C 
ATOM      9  C   UNL     1       1.837   4.033  21.303  0.00  0.00    +0.000 C 
ATOM     10  C   UNL     1       1.725   5.466  20.776  0.00  0.00    +0.000 C 
ATOM     11  C   UNL     1       2.402   5.779  19.439  0.00  0.00    +0.000 C 
ATOM     12  C   UNL     1       1.768   5.097  18.221  0.00  0.00    +0.000 C 
ENDBRANCH   3   5
BRANCH   1  18
ATOM     13  C   UNL     1       6.856   4.880  15.884  0.00  0.00    +0.000 A 
ATOM     14  N   UNL     1       7.752   5.332  14.962  0.00  0.00    +0.000 NA
ATOM     15  C   UNL     1       7.537   5.047  13.661  0.00  0.00    +0.000 A 
ATOM     16  C   UNL     1       6.454   4.325  13.210  0.00  0.00    +0.000 A 
ATOM     17  C   UNL     1       5.547   3.857  14.155  0.00  0.00    +0.000 A 
ATOM     18  C   UNL     1       5.742   4.111  15.525  0.00  0.00    +0.000 A 
BRANCH  13  20
ATOM     19  C   UNL     1       7.245   7.160  17.403  0.00  0.00    +0.000 C 
ATOM     20  S   UNL     1       7.241   5.356  17.568  0.00  0.00    +0.000 S 
ENDBRANCH  13  20
ENDBRANCH   1  18
TORSDOF 3
ENDMDL
MODEL 8
REMARK VINA RESULT:      -7.0      1.154      1.212
REMARK  Name = 
REMARK  4 active torsions:
REMARK  status: ('A' for Active; 'I' for Inactive)
REMARK    1  A    between atoms: C_1  and  S_2
REMARK    2  A    between atoms: S_2  and  C_3
REMARK    3  A    between atoms: C_8  and  C_9
REMARK    4  A    between atoms: N_11  and  C_12
REMARK                            x       y       z     vdW  Elec       q    Type
REMARK                         _______ _______ _______ _____ _____    ______ ____
ROOT
ATOM      1  C   UNL     1       5.830   4.213  17.737  0.00  0.00    +0.000 C 
ATOM      2  O   UNL     1       6.627   4.046  18.656  0.00  0.00    +0.000 OA
ATOM      3  N   UNL     1       4.465   4.151  17.919  0.00  0.00    +0.000 N 
ATOM      4  H   UNL     1       3.877   4.149  17.091  0.00  0.00    +0.000 HD
ENDROOT
BRANCH   3   5
ATOM      5  C   UNL     1       3.852   3.705  19.174  0.00  0.00    +0.000 C 
ATOM      6  C   UNL     1       2.882   4.789  19.668  0.00  0.00    +0.000 C 
ATOM      7  C   UNL     1       2.292   4.568  21.060  0.00  0.00    +0.000 C 
ATOM      8  C   UNL     1       1.333   3.394  21.265  0.00  0.00    +0.000 C 
ATOM      9  C   UNL     1       0.310   3.170  20.152  0.00  0.00    +0.000 C 
ATOM     10  C   UNL     1       0.667   2.065  19.154  0.00  0.00    +0.000 C 
ATOM     11  C   UNL     1       1.883   2.295  18.254  0.00  0.00    +0.000 C 
ATOM     12  C   UNL     1       3.231   2.310  18.984  0.00  0.00    +0.000 C 
ENDBRANCH   3   5
BRANCH   1  18
ATOM     13  C   UNL     1       7.102   5.658  16.012  0.00  0.00    +0.000 A 
ATOM     14  N   UNL     1       7.544   5.855  14.739  0.00  0.00    +0.000 NA
ATOM     15  C   UNL     1       7.217   4.948  13.795  0.00  0.00    +0.000 A 
ATOM     16  C   UNL     1       6.454   3.829  14.048  0.00  0.00    +0.000 A 
ATOM     17  C   UNL     1       6.012   3.626  15.352  0.00  0.00    +0.000 A 
ATOM     18  C   UNL     1       6.347   4.535  16.373  0.00  0.00    +0.000 A 
BRANCH  13  20
ATOM     19  C   UNL     1       5.961   7.707  17.481  0.00  0.00    +0.000 C 
ATOM     20  S   UNL     1       7.576   6.951  17.157  0.00  0.00    +0.000 S 
ENDBRANCH  13  20
ENDBRANCH   1  18
TORSDOF 3
ENDMDL
MODEL 9
REMARK VINA RESULT:      -6.9      5.004      7.269
REMARK  Name = 
REMARK  4 active torsions:
REMARK  status: ('A' for Active; 'I' for Inactive)
REMARK    1  A    between atoms: C_1  and  S_2
REMARK    2  A    between atoms: S_2  and  C_3
REMARK    3  A    between atoms: C_8  and  C_9
REMARK    4  A    between atoms: N_11  and  C_12
REMARK                            x       y       z     vdW  Elec       q    Type
REMARK                         _______ _______ _______ _____ _____    ______ ____
ROOT
ATOM      1  C   UNL     1       1.871   8.241  19.369  0.00  0.00    +0.000 C 
ATOM      2  O   UNL     1       2.251   8.828  18.361  0.00  0.00    +0.000 OA
ATOM      3  N   UNL     1       2.227   6.937  19.647  0.00  0.00    +0.000 N 
ATOM      4  H   UNL     1       1.756   6.471  20.415  0.00  0.00    +0.000 HD
ENDROOT
BRANCH   3   5
ATOM      5  C   UNL     1       2.933   6.087  18.683  0.00  0.00    +0.000 C 
ATOM      6  C   UNL     1       4.050   5.326  19.414  0.00  0.00    +0.000 C 
ATOM      7  C   UNL     1       5.004   4.531  18.524  0.00  0.00    +0.000 C 
ATOM      8  C   UNL     1       4.455   3.318  17.771  0.00  0.00    +0.000 C 
ATOM      9  C   UNL     1       3.504   2.420  18.563  0.00  0.00    +0.000 C 
ATOM     10  C   UNL     1       2.015   2.647  18.288  0.00  0.00    +0.000 C 
ATOM     11  C   UNL     1       1.416   3.988  18.717  0.00  0.00    +0.000 C 
ATOM     12  C   UNL     1       1.923   5.202  17.931  0.00  0.00    +0.000 C 
ENDBRANCH   3   5
BRANCH   1  18
ATOM     13  C   UNL     1       0.005   9.884  20.074  0.00  0.00    +0.000 A 
ATOM     14  N   UNL     1      -0.729  10.483  21.052  0.00  0.00    +0.000 NA
ATOM     15  C   UNL     1      -0.442  10.198  22.340  0.00  0.00    +0.000 A 
ATOM     16  C   UNL     1       0.561   9.333  22.721  0.00  0.00    +0.000 A 
ATOM     17  C   UNL     1       1.301   8.716  21.718  0.00  0.00    +0.000 A 
ATOM     18  C   UNL     1       1.023   8.966  20.362  0.00  0.00    +0.000 A 
BRANCH  13  20
ATOM     19  C   UNL     1      -1.942  11.351  18.763  0.00  0.00    +0.000 C 
ATOM     20  S   UNL     1      -0.456  10.375  18.413  0.00  0.00    +0.000 S 
ENDBRANCH  13  20
ENDBRANCH   1  18
TORSDOF 3
ENDMDL
