MODEL 1
REMARK VINA RESULT:      -8.2      0.000      0.000
REMARK  Name = 
REMARK  8 active torsions:
REMARK  status: ('A' for Active; 'I' for Inactive)
REMARK    1  A    between atoms: C_1  and  C_2
REMARK    2  A    between atoms: C_2  and  C_3
REMARK    3  A    between atoms: C_4  and  S_5
REMARK    4  A    between atoms: S_5  and  C_6
REMARK    5  A    between atoms: N_12  and  C_13
REMARK    6  A    between atoms: C_13  and  O_14
REMARK    7  A    between atoms: O_14  and  C_15
REMARK    8  A    between atoms: C_15  and  C_16
REMARK                            x       y       z     vdW  Elec       q    Type
REMARK                         _______ _______ _______ _____ _____    ______ ____
ROOT
ATOM      1  C   UNL     1       2.458   3.671  18.886  0.00  0.00    +0.000 A 
ATOM      2  C   UNL     1       2.958   4.882  18.556  0.00  0.00    +0.000 A 
ATOM      3  N   UNL     1       2.550   6.036  19.237  0.00  0.00    +0.000 N 
ATOM      4  C   UNL     1       1.701   5.980  20.330  0.00  0.00    +0.000 A 
ATOM      5  O   UNL     1       1.277   6.962  20.938  0.00  0.00    +0.000 OA
ATOM      6  N   UNL     1       1.304   4.731  20.729  0.00  0.00    +0.000 N 
ATOM      7  C   UNL     1       1.567   3.576  20.089  0.00  0.00    +0.000 A 
ATOM      8  O   UNL     1       1.113   2.505  20.472  0.00  0.00    +0.000 OA
ATOM      9  H   UNL     1       0.688   4.703  21.547  0.00  0.00    +0.000 HD
ENDROOT
BRANCH   1  11
ATOM     10  C   UNL     1       3.790   1.552  18.666  0.00  0.00    +0.000 C 
ATOM     11  C   UNL     1       2.635   2.377  18.126  0.00  0.00    +0.000 C 
ENDBRANCH   1  11
BRANCH   2  12
ATOM     12  S   UNL     1       4.004   5.017  17.153  0.00  0.00    +0.000 S 
BRANCH  12  13
ATOM     13  C   UNL     1       5.574   5.620  17.756  0.00  0.00    +0.000 A 
ATOM     14  C   UNL     1       6.266   5.128  18.867  0.00  0.00    +0.000 A 
ATOM     15  C   UNL     1       7.479   5.706  19.266  0.00  0.00    +0.000 A 
ATOM     16  C   UNL     1       8.023   6.775  18.555  0.00  0.00    +0.000 A 
ATOM     17  C   UNL     1       7.365   7.254  17.428  0.00  0.00    +0.000 A 
ATOM     18  C   UNL     1       6.153   6.679  17.034  0.00  0.00    +0.000 A 
ENDBRANCH  12  13
ENDBRANCH   2  12
BRANCH   3  19
ATOM     19  C   UNL     1       2.942   7.379  18.823  0.00  0.00    +0.000 C 
BRANCH  19  20
ATOM     20  O   UNL     1       2.017   7.963  17.909  0.00  0.00    +0.000 OA
BRANCH  20  21
ATOM     21  C   UNL     1       2.021   9.382  17.936  0.00  0.00    +0.000 C 
BRANCH  21  22
ATOM     22  C   UNL     1       0.775   9.804  18.618  0.00  0.00    +0.000 A 
ATOM     23  C   UNL     1      -0.480  10.076  18.119  0.00  0.00    +0.000 A 
ATOM     24  C   UNL     1      -1.073  10.939  19.064  0.00  0.00    +0.000 A 
ATOM     25  C   UNL     1      -2.147  11.843  19.053  0.00  0.00    +0.000 A 
ATOM     26  C   UNL     1      -2.468  12.510  20.239  0.00  0.00    +0.000 A 
ATOM     27  C   UNL     1      -1.796  12.217  21.430  0.00  0.00    +0.000 A 
ATOM     28  C   UNL     1      -0.693  11.353  21.451  0.00  0.00    +0.000 A 
ATOM     29  C   UNL     1      -0.322  10.804  20.224  0.00  0.00    +0.000 A 
ATOM     30  O   UNL     1       0.832  10.124  19.947  0.00  0.00    +0.000 OA
ENDBRANCH  21  22
ENDBRANCH  20  21
ENDBRANCH  19  20
ENDBRANCH   3  19
TORSDOF 7
ENDMDL
MODEL 2
REMARK VINA RESULT:      -7.9      3.275      7.629
REMARK  Name = 
REMARK  8 active torsions:
REMARK  status: ('A' for Active; 'I' for Inactive)
REMARK    1  A    between atoms: C_1  and  C_2
REMARK    2  A    between atoms: C_2  and  C_3
REMARK    3  A    between atoms: C_4  and  S_5
REMARK    4  A    between atoms: S_5  and  C_6
REMARK    5  A    between atoms: N_12  and  C_13
REMARK    6  A    between atoms: C_13  and  O_14
REMARK    7  A    between atoms: O_14  and  C_15
REMARK    8  A    between atoms: C_15  and  C_16
REMARK                            x       y       z     vdW  Elec       q    Type
REMARK                         _______ _______ _______ _____ _____    ______ ____
ROOT
ATOM      1  C   UNL     1       1.978   3.592  19.283  0.00  0.00    +0.000 A 
ATOM      2  C   UNL     1       3.036   4.431  19.347  0.00  0.00    +0.000 A 
ATOM      3  N   UNL     1       4.186   4.192  18.585  0.00  0.00    +0.000 N 
ATOM      4  C   UNL     1       4.257   3.155  17.669  0.00  0.00    +0.000 A 
ATOM      5  O   UNL     1       5.254   2.873  17.005  0.00  0.00    +0.000 OA
ATOM      6  N   UNL     1       3.128   2.391  17.527  0.00  0.00    +0.000 N 
ATOM      7  C   UNL     1       2.011   2.484  18.273  0.00  0.00    +0.000 A 
ATOM      8  O   UNL     1       1.070   1.714  18.130  0.00  0.00    +0.000 OA
ATOM      9  H   UNL     1       3.189   1.637  16.836  0.00  0.00    +0.000 HD
ENDROOT
BRANCH   1  11
ATOM     10  C   UNL     1       1.027   2.889  21.500  0.00  0.00    +0.000 C 
ATOM     11  C   UNL     1       0.763   3.594  20.181  0.00  0.00    +0.000 C 
ENDBRANCH   1  11
BRANCH   2  12
ATOM     12  S   UNL     1       3.018   5.735  20.520  0.00  0.00    +0.000 S 
BRANCH  12  13
ATOM     13  C   UNL     1       2.324   7.153  19.681  0.00  0.00    +0.000 A 
ATOM     14  C   UNL     1       2.438   7.430  18.316  0.00  0.00    +0.000 A 
ATOM     15  C   UNL     1       1.879   8.596  17.775  0.00  0.00    +0.000 A 
ATOM     16  C   UNL     1       1.188   9.494  18.587  0.00  0.00    +0.000 A 
ATOM     17  C   UNL     1       1.035   9.216  19.941  0.00  0.00    +0.000 A 
ATOM     18  C   UNL     1       1.599   8.055  20.479  0.00  0.00    +0.000 A 
ENDBRANCH  12  13
ENDBRANCH   2  12
BRANCH   3  19
ATOM     19  C   UNL     1       5.407   4.977  18.728  0.00  0.00    +0.000 C 
BRANCH  19  20
ATOM     20  O   UNL     1       5.455   6.085  17.832  0.00  0.00    +0.000 OA
BRANCH  20  21
ATOM     21  C   UNL     1       6.689   6.193  17.139  0.00  0.00    +0.000 C 
BRANCH  21  22
ATOM     22  C   UNL     1       6.427   5.812  15.731  0.00  0.00    +0.000 A 
ATOM     23  C   UNL     1       5.264   5.424  15.101  0.00  0.00    +0.000 A 
ATOM     24  C   UNL     1       5.682   4.667  13.987  0.00  0.00    +0.000 A 
ATOM     25  C   UNL     1       5.080   3.725  13.138  0.00  0.00    +0.000 A 
ATOM     26  C   UNL     1       5.831   3.205  12.081  0.00  0.00    +0.000 A 
ATOM     27  C   UNL     1       7.121   3.679  11.818  0.00  0.00    +0.000 A 
ATOM     28  C   UNL     1       7.755   4.585  12.680  0.00  0.00    +0.000 A 
ATOM     29  C   UNL     1       7.020   4.984  13.795  0.00  0.00    +0.000 A 
ATOM     30  O   UNL     1       7.490   5.670  14.882  0.00  0.00    +0.000 OA
ENDBRANCH  21  22
ENDBRANCH  20  21
ENDBRANCH  19  20
ENDBRANCH   3  19
TORSDOF 7
ENDMDL
MODEL 3
REMARK VINA RESULT:      -7.9      1.015      1.632
REMARK  Name = 
REMARK  8 active torsions:
REMARK  status: ('A' for Active; 'I' for Inactive)
REMARK    1  A    between atoms: C_1  and  C_2
REMARK    2  A    between atoms: C_2  and  C_3
REMARK    3  A    between atoms: C_4  and  S_5
REMARK    4  A    between atoms: S_5  and  C_6
REMARK    5  A    between atoms: N_12  and  C_13
REMARK    6  A    between atoms: C_13  and  O_14
REMARK    7  A    between atoms: O_14  and  C_15
REMARK    8  A    between atoms: C_15  and  C_16
REMARK                            x       y       z     vdW  Elec       q    Type
REMARK                         _______ _______ _______ _____ _____    ______ ____
ROOT
ATOM      1  C   UNL     1       2.411   3.699  18.785  0.00  0.00    +0.000 A 
ATOM      2  C   UNL     1       2.902   4.933  18.534  0.00  0.00    +0.000 A 
ATOM      3  N   UNL     1       2.500   6.032  19.302  0.00  0.00    +0.000 N 
ATOM      4  C   UNL     1       1.668   5.895  20.401  0.00  0.00    +0.000 A 
ATOM      5  O   UNL     1       1.250   6.829  21.084  0.00  0.00    +0.000 OA
ATOM      6  N   UNL     1       1.281   4.619  20.715  0.00  0.00    +0.000 N 
ATOM      7  C   UNL     1       1.539   3.514  19.991  0.00  0.00    +0.000 A 
ATOM      8  O   UNL     1       1.095   2.417  20.303  0.00  0.00    +0.000 OA
ATOM      9  H   UNL     1       0.678   4.530  21.538  0.00  0.00    +0.000 HD
ENDROOT
BRANCH   1  11
ATOM     10  C   UNL     1       3.673   1.550  18.461  0.00  0.00    +0.000 C 
ATOM     11  C   UNL     1       2.581   2.463  17.932  0.00  0.00    +0.000 C 
ENDBRANCH   1  11
BRANCH   2  12
ATOM     12  S   UNL     1       3.926   5.171  17.129  0.00  0.00    +0.000 S 
BRANCH  12  13
ATOM     13  C   UNL     1       5.518   5.692  17.753  0.00  0.00    +0.000 A 
ATOM     14  C   UNL     1       6.164   5.170  18.878  0.00  0.00    +0.000 A 
ATOM     15  C   UNL     1       7.401   5.684  19.293  0.00  0.00    +0.000 A 
ATOM     16  C   UNL     1       8.013   6.717  18.584  0.00  0.00    +0.000 A 
ATOM     17  C   UNL     1       7.401   7.224  17.444  0.00  0.00    +0.000 A 
ATOM     18  C   UNL     1       6.165   6.713  17.034  0.00  0.00    +0.000 A 
ENDBRANCH  12  13
ENDBRANCH   2  12
BRANCH   3  19
ATOM     19  C   UNL     1       2.882   7.403  18.980  0.00  0.00    +0.000 C 
BRANCH  19  20
ATOM     20  O   UNL     1       1.781   8.185  18.522  0.00  0.00    +0.000 OA
BRANCH  20  21
ATOM     21  C   UNL     1       1.832   9.536  18.956  0.00  0.00    +0.000 C 
BRANCH  21  22
ATOM     22  C   UNL     1       0.595  10.191  18.471  0.00  0.00    +0.000 A 
ATOM     23  C   UNL     1       0.010  11.389  18.822  0.00  0.00    +0.000 A 
ATOM     24  C   UNL     1      -1.355  11.241  18.502  0.00  0.00    +0.000 A 
ATOM     25  C   UNL     1      -2.543  11.887  18.876  0.00  0.00    +0.000 A 
ATOM     26  C   UNL     1      -3.743  11.466  18.294  0.00  0.00    +0.000 A 
ATOM     27  C   UNL     1      -3.748  10.488  17.294  0.00  0.00    +0.000 A 
ATOM     28  C   UNL     1      -2.580   9.801  16.939  0.00  0.00    +0.000 A 
ATOM     29  C   UNL     1      -1.425  10.160  17.632  0.00  0.00    +0.000 A 
ATOM     30  O   UNL     1      -0.229   9.494  17.631  0.00  0.00    +0.000 OA
ENDBRANCH  21  22
ENDBRANCH  20  21
ENDBRANCH  19  20
ENDBRANCH   3  19
TORSDOF 7
ENDMDL
MODEL 4
REMARK VINA RESULT:      -7.8      0.566      1.098
REMARK  Name = 
REMARK  8 active torsions:
REMARK  status: ('A' for Active; 'I' for Inactive)
REMARK    1  A    between atoms: C_1  and  C_2
REMARK    2  A    between atoms: C_2  and  C_3
REMARK    3  A    between atoms: C_4  and  S_5
REMARK    4  A    between atoms: S_5  and  C_6
REMARK    5  A    between atoms: N_12  and  C_13
REMARK    6  A    between atoms: C_13  and  O_14
REMARK    7  A    between atoms: O_14  and  C_15
REMARK    8  A    between atoms: C_15  and  C_16
REMARK                            x       y       z     vdW  Elec       q    Type
REMARK                         _______ _______ _______ _____ _____    ______ ____
ROOT
ATOM      1  C   UNL     1       2.864   3.995  19.345  0.00  0.00    +0.000 A 
ATOM      2  C   UNL     1       3.227   5.158  18.759  0.00  0.00    +0.000 A 
ATOM      3  N   UNL     1       2.706   6.378  19.206  0.00  0.00    +0.000 N 
ATOM      4  C   UNL     1       1.883   6.461  20.317  0.00  0.00    +0.000 A 
ATOM      5  O   UNL     1       1.364   7.498  20.729  0.00  0.00    +0.000 OA
ATOM      6  N   UNL     1       1.628   5.286  20.974  0.00  0.00    +0.000 N 
ATOM      7  C   UNL     1       2.005   4.058  20.573  0.00  0.00    +0.000 A 
ATOM      8  O   UNL     1       1.674   3.048  21.180  0.00  0.00    +0.000 OA
ATOM      9  H   UNL     1       1.029   5.364  21.802  0.00  0.00    +0.000 HD
ENDROOT
BRANCH   1  11
ATOM     10  C   UNL     1       2.085   2.065  17.937  0.00  0.00    +0.000 C 
ATOM     11  C   UNL     1       3.170   2.598  18.857  0.00  0.00    +0.000 C 
ENDBRANCH   1  11
BRANCH   2  12
ATOM     12  S   UNL     1       4.234   5.108  17.323  0.00  0.00    +0.000 S 
BRANCH  12  13
ATOM     13  C   UNL     1       5.773   5.904  17.763  0.00  0.00    +0.000 A 
ATOM     14  C   UNL     1       6.313   7.034  17.143  0.00  0.00    +0.000 A 
ATOM     15  C   UNL     1       7.550   7.551  17.554  0.00  0.00    +0.000 A 
ATOM     16  C   UNL     1       8.257   6.953  18.597  0.00  0.00    +0.000 A 
ATOM     17  C   UNL     1       7.718   5.849  19.247  0.00  0.00    +0.000 A 
ATOM     18  C   UNL     1       6.486   5.332  18.831  0.00  0.00    +0.000 A 
ENDBRANCH  12  13
ENDBRANCH   2  12
BRANCH   3  19
ATOM     19  C   UNL     1       2.947   7.641  18.516  0.00  0.00    +0.000 C 
BRANCH  19  20
ATOM     20  O   UNL     1       1.780   8.141  17.867  0.00  0.00    +0.000 OA
BRANCH  20  21
ATOM     21  C   UNL     1       1.720   9.559  17.836  0.00  0.00    +0.000 C 
BRANCH  21  22
ATOM     22  C   UNL     1       0.459   9.952  18.510  0.00  0.00    +0.000 A 
ATOM     23  C   UNL     1      -0.834  10.019  18.039  0.00  0.00    +0.000 A 
ATOM     24  C   UNL     1      -1.483  10.951  18.875  0.00  0.00    +0.000 A 
ATOM     25  C   UNL     1      -2.647  11.730  18.785  0.00  0.00    +0.000 A 
ATOM     26  C   UNL     1      -2.997  12.533  19.875  0.00  0.00    +0.000 A 
ATOM     27  C   UNL     1      -2.257  12.491  21.061  0.00  0.00    +0.000 A 
ATOM     28  C   UNL     1      -1.068  11.754  21.154  0.00  0.00    +0.000 A 
ATOM     29  C   UNL     1      -0.684  11.067  20.005  0.00  0.00    +0.000 A 
ATOM     30  O   UNL     1       0.527  10.473  19.773  0.00  0.00    +0.000 OA
ENDBRANCH  21  22
ENDBRANCH  20  21
ENDBRANCH  19  20
ENDBRANCH   3  19
TORSDOF 7
ENDMDL
MODEL 5
REMARK VINA RESULT:      -7.8      3.468      8.659
REMARK  Name = 
REMARK  8 active torsions:
REMARK  status: ('A' for Active; 'I' for Inactive)
REMARK    1  A    between atoms: C_1  and  C_2
REMARK    2  A    between atoms: C_2  and  C_3
REMARK    3  A    between atoms: C_4  and  S_5
REMARK    4  A    between atoms: S_5  and  C_6
REMARK    5  A    between atoms: N_12  and  C_13
REMARK    6  A    between atoms: C_13  and  O_14
REMARK    7  A    between atoms: O_14  and  C_15
REMARK    8  A    between atoms: C_15  and  C_16
REMARK                            x       y       z     vdW  Elec       q    Type
REMARK                         _______ _______ _______ _____ _____    ______ ____
ROOT
ATOM      1  C   UNL     1      -2.443  12.396  21.706  0.00  0.00    +0.000 A 
ATOM      2  C   UNL     1      -1.408  12.028  20.918  0.00  0.00    +0.000 A 
ATOM      3  N   UNL     1      -0.388  11.209  21.414  0.00  0.00    +0.000 N 
ATOM      4  C   UNL     1      -0.439  10.661  22.686  0.00  0.00    +0.000 A 
ATOM      5  O   UNL     1       0.447   9.971  23.188  0.00  0.00    +0.000 OA
ATOM      6  N   UNL     1      -1.558  10.943  23.424  0.00  0.00    +0.000 N 
ATOM      7  C   UNL     1      -2.545  11.788  23.073  0.00  0.00    +0.000 A 
ATOM      8  O   UNL     1      -3.479  12.042  23.823  0.00  0.00    +0.000 OA
ATOM      9  H   UNL     1      -1.590  10.521  24.357  0.00  0.00    +0.000 HD
ENDROOT
BRANCH   1  11
ATOM     10  C   UNL     1      -4.810  12.790  20.958  0.00  0.00    +0.000 C 
ATOM     11  C   UNL     1      -3.502  13.428  21.392  0.00  0.00    +0.000 C 
ENDBRANCH   1  11
BRANCH   2  12
ATOM     12  S   UNL     1      -1.271  12.725  19.314  0.00  0.00    +0.000 S 
BRANCH  12  13
ATOM     13  C   UNL     1      -2.035  11.560  18.195  0.00  0.00    +0.000 A 
ATOM     14  C   UNL     1      -1.403  10.461  17.605  0.00  0.00    +0.000 A 
ATOM     15  C   UNL     1      -2.098   9.632  16.713  0.00  0.00    +0.000 A 
ATOM     16  C   UNL     1      -3.436   9.883  16.408  0.00  0.00    +0.000 A 
ATOM     17  C   UNL     1      -4.089  10.951  17.013  0.00  0.00    +0.000 A 
ATOM     18  C   UNL     1      -3.392  11.779  17.899  0.00  0.00    +0.000 A 
ENDBRANCH  12  13
ENDBRANCH   2  12
BRANCH   3  19
ATOM     19  C   UNL     1       0.823  10.907  20.657  0.00  0.00    +0.000 C 
BRANCH  19  20
ATOM     20  O   UNL     1       0.926   9.526  20.317  0.00  0.00    +0.000 OA
BRANCH  20  21
ATOM     21  C   UNL     1       1.547   9.303  19.060  0.00  0.00    +0.000 C 
BRANCH  21  22
ATOM     22  C   UNL     1       2.073   7.918  19.079  0.00  0.00    +0.000 A 
ATOM     23  C   UNL     1       2.598   7.136  18.073  0.00  0.00    +0.000 A 
ATOM     24  C   UNL     1       2.401   5.806  18.498  0.00  0.00    +0.000 A 
ATOM     25  C   UNL     1       2.376   4.551  17.870  0.00  0.00    +0.000 A 
ATOM     26  C   UNL     1       2.185   3.414  18.660  0.00  0.00    +0.000 A 
ATOM     27  C   UNL     1       2.115   3.514  20.054  0.00  0.00    +0.000 A 
ATOM     28  C   UNL     1       2.093   4.761  20.695  0.00  0.00    +0.000 A 
ATOM     29  C   UNL     1       2.157   5.877  19.864  0.00  0.00    +0.000 A 
ATOM     30  O   UNL     1       1.929   7.178  20.221  0.00  0.00    +0.000 OA
ENDBRANCH  21  22
ENDBRANCH  20  21
ENDBRANCH  19  20
ENDBRANCH   3  19
TORSDOF 7
ENDMDL
MODEL 6
REMARK VINA RESULT:      -7.6      3.282      8.674
REMARK  Name = 
REMARK  8 active torsions:
REMARK  status: ('A' for Active; 'I' for Inactive)
REMARK    1  A    between atoms: C_1  and  C_2
REMARK    2  A    between atoms: C_2  and  C_3
REMARK    3  A    between atoms: C_4  and  S_5
REMARK    4  A    between atoms: S_5  and  C_6
REMARK    5  A    between atoms: N_12  and  C_13
REMARK    6  A    between atoms: C_13  and  O_14
REMARK    7  A    between atoms: O_14  and  C_15
REMARK    8  A    between atoms: C_15  and  C_16
REMARK                            x       y       z     vdW  Elec       q    Type
REMARK                         _______ _______ _______ _____ _____    ______ ____
ROOT
ATOM      1  C   UNL     1      -0.576  12.532  20.689  0.00  0.00    +0.000 A 
ATOM      2  C   UNL     1      -0.479  11.219  20.383  0.00  0.00    +0.000 A 
ATOM      3  N   UNL     1      -0.426  10.250  21.392  0.00  0.00    +0.000 N 
ATOM      4  C   UNL     1      -0.569  10.577  22.731  0.00  0.00    +0.000 A 
ATOM      5  O   UNL     1      -0.489   9.776  23.661  0.00  0.00    +0.000 OA
ATOM      6  N   UNL     1      -0.794  11.900  23.013  0.00  0.00    +0.000 N 
ATOM      7  C   UNL     1      -0.771  12.912  22.126  0.00  0.00    +0.000 A 
ATOM      8  O   UNL     1      -0.911  14.079  22.471  0.00  0.00    +0.000 OA
ATOM      9  H   UNL     1      -0.912  12.126  24.005  0.00  0.00    +0.000 HD
ENDROOT
BRANCH   1  11
ATOM     10  C   UNL     1       1.008  14.137  19.580  0.00  0.00    +0.000 C 
ATOM     11  C   UNL     1      -0.438  13.699  19.739  0.00  0.00    +0.000 C 
ENDBRANCH   1  11
BRANCH   2  12
ATOM     12  S   UNL     1      -0.253  10.751  18.707  0.00  0.00    +0.000 S 
BRANCH  12  13
ATOM     13  C   UNL     1      -1.863  10.847  17.939  0.00  0.00    +0.000 A 
ATOM     14  C   UNL     1      -2.956  11.574  18.421  0.00  0.00    +0.000 A 
ATOM     15  C   UNL     1      -4.185  11.546  17.748  0.00  0.00    +0.000 A 
ATOM     16  C   UNL     1      -4.337  10.801  16.579  0.00  0.00    +0.000 A 
ATOM     17  C   UNL     1      -3.251  10.100  16.067  0.00  0.00    +0.000 A 
ATOM     18  C   UNL     1      -2.027  10.126  16.743  0.00  0.00    +0.000 A 
ENDBRANCH  12  13
ENDBRANCH   2  12
BRANCH   3  19
ATOM     19  C   UNL     1      -0.171   8.840  21.122  0.00  0.00    +0.000 C 
BRANCH  19  20
ATOM     20  O   UNL     1       1.199   8.487  21.301  0.00  0.00    +0.000 OA
BRANCH  20  21
ATOM     21  C   UNL     1       1.911   8.360  20.080  0.00  0.00    +0.000 C 
BRANCH  21  22
ATOM     22  C   UNL     1       2.104   6.910  19.842  0.00  0.00    +0.000 A 
ATOM     23  C   UNL     1       2.536   6.227  18.726  0.00  0.00    +0.000 A 
ATOM     24  C   UNL     1       1.999   4.929  18.856  0.00  0.00    +0.000 A 
ATOM     25  C   UNL     1       1.753   3.860  17.982  0.00  0.00    +0.000 A 
ATOM     26  C   UNL     1       1.229   2.676  18.509  0.00  0.00    +0.000 A 
ATOM     27  C   UNL     1       1.041   2.527  19.887  0.00  0.00    +0.000 A 
ATOM     28  C   UNL     1       1.238   3.598  20.770  0.00  0.00    +0.000 A 
ATOM     29  C   UNL     1       1.639   4.801  20.191  0.00  0.00    +0.000 A 
ATOM     30  O   UNL     1       1.678   6.027  20.797  0.00  0.00    +0.000 OA
ENDBRANCH  21  22
ENDBRANCH  20  21
ENDBRANCH  19  20
ENDBRANCH   3  19
TORSDOF 7
ENDMDL
MODEL 7
REMARK VINA RESULT:      -7.6      2.242      4.691
REMARK  Name = 
REMARK  8 active torsions:
REMARK  status: ('A' for Active; 'I' for Inactive)
REMARK    1  A    between atoms: C_1  and  C_2
REMARK    2  A    between atoms: C_2  and  C_3
REMARK    3  A    between atoms: C_4  and  S_5
REMARK    4  A    between atoms: S_5  and  C_6
REMARK    5  A    between atoms: N_12  and  C_13
REMARK    6  A    between atoms: C_13  and  O_14
REMARK    7  A    between atoms: O_14  and  C_15
REMARK    8  A    between atoms: C_15  and  C_16
REMARK                            x       y       z     vdW  Elec       q    Type
REMARK                         _______ _______ _______ _____ _____    ______ ____
ROOT
ATOM      1  C   UNL     1       6.161   5.201  17.890  0.00  0.00    +0.000 A 
ATOM      2  C   UNL     1       4.913   5.699  18.035  0.00  0.00    +0.000 A 
ATOM      3  N   UNL     1       4.327   6.471  17.024  0.00  0.00    +0.000 N 
ATOM      4  C   UNL     1       4.950   6.675  15.804  0.00  0.00    +0.000 A 
ATOM      5  O   UNL     1       4.503   7.377  14.897  0.00  0.00    +0.000 OA
ATOM      6  N   UNL     1       6.161   6.057  15.628  0.00  0.00    +0.000 N 
ATOM      7  C   UNL     1       6.844   5.374  16.566  0.00  0.00    +0.000 A 
ATOM      8  O   UNL     1       7.956   4.912  16.349  0.00  0.00    +0.000 OA
ATOM      9  H   UNL     1       6.604   6.205  14.716  0.00  0.00    +0.000 HD
ENDROOT
BRANCH   1  11
ATOM     10  C   UNL     1       7.893   5.527  19.681  0.00  0.00    +0.000 C 
ATOM     11  C   UNL     1       7.002   4.535  18.953  0.00  0.00    +0.000 C 
ENDBRANCH   1  11
BRANCH   2  12
ATOM     12  S   UNL     1       4.094   5.506  19.575  0.00  0.00    +0.000 S 
BRANCH  12  13
ATOM     13  C   UNL     1       2.850   4.248  19.326  0.00  0.00    +0.000 A 
ATOM     14  C   UNL     1       2.892   3.238  18.360  0.00  0.00    +0.000 A 
ATOM     15  C   UNL     1       1.836   2.324  18.237  0.00  0.00    +0.000 A 
ATOM     16  C   UNL     1       0.731   2.398  19.084  0.00  0.00    +0.000 A 
ATOM     17  C   UNL     1       0.690   3.375  20.073  0.00  0.00    +0.000 A 
ATOM     18  C   UNL     1       1.742   4.289  20.190  0.00  0.00    +0.000 A 
ENDBRANCH  12  13
ENDBRANCH   2  12
BRANCH   3  19
ATOM     19  C   UNL     1       3.049   7.154  17.190  0.00  0.00    +0.000 C 
BRANCH  19  20
ATOM     20  O   UNL     1       3.141   8.285  18.053  0.00  0.00    +0.000 OA
BRANCH  20  21
ATOM     21  C   UNL     1       2.225   9.318  17.725  0.00  0.00    +0.000 C 
BRANCH  21  22
ATOM     22  C   UNL     1       1.247   9.395  18.836  0.00  0.00    +0.000 A 
ATOM     23  C   UNL     1       0.127  10.181  19.001  0.00  0.00    +0.000 A 
ATOM     24  C   UNL     1      -0.071  10.255  20.396  0.00  0.00    +0.000 A 
ATOM     25  C   UNL     1      -0.772  11.109  21.260  0.00  0.00    +0.000 A 
ATOM     26  C   UNL     1      -0.763  10.826  22.629  0.00  0.00    +0.000 A 
ATOM     27  C   UNL     1      -0.149   9.668  23.116  0.00  0.00    +0.000 A 
ATOM     28  C   UNL     1       0.594   8.827  22.276  0.00  0.00    +0.000 A 
ATOM     29  C   UNL     1       0.669   9.212  20.938  0.00  0.00    +0.000 A 
ATOM     30  O   UNL     1       1.503   8.695  19.984  0.00  0.00    +0.000 OA
ENDBRANCH  21  22
ENDBRANCH  20  21
ENDBRANCH  19  20
ENDBRANCH   3  19
TORSDOF 7
ENDMDL
MODEL 8
REMARK VINA RESULT:      -7.6      1.040      1.823
REMARK  Name = 
REMARK  8 active torsions:
REMARK  status: ('A' for Active; 'I' for Inactive)
REMARK    1  A    between atoms: C_1  and  C_2
REMARK    2  A    between atoms: C_2  and  C_3
REMARK    3  A    between atoms: C_4  and  S_5
REMARK    4  A    between atoms: S_5  and  C_6
REMARK    5  A    between atoms: N_12  and  C_13
REMARK    6  A    between atoms: C_13  and  O_14
REMARK    7  A    between atoms: O_14  and  C_15
REMARK    8  A    between atoms: C_15  and  C_16
REMARK                            x       y       z     vdW  Elec       q    Type
REMARK                         _______ _______ _______ _____ _____    ______ ____
ROOT
ATOM      1  C   UNL     1       3.407   3.757  19.544  0.00  0.00    +0.000 A 
ATOM      2  C   UNL     1       3.356   4.948  18.907  0.00  0.00    +0.000 A 
ATOM      3  N   UNL     1       2.532   5.977  19.378  0.00  0.00    +0.000 N 
ATOM      4  C   UNL     1       1.815   5.860  20.558  0.00  0.00    +0.000 A 
ATOM      5  O   UNL     1       1.044   6.713  20.997  0.00  0.00    +0.000 OA
ATOM      6  N   UNL     1       1.978   4.692  21.256  0.00  0.00    +0.000 N 
ATOM      7  C   UNL     1       2.673   3.615  20.843  0.00  0.00    +0.000 A 
ATOM      8  O   UNL     1       2.710   2.580  21.496  0.00  0.00    +0.000 OA
ATOM      9  H   UNL     1       1.454   4.625  22.133  0.00  0.00    +0.000 HD
ENDROOT
BRANCH   1  11
ATOM     10  C   UNL     1       3.184   1.702  18.114  0.00  0.00    +0.000 C 
ATOM     11  C   UNL     1       4.077   2.494  19.054  0.00  0.00    +0.000 C 
ENDBRANCH   1  11
BRANCH   2  12
ATOM     12  S   UNL     1       4.210   5.137  17.386  0.00  0.00    +0.000 S 
BRANCH  12  13
ATOM     13  C   UNL     1       5.758   5.940  17.778  0.00  0.00    +0.000 A 
ATOM     14  C   UNL     1       6.271   7.076  17.145  0.00  0.00    +0.000 A 
ATOM     15  C   UNL     1       7.517   7.599  17.517  0.00  0.00    +0.000 A 
ATOM     16  C   UNL     1       8.262   7.002  18.533  0.00  0.00    +0.000 A 
ATOM     17  C   UNL     1       7.751   5.892  19.196  0.00  0.00    +0.000 A 
ATOM     18  C   UNL     1       6.509   5.370  18.820  0.00  0.00    +0.000 A 
ENDBRANCH  12  13
ENDBRANCH   2  12
BRANCH   3  19
ATOM     19  C   UNL     1       2.325   7.222  18.647  0.00  0.00    +0.000 C 
BRANCH  19  20
ATOM     20  O   UNL     1       2.015   8.317  19.507  0.00  0.00    +0.000 OA
BRANCH  20  21
ATOM     21  C   UNL     1       1.331   9.372  18.849  0.00  0.00    +0.000 C 
BRANCH  21  22
ATOM     22  C   UNL     1       0.744  10.230  19.905  0.00  0.00    +0.000 A 
ATOM     23  C   UNL     1       0.882  10.198  21.276  0.00  0.00    +0.000 A 
ATOM     24  C   UNL     1      -0.278  10.822  21.779  0.00  0.00    +0.000 A 
ATOM     25  C   UNL     1      -0.945  10.841  23.013  0.00  0.00    +0.000 A 
ATOM     26  C   UNL     1      -2.086  11.639  23.142  0.00  0.00    +0.000 A 
ATOM     27  C   UNL     1      -2.500  12.470  22.096  0.00  0.00    +0.000 A 
ATOM     28  C   UNL     1      -1.875  12.431  20.842  0.00  0.00    +0.000 A 
ATOM     29  C   UNL     1      -0.820  11.529  20.713  0.00  0.00    +0.000 A 
ATOM     30  O   UNL     1      -0.208  11.147  19.550  0.00  0.00    +0.000 OA
ENDBRANCH  21  22
ENDBRANCH  20  21
ENDBRANCH  19  20
ENDBRANCH   3  19
TORSDOF 7
ENDMDL
MODEL 9
REMARK VINA RESULT:      -7.5      3.933      7.299
REMARK  Name = 
REMARK  8 active torsions:
REMARK  status: ('A' for Active; 'I' for Inactive)
REMARK    1  A    between atoms: C_1  and  C_2
REMARK    2  A    between atoms: C_2  and  C_3
REMARK    3  A    between atoms: C_4  and  S_5
REMARK    4  A    between atoms: S_5  and  C_6
REMARK    5  A    between atoms: N_12  and  C_13
REMARK    6  A    between atoms: C_13  and  O_14
REMARK    7  A    between atoms: O_14  and  C_15
REMARK    8  A    between atoms: C_15  and  C_16
REMARK                            x       y       z     vdW  Elec       q    Type
REMARK                         _______ _______ _______ _____ _____    ______ ____
ROOT
ATOM      1  C   UNL     1       1.175   9.096  19.555  0.00  0.00    +0.000 A 
ATOM      2  C   UNL     1       0.726  10.302  19.968  0.00  0.00    +0.000 A 
ATOM      3  N   UNL     1       0.473  10.546  21.323  0.00  0.00    +0.000 N 
ATOM      4  C   UNL     1       0.760   9.610  22.303  0.00  0.00    +0.000 A 
ATOM      5  O   UNL     1       0.519   9.754  23.501  0.00  0.00    +0.000 OA
ATOM      6  N   UNL     1       1.333   8.441  21.877  0.00  0.00    +0.000 N 
ATOM      7  C   UNL     1       1.531   8.077  20.596  0.00  0.00    +0.000 A 
ATOM      8  O   UNL     1       1.985   6.981  20.297  0.00  0.00    +0.000 OA
ATOM      9  H   UNL     1       1.553   7.763  22.614  0.00  0.00    +0.000 HD
ENDROOT
BRANCH   1  11
ATOM     10  C   UNL     1       2.729   8.681  17.624  0.00  0.00    +0.000 C 
ATOM     11  C   UNL     1       1.298   8.613  18.129  0.00  0.00    +0.000 C 
ENDBRANCH   1  11
BRANCH   2  12
ATOM     12  S   UNL     1       0.306  11.510  18.767  0.00  0.00    +0.000 S 
BRANCH  12  13
ATOM     13  C   UNL     1      -1.407  11.221  18.344  0.00  0.00    +0.000 A 
ATOM     14  C   UNL     1      -2.497  11.967  18.801  0.00  0.00    +0.000 A 
ATOM     15  C   UNL     1      -3.804  11.623  18.428  0.00  0.00    +0.000 A 
ATOM     16  C   UNL     1      -4.038  10.538  17.583  0.00  0.00    +0.000 A 
ATOM     17  C   UNL     1      -2.962   9.807  17.092  0.00  0.00    +0.000 A 
ATOM     18  C   UNL     1      -1.660  10.149  17.471  0.00  0.00    +0.000 A 
ENDBRANCH  12  13
ENDBRANCH   2  12
BRANCH   3  19
ATOM     19  C   UNL     1      -0.153  11.774  21.802  0.00  0.00    +0.000 C 
BRANCH  19  20
ATOM     20  O   UNL     1      -1.509  11.580  22.198  0.00  0.00    +0.000 OA
BRANCH  20  21
ATOM     21  C   UNL     1      -1.870  12.329  23.349  0.00  0.00    +0.000 C 
BRANCH  21  22
ATOM     22  C   UNL     1      -3.288  12.726  23.176  0.00  0.00    +0.000 A 
ATOM     23  C   UNL     1      -4.238  13.108  24.098  0.00  0.00    +0.000 A 
ATOM     24  C   UNL     1      -5.478  12.820  23.492  0.00  0.00    +0.000 A 
ATOM     25  C   UNL     1      -6.793  12.637  23.947  0.00  0.00    +0.000 A 
ATOM     26  C   UNL     1      -7.797  12.396  23.005  0.00  0.00    +0.000 A 
ATOM     27  C   UNL     1      -7.516  12.428  21.635  0.00  0.00    +0.000 A 
ATOM     28  C   UNL     1      -6.203  12.564  21.163  0.00  0.00    +0.000 A 
ATOM     29  C   UNL     1      -5.212  12.674  22.136  0.00  0.00    +0.000 A 
ATOM     30  O   UNL     1      -3.860  12.591  21.940  0.00  0.00    +0.000 OA
ENDBRANCH  21  22
ENDBRANCH  20  21
ENDBRANCH  19  20
ENDBRANCH   3  19
TORSDOF 7
ENDMDL
