MODEL 1
REMARK VINA RESULT:      -6.0      0.000      0.000
REMARK  Name = 
REMARK  6 active torsions:
REMARK  status: ('A' for Active; 'I' for Inactive)
REMARK    1  A    between atoms: C_1  and  C_2
REMARK    2  A    between atoms: C_5  and  O_6
REMARK    3  A    between atoms: O_6  and  C_7
REMARK    4  A    between atoms: C_7  and  C_8
REMARK    5  A    between atoms: C_8  and  O_10
REMARK    6  A    between atoms: C_11  and  O_12
REMARK                            x       y       z     vdW  Elec       q    Type
REMARK                         _______ _______ _______ _____ _____    ______ ____
ROOT
ATOM      1  C   UNL     1       1.060   3.181  20.616  0.00  0.00    +0.000 C 
ATOM      2  C   UNL     1       2.077   3.292  19.518  0.00  0.00    +0.000 A 
ATOM      3  C   UNL     1       1.693   3.342  18.171  0.00  0.00    +0.000 A 
ATOM      4  C   UNL     1       2.652   3.429  17.154  0.00  0.00    +0.000 A 
ATOM      5  C   UNL     1       4.011   3.452  17.476  0.00  0.00    +0.000 A 
ATOM      6  C   UNL     1       4.385   3.432  18.823  0.00  0.00    +0.000 A 
ATOM      7  C   UNL     1       3.436   3.348  19.837  0.00  0.00    +0.000 A 
ENDROOT
BRANCH   6   8
ATOM      8  O   UNL     1       5.703   3.472  19.189  0.00  0.00    +0.000 OA
ATOM      9  H   UNL     1       5.936   4.414  19.244  0.00  0.00    +0.000 HD
ENDBRANCH   6   8
BRANCH   5  10
ATOM     10  O   UNL     1       5.038   3.518  16.566  0.00  0.00    +0.000 OA
BRANCH  10  11
ATOM     11  C   UNL     1       5.436   4.848  16.210  0.00  0.00    +0.000 C 
BRANCH  11  12
ATOM     12  C   UNL     1       6.955   4.907  16.197  0.00  0.00    +0.000 C 
ATOM     13  O   UNL     1       7.666   4.463  17.088  0.00  0.00    +0.000 OA
BRANCH  12  14
ATOM     14  O   UNL     1       7.462   5.461  15.068  0.00  0.00    +0.000 OA
ATOM     15  H   UNL     1       7.752   6.380  15.240  0.00  0.00    +0.000 HD
ENDBRANCH  12  14
ENDBRANCH  11  12
ENDBRANCH  10  11
ENDBRANCH   5  10
TORSDOF 5
ENDMDL
MODEL 2
REMARK VINA RESULT:      -5.7      1.342      1.538
REMARK  Name = 
REMARK  6 active torsions:
REMARK  status: ('A' for Active; 'I' for Inactive)
REMARK    1  A    between atoms: C_1  and  C_2
REMARK    2  A    between atoms: C_5  and  O_6
REMARK    3  A    between atoms: O_6  and  C_7
REMARK    4  A    between atoms: C_7  and  C_8
REMARK    5  A    between atoms: C_8  and  O_10
REMARK    6  A    between atoms: C_11  and  O_12
REMARK                            x       y       z     vdW  Elec       q    Type
REMARK                         _______ _______ _______ _____ _____    ______ ____
ROOT
ATOM      1  C   UNL     1       0.771   3.974  20.388  0.00  0.00    +0.000 C 
ATOM      2  C   UNL     1       2.004   4.039  19.535  0.00  0.00    +0.000 A 
ATOM      3  C   UNL     1       2.061   4.856  18.397  0.00  0.00    +0.000 A 
ATOM      4  C   UNL     1       3.211   4.895  17.600  0.00  0.00    +0.000 A 
ATOM      5  C   UNL     1       4.315   4.104  17.925  0.00  0.00    +0.000 A 
ATOM      6  C   UNL     1       4.262   3.314  19.077  0.00  0.00    +0.000 A 
ATOM      7  C   UNL     1       3.122   3.272  19.875  0.00  0.00    +0.000 A 
ENDROOT
BRANCH   6   8
ATOM      8  O   UNL     1       5.324   2.536  19.449  0.00  0.00    +0.000 OA
ATOM      9  H   UNL     1       6.055   3.150  19.630  0.00  0.00    +0.000 HD
ENDBRANCH   6   8
BRANCH   5  10
ATOM     10  O   UNL     1       5.486   4.047  17.209  0.00  0.00    +0.000 OA
BRANCH  10  11
ATOM     11  C   UNL     1       6.265   5.250  17.243  0.00  0.00    +0.000 C 
BRANCH  11  12
ATOM     12  C   UNL     1       7.462   5.022  18.152  0.00  0.00    +0.000 C 
ATOM     13  O   UNL     1       7.633   5.598  19.217  0.00  0.00    +0.000 OA
BRANCH  12  14
ATOM     14  O   UNL     1       8.312   4.070  17.693  0.00  0.00    +0.000 OA
ATOM     15  H   UNL     1       9.122   4.044  18.242  0.00  0.00    +0.000 HD
ENDBRANCH  12  14
ENDBRANCH  11  12
ENDBRANCH  10  11
ENDBRANCH   5  10
TORSDOF 5
ENDMDL
MODEL 3
REMARK VINA RESULT:      -5.7      1.433      1.513
REMARK  Name = 
REMARK  6 active torsions:
REMARK  status: ('A' for Active; 'I' for Inactive)
REMARK    1  A    between atoms: C_1  and  C_2
REMARK    2  A    between atoms: C_5  and  O_6
REMARK    3  A    between atoms: O_6  and  C_7
REMARK    4  A    between atoms: C_7  and  C_8
REMARK    5  A    between atoms: C_8  and  O_10
REMARK    6  A    between atoms: C_11  and  O_12
REMARK                            x       y       z     vdW  Elec       q    Type
REMARK                         _______ _______ _______ _____ _____    ______ ____
ROOT
ATOM      1  C   UNL     1       0.696   2.252  18.793  0.00  0.00    +0.000 C 
ATOM      2  C   UNL     1       1.860   3.190  18.667  0.00  0.00    +0.000 A 
ATOM      3  C   UNL     1       1.711   4.466  18.106  0.00  0.00    +0.000 A 
ATOM      4  C   UNL     1       2.808   5.326  17.978  0.00  0.00    +0.000 A 
ATOM      5  C   UNL     1       4.074   4.912  18.399  0.00  0.00    +0.000 A 
ATOM      6  C   UNL     1       4.209   3.650  18.985  0.00  0.00    +0.000 A 
ATOM      7  C   UNL     1       3.122   2.791  19.116  0.00  0.00    +0.000 A 
ENDROOT
BRANCH   6   8
ATOM      8  O   UNL     1       5.424   3.206  19.431  0.00  0.00    +0.000 OA
ATOM      9  H   UNL     1       5.370   3.208  20.401  0.00  0.00    +0.000 HD
ENDBRANCH   6   8
BRANCH   5  10
ATOM     10  O   UNL     1       5.222   5.660  18.308  0.00  0.00    +0.000 OA
BRANCH  10  11
ATOM     11  C   UNL     1       5.598   6.015  16.971  0.00  0.00    +0.000 C 
BRANCH  11  12
ATOM     12  C   UNL     1       7.090   5.774  16.811  0.00  0.00    +0.000 C 
ATOM     13  O   UNL     1       7.627   4.684  16.956  0.00  0.00    +0.000 OA
BRANCH  12  14
ATOM     14  O   UNL     1       7.777   6.882  16.440  0.00  0.00    +0.000 OA
ATOM     15  H   UNL     1       7.677   7.586  17.113  0.00  0.00    +0.000 HD
ENDBRANCH  12  14
ENDBRANCH  11  12
ENDBRANCH  10  11
ENDBRANCH   5  10
TORSDOF 5
ENDMDL
MODEL 4
REMARK VINA RESULT:      -5.6      1.596      1.972
REMARK  Name = 
REMARK  6 active torsions:
REMARK  status: ('A' for Active; 'I' for Inactive)
REMARK    1  A    between atoms: C_1  and  C_2
REMARK    2  A    between atoms: C_5  and  O_6
REMARK    3  A    between atoms: O_6  and  C_7
REMARK    4  A    between atoms: C_7  and  C_8
REMARK    5  A    between atoms: C_8  and  O_10
REMARK    6  A    between atoms: C_11  and  O_12
REMARK                            x       y       z     vdW  Elec       q    Type
REMARK                         _______ _______ _______ _____ _____    ______ ____
ROOT
ATOM      1  C   UNL     1       0.549   2.860  19.134  0.00  0.00    +0.000 C 
ATOM      2  C   UNL     1       1.984   3.294  19.076  0.00  0.00    +0.000 A 
ATOM      3  C   UNL     1       2.351   4.531  18.527  0.00  0.00    +0.000 A 
ATOM      4  C   UNL     1       3.695   4.917  18.464  0.00  0.00    +0.000 A 
ATOM      5  C   UNL     1       4.692   4.061  18.937  0.00  0.00    +0.000 A 
ATOM      6  C   UNL     1       4.317   2.843  19.510  0.00  0.00    +0.000 A 
ATOM      7  C   UNL     1       2.982   2.453  19.578  0.00  0.00    +0.000 A 
ENDROOT
BRANCH   6   8
ATOM      8  O   UNL     1       5.255   1.978  20.005  0.00  0.00    +0.000 OA
ATOM      9  H   UNL     1       5.228   2.080  20.971  0.00  0.00    +0.000 HD
ENDBRANCH   6   8
BRANCH   5  10
ATOM     10  O   UNL     1       6.039   4.326  18.910  0.00  0.00    +0.000 OA
BRANCH  10  11
ATOM     11  C   UNL     1       6.580   4.533  17.599  0.00  0.00    +0.000 C 
BRANCH  11  12
ATOM     12  C   UNL     1       7.352   5.842  17.600  0.00  0.00    +0.000 C 
ATOM     13  O   UNL     1       7.535   6.531  16.605  0.00  0.00    +0.000 OA
BRANCH  12  14
ATOM     14  O   UNL     1       7.786   6.211  18.831  0.00  0.00    +0.000 OA
ATOM     15  H   UNL     1       8.317   7.031  18.773  0.00  0.00    +0.000 HD
ENDBRANCH  12  14
ENDBRANCH  11  12
ENDBRANCH  10  11
ENDBRANCH   5  10
TORSDOF 5
ENDMDL
MODEL 5
REMARK VINA RESULT:      -5.5      3.239      5.508
REMARK  Name = 
REMARK  6 active torsions:
REMARK  status: ('A' for Active; 'I' for Inactive)
REMARK    1  A    between atoms: C_1  and  C_2
REMARK    2  A    between atoms: C_5  and  O_6
REMARK    3  A    between atoms: O_6  and  C_7
REMARK    4  A    between atoms: C_7  and  C_8
REMARK    5  A    between atoms: C_8  and  O_10
REMARK    6  A    between atoms: C_11  and  O_12
REMARK                            x       y       z     vdW  Elec       q    Type
REMARK                         _______ _______ _______ _____ _____    ______ ____
ROOT
ATOM      1  C   UNL     1       5.940   4.080  15.910  0.00  0.00    +0.000 C 
ATOM      2  C   UNL     1       4.890   4.378  16.939  0.00  0.00    +0.000 A 
ATOM      3  C   UNL     1       5.152   5.225  18.025  0.00  0.00    +0.000 A 
ATOM      4  C   UNL     1       4.169   5.482  18.988  0.00  0.00    +0.000 A 
ATOM      5  C   UNL     1       2.913   4.881  18.883  0.00  0.00    +0.000 A 
ATOM      6  C   UNL     1       2.649   4.061  17.782  0.00  0.00    +0.000 A 
ATOM      7  C   UNL     1       3.621   3.803  16.820  0.00  0.00    +0.000 A 
ENDROOT
BRANCH   6   8
ATOM      8  O   UNL     1       1.428   3.464  17.624  0.00  0.00    +0.000 OA
ATOM      9  H   UNL     1       1.429   3.087  16.728  0.00  0.00    +0.000 HD
ENDBRANCH   6   8
BRANCH   5  10
ATOM     10  O   UNL     1       1.881   5.044  19.774  0.00  0.00    +0.000 OA
BRANCH  10  11
ATOM     11  C   UNL     1       2.149   4.553  21.094  0.00  0.00    +0.000 C 
BRANCH  11  12
ATOM     12  C   UNL     1       1.405   3.241  21.278  0.00  0.00    +0.000 C 
ATOM     13  O   UNL     1       1.642   2.437  22.169  0.00  0.00    +0.000 OA
BRANCH  12  14
ATOM     14  O   UNL     1       0.404   3.060  20.381  0.00  0.00    +0.000 OA
ATOM     15  H   UNL     1       0.010   2.169  20.485  0.00  0.00    +0.000 HD
ENDBRANCH  12  14
ENDBRANCH  11  12
ENDBRANCH  10  11
ENDBRANCH   5  10
TORSDOF 5
ENDMDL
MODEL 6
REMARK VINA RESULT:      -5.5      1.121      1.503
REMARK  Name = 
REMARK  6 active torsions:
REMARK  status: ('A' for Active; 'I' for Inactive)
REMARK    1  A    between atoms: C_1  and  C_2
REMARK    2  A    between atoms: C_5  and  O_6
REMARK    3  A    between atoms: O_6  and  C_7
REMARK    4  A    between atoms: C_7  and  C_8
REMARK    5  A    between atoms: C_8  and  O_10
REMARK    6  A    between atoms: C_11  and  O_12
REMARK                            x       y       z     vdW  Elec       q    Type
REMARK                         _______ _______ _______ _____ _____    ______ ____
ROOT
ATOM      1  C   UNL     1       1.069   3.670  20.698  0.00  0.00    +0.000 C 
ATOM      2  C   UNL     1       2.073   3.684  19.584  0.00  0.00    +0.000 A 
ATOM      3  C   UNL     1       2.387   4.866  18.899  0.00  0.00    +0.000 A 
ATOM      4  C   UNL     1       3.314   4.863  17.850  0.00  0.00    +0.000 A 
ATOM      5  C   UNL     1       3.929   3.670  17.465  0.00  0.00    +0.000 A 
ATOM      6  C   UNL     1       3.634   2.500  18.171  0.00  0.00    +0.000 A 
ATOM      7  C   UNL     1       2.715   2.498  19.217  0.00  0.00    +0.000 A 
ENDROOT
BRANCH   6   8
ATOM      8  O   UNL     1       4.225   1.311  17.844  0.00  0.00    +0.000 OA
ATOM      9  H   UNL     1       3.589   0.843  17.278  0.00  0.00    +0.000 HD
ENDBRANCH   6   8
BRANCH   5  10
ATOM     10  O   UNL     1       4.837   3.543  16.442  0.00  0.00    +0.000 OA
BRANCH  10  11
ATOM     11  C   UNL     1       5.301   4.786  15.898  0.00  0.00    +0.000 C 
BRANCH  11  12
ATOM     12  C   UNL     1       6.813   4.836  16.035  0.00  0.00    +0.000 C 
ATOM     13  O   UNL     1       7.555   5.409  15.248  0.00  0.00    +0.000 OA
BRANCH  12  14
ATOM     14  O   UNL     1       7.273   4.220  17.153  0.00  0.00    +0.000 OA
ATOM     15  H   UNL     1       7.426   4.875  17.864  0.00  0.00    +0.000 HD
ENDBRANCH  12  14
ENDBRANCH  11  12
ENDBRANCH  10  11
ENDBRANCH   5  10
TORSDOF 5
ENDMDL
MODEL 7
REMARK VINA RESULT:      -5.5      2.282      4.970
REMARK  Name = 
REMARK  6 active torsions:
REMARK  status: ('A' for Active; 'I' for Inactive)
REMARK    1  A    between atoms: C_1  and  C_2
REMARK    2  A    between atoms: C_5  and  O_6
REMARK    3  A    between atoms: O_6  and  C_7
REMARK    4  A    between atoms: C_7  and  C_8
REMARK    5  A    between atoms: C_8  and  O_10
REMARK    6  A    between atoms: C_11  and  O_12
REMARK                            x       y       z     vdW  Elec       q    Type
REMARK                         _______ _______ _______ _____ _____    ______ ____
ROOT
ATOM      1  C   UNL     1       7.649   7.545  17.671  0.00  0.00    +0.000 C 
ATOM      2  C   UNL     1       6.634   6.451  17.507  0.00  0.00    +0.000 A 
ATOM      3  C   UNL     1       5.728   6.452  16.437  0.00  0.00    +0.000 A 
ATOM      4  C   UNL     1       4.775   5.435  16.304  0.00  0.00    +0.000 A 
ATOM      5  C   UNL     1       4.709   4.411  17.252  0.00  0.00    +0.000 A 
ATOM      6  C   UNL     1       5.634   4.401  18.299  0.00  0.00    +0.000 A 
ATOM      7  C   UNL     1       6.585   5.408  18.436  0.00  0.00    +0.000 A 
ENDROOT
BRANCH   6   8
ATOM      8  O   UNL     1       5.622   3.409  19.242  0.00  0.00    +0.000 OA
ATOM      9  H   UNL     1       6.520   3.037  19.250  0.00  0.00    +0.000 HD
ENDBRANCH   6   8
BRANCH   5  10
ATOM     10  O   UNL     1       3.807   3.374  17.234  0.00  0.00    +0.000 OA
BRANCH  10  11
ATOM     11  C   UNL     1       2.503   3.710  17.724  0.00  0.00    +0.000 C 
BRANCH  11  12
ATOM     12  C   UNL     1       1.846   2.444  18.248  0.00  0.00    +0.000 C 
ATOM     13  O   UNL     1       0.639   2.310  18.400  0.00  0.00    +0.000 OA
BRANCH  12  14
ATOM     14  O   UNL     1       2.726   1.441  18.488  0.00  0.00    +0.000 OA
ATOM     15  H   UNL     1       2.573   0.697  17.871  0.00  0.00    +0.000 HD
ENDBRANCH  12  14
ENDBRANCH  11  12
ENDBRANCH  10  11
ENDBRANCH   5  10
TORSDOF 5
ENDMDL
MODEL 8
REMARK VINA RESULT:      -5.5      1.199      1.199
REMARK  Name = 
REMARK  6 active torsions:
REMARK  status: ('A' for Active; 'I' for Inactive)
REMARK    1  A    between atoms: C_1  and  C_2
REMARK    2  A    between atoms: C_5  and  O_6
REMARK    3  A    between atoms: O_6  and  C_7
REMARK    4  A    between atoms: C_7  and  C_8
REMARK    5  A    between atoms: C_8  and  O_10
REMARK    6  A    between atoms: C_11  and  O_12
REMARK                            x       y       z     vdW  Elec       q    Type
REMARK                         _______ _______ _______ _____ _____    ______ ____
ROOT
ATOM      1  C   UNL     1       0.648   2.896  19.765  0.00  0.00    +0.000 C 
ATOM      2  C   UNL     1       1.873   3.522  19.165  0.00  0.00    +0.000 A 
ATOM      3  C   UNL     1       1.777   4.564  18.232  0.00  0.00    +0.000 A 
ATOM      4  C   UNL     1       2.927   5.130  17.668  0.00  0.00    +0.000 A 
ATOM      5  C   UNL     1       4.189   4.647  18.021  0.00  0.00    +0.000 A 
ATOM      6  C   UNL     1       4.278   3.629  18.974  0.00  0.00    +0.000 A 
ATOM      7  C   UNL     1       3.139   3.064  19.540  0.00  0.00    +0.000 A 
ENDROOT
BRANCH   6   8
ATOM      8  O   UNL     1       5.492   3.135  19.367  0.00  0.00    +0.000 OA
ATOM      9  H   UNL     1       5.805   2.579  18.634  0.00  0.00    +0.000 HD
ENDBRANCH   6   8
BRANCH   5  10
ATOM     10  O   UNL     1       5.381   5.111  17.521  0.00  0.00    +0.000 OA
BRANCH  10  11
ATOM     11  C   UNL     1       5.442   5.176  16.090  0.00  0.00    +0.000 C 
BRANCH  11  12
ATOM     12  C   UNL     1       6.649   4.380  15.624  0.00  0.00    +0.000 C 
ATOM     13  O   UNL     1       7.760   4.459  16.131  0.00  0.00    +0.000 OA
BRANCH  12  14
ATOM     14  O   UNL     1       6.370   3.523  14.610  0.00  0.00    +0.000 OA
ATOM     15  H   UNL     1       7.049   2.820  14.562  0.00  0.00    +0.000 HD
ENDBRANCH  12  14
ENDBRANCH  11  12
ENDBRANCH  10  11
ENDBRANCH   5  10
TORSDOF 5
ENDMDL
MODEL 9
REMARK VINA RESULT:      -5.5      2.589      5.344
REMARK  Name = 
REMARK  6 active torsions:
REMARK  status: ('A' for Active; 'I' for Inactive)
REMARK    1  A    between atoms: C_1  and  C_2
REMARK    2  A    between atoms: C_5  and  O_6
REMARK    3  A    between atoms: O_6  and  C_7
REMARK    4  A    between atoms: C_7  and  C_8
REMARK    5  A    between atoms: C_8  and  O_10
REMARK    6  A    between atoms: C_11  and  O_12
REMARK                            x       y       z     vdW  Elec       q    Type
REMARK                         _______ _______ _______ _____ _____    ______ ____
ROOT
ATOM      1  C   UNL     1       5.546   5.696  15.331  0.00  0.00    +0.000 C 
ATOM      2  C   UNL     1       4.945   5.458  16.685  0.00  0.00    +0.000 A 
ATOM      3  C   UNL     1       4.042   6.368  17.252  0.00  0.00    +0.000 A 
ATOM      4  C   UNL     1       3.500   6.143  18.523  0.00  0.00    +0.000 A 
ATOM      5  C   UNL     1       3.869   5.009  19.250  0.00  0.00    +0.000 A 
ATOM      6  C   UNL     1       4.747   4.091  18.666  0.00  0.00    +0.000 A 
ATOM      7  C   UNL     1       5.288   4.308  17.402  0.00  0.00    +0.000 A 
ENDROOT
BRANCH   6   8
ATOM      8  O   UNL     1       5.124   2.955  19.329  0.00  0.00    +0.000 OA
ATOM      9  H   UNL     1       4.987   2.223  18.705  0.00  0.00    +0.000 HD
ENDBRANCH   6   8
BRANCH   5  10
ATOM     10  O   UNL     1       3.418   4.695  20.508  0.00  0.00    +0.000 OA
BRANCH  10  11
ATOM     11  C   UNL     1       1.998   4.793  20.675  0.00  0.00    +0.000 C 
BRANCH  11  12
ATOM     12  C   UNL     1       1.476   3.448  21.154  0.00  0.00    +0.000 C 
ATOM     13  O   UNL     1       1.913   2.851  22.129  0.00  0.00    +0.000 OA
BRANCH  12  14
ATOM     14  O   UNL     1       0.434   2.984  20.422  0.00  0.00    +0.000 OA
ATOM     15  H   UNL     1      -0.004   2.242  20.886  0.00  0.00    +0.000 HD
ENDBRANCH  12  14
ENDBRANCH  11  12
ENDBRANCH  10  11
ENDBRANCH   5  10
TORSDOF 5
ENDMDL
