MODEL 1
REMARK VINA RESULT:      -9.4      0.000      0.000
REMARK  Name = 
REMARK  10 active torsions:
REMARK  status: ('A' for Active; 'I' for Inactive)
REMARK    1  A    between atoms: C_1  and  C_2
REMARK    2  A    between atoms: C_2  and  C_3
REMARK    3  A    between atoms: C_8  and  N_9
REMARK    4  A    between atoms: N_9  and  S_10
REMARK    5  A    between atoms: S_10  and  C_13
REMARK    6  A    between atoms: C_19  and  C_20
REMARK    7  A    between atoms: N_22  and  C_23
REMARK    8  A    between atoms: N_22  and  C_25
REMARK    9  A    between atoms: C_23  and  C_24
REMARK   10  A    between atoms: C_25  and  C_26
REMARK                            x       y       z     vdW  Elec       q    Type
REMARK                         _______ _______ _______ _____ _____    ______ ____
ROOT
ATOM      1  C   UNL     1       0.591   9.883  19.708  0.00  0.00    +0.000 A 
ATOM      2  C   UNL     1       0.525   9.304  20.979  0.00  0.00    +0.000 A 
ATOM      3  C   UNL     1       1.193   8.110  21.221  0.00  0.00    +0.000 A 
ATOM      4  C   UNL     1       1.930   7.479  20.199  0.00  0.00    +0.000 A 
ATOM      5  N   UNL     1       2.556   6.263  20.472  0.00  0.00    +0.000 N 
ATOM      6  C   UNL     1       3.215   5.577  19.489  0.00  0.00    +0.000 A 
ATOM      7  C   UNL     1       3.570   6.029  18.268  0.00  0.00    +0.000 A 
ATOM      8  C   UNL     1       3.026   7.405  17.930  0.00  0.00    +0.000 A 
ATOM      9  O   UNL     1       3.286   7.964  16.870  0.00  0.00    +0.000 OA
ATOM     10  C   UNL     1       2.098   8.098  18.946  0.00  0.00    +0.000 A 
ATOM     11  C   UNL     1       1.402   9.307  18.695  0.00  0.00    +0.000 A 
ATOM     12  H   UNL     1       2.221   5.730  21.268  0.00  0.00    +0.000 HD
ENDROOT
BRANCH   1  13
ATOM     13  S   UNL     1      -0.285  11.440  19.489  0.00  0.00    +0.000 S 
ATOM     14  O   UNL     1       0.154  12.025  18.244  0.00  0.00    +0.000 OA
ATOM     15  O   UNL     1      -0.177  12.157  20.733  0.00  0.00    +0.000 OA
BRANCH  13  16
ATOM     16  N   UNL     1      -1.899  10.980  19.372  0.00  0.00    +0.000 N 
ATOM     17  H   UNL     1      -2.401  10.792  20.238  0.00  0.00    +0.000 HD
BRANCH  16  23
ATOM     18  C   UNL     1      -3.793  11.472  17.910  0.00  0.00    +0.000 A 
ATOM     19  C   UNL     1      -4.402  11.337  16.650  0.00  0.00    +0.000 A 
ATOM     20  C   UNL     1      -3.793  10.603  15.632  0.00  0.00    +0.000 A 
ATOM     21  C   UNL     1      -2.551  10.015  15.850  0.00  0.00    +0.000 A 
ATOM     22  C   UNL     1      -1.927  10.150  17.090  0.00  0.00    +0.000 A 
ATOM     23  C   UNL     1      -2.556  10.848  18.129  0.00  0.00    +0.000 A 
BRANCH  18  25
ATOM     24  C   UNL     1      -5.919  11.753  19.247  0.00  0.00    +0.000 C 
ATOM     25  C   UNL     1      -4.516  12.270  18.969  0.00  0.00    +0.000 C 
ENDBRANCH  18  25
ENDBRANCH  16  23
ENDBRANCH  13  16
ENDBRANCH   1  13
BRANCH   7  26
ATOM     26  C   UNL     1       4.229   4.943  17.423  0.00  0.00    +0.000 C 
ATOM     27  O   UNL     1       3.530   3.937  17.211  0.00  0.00    +0.000 OA
ATOM     28  N   UNL     1       5.560   4.939  16.964  0.00  0.00    +0.000 N 
BRANCH  28  29
ATOM     29  C   UNL     1       6.401   6.145  16.948  0.00  0.00    +0.000 C 
ATOM     30  C   UNL     1       7.470   6.242  18.035  0.00  0.00    +0.000 C 
ENDBRANCH  28  29
BRANCH  28  31
ATOM     31  C   UNL     1       5.904   3.869  15.978  0.00  0.00    +0.000 C 
BRANCH  31  32
ATOM     32  C   UNL     1       6.410   4.224  14.581  0.00  0.00    +0.000 A 
ATOM     33  C   UNL     1       7.459   5.101  14.292  0.00  0.00    +0.000 A 
ATOM     34  C   UNL     1       7.880   5.306  12.958  0.00  0.00    +0.000 A 
ATOM     35  C   UNL     1       7.270   4.633  11.898  0.00  0.00    +0.000 A 
ATOM     36  C   UNL     1       6.231   3.751  12.160  0.00  0.00    +0.000 A 
ATOM     37  C   UNL     1       5.811   3.553  13.481  0.00  0.00    +0.000 A 
ENDBRANCH  31  32
ENDBRANCH  28  31
ENDBRANCH   7  26
TORSDOF 8
ENDMDL
MODEL 2
REMARK VINA RESULT:      -9.1      0.621      1.647
REMARK  Name = 
REMARK  10 active torsions:
REMARK  status: ('A' for Active; 'I' for Inactive)
REMARK    1  A    between atoms: C_1  and  C_2
REMARK    2  A    between atoms: C_2  and  C_3
REMARK    3  A    between atoms: C_8  and  N_9
REMARK    4  A    between atoms: N_9  and  S_10
REMARK    5  A    between atoms: S_10  and  C_13
REMARK    6  A    between atoms: C_19  and  C_20
REMARK    7  A    between atoms: N_22  and  C_23
REMARK    8  A    between atoms: N_22  and  C_25
REMARK    9  A    between atoms: C_23  and  C_24
REMARK   10  A    between atoms: C_25  and  C_26
REMARK                            x       y       z     vdW  Elec       q    Type
REMARK                         _______ _______ _______ _____ _____    ______ ____
ROOT
ATOM      1  C   UNL     1       0.672   9.889  19.697  0.00  0.00    +0.000 A 
ATOM      2  C   UNL     1       0.574   9.293  20.958  0.00  0.00    +0.000 A 
ATOM      3  C   UNL     1       1.209   8.078  21.190  0.00  0.00    +0.000 A 
ATOM      4  C   UNL     1       1.944   7.445  20.169  0.00  0.00    +0.000 A 
ATOM      5  N   UNL     1       2.535   6.209  20.430  0.00  0.00    +0.000 N 
ATOM      6  C   UNL     1       3.189   5.521  19.446  0.00  0.00    +0.000 A 
ATOM      7  C   UNL     1       3.572   5.982  18.237  0.00  0.00    +0.000 A 
ATOM      8  C   UNL     1       3.067   7.377  17.913  0.00  0.00    +0.000 A 
ATOM      9  O   UNL     1       3.356   7.944  16.865  0.00  0.00    +0.000 OA
ATOM     10  C   UNL     1       2.144   8.077  18.927  0.00  0.00    +0.000 A 
ATOM     11  C   UNL     1       1.482   9.308  18.685  0.00  0.00    +0.000 A 
ATOM     12  H   UNL     1       2.176   5.673  21.214  0.00  0.00    +0.000 HD
ENDROOT
BRANCH   1  13
ATOM     13  S   UNL     1      -0.161  11.471  19.490  0.00  0.00    +0.000 S 
ATOM     14  O   UNL     1       0.850  12.483  19.296  0.00  0.00    +0.000 OA
ATOM     15  O   UNL     1      -1.129  11.573  20.551  0.00  0.00    +0.000 OA
BRANCH  13  16
ATOM     16  N   UNL     1      -1.056  11.272  18.079  0.00  0.00    +0.000 N 
ATOM     17  H   UNL     1      -0.546  11.084  17.219  0.00  0.00    +0.000 HD
BRANCH  16  23
ATOM     18  C   UNL     1      -3.207  10.705  17.070  0.00  0.00    +0.000 A 
ATOM     19  C   UNL     1      -4.610  10.798  17.105  0.00  0.00    +0.000 A 
ATOM     20  C   UNL     1      -5.258  11.523  18.105  0.00  0.00    +0.000 A 
ATOM     21  C   UNL     1      -4.514  12.143  19.104  0.00  0.00    +0.000 A 
ATOM     22  C   UNL     1      -3.122  12.050  19.092  0.00  0.00    +0.000 A 
ATOM     23  C   UNL     1      -2.466  11.361  18.064  0.00  0.00    +0.000 A 
BRANCH  18  25
ATOM     24  C   UNL     1      -3.246  10.146  14.606  0.00  0.00    +0.000 C 
ATOM     25  C   UNL     1      -2.573   9.915  15.951  0.00  0.00    +0.000 C 
ENDBRANCH  18  25
ENDBRANCH  16  23
ENDBRANCH  13  16
ENDBRANCH   1  13
BRANCH   7  26
ATOM     26  C   UNL     1       4.215   4.892  17.383  0.00  0.00    +0.000 C 
ATOM     27  O   UNL     1       3.500   3.901  17.162  0.00  0.00    +0.000 OA
ATOM     28  N   UNL     1       5.547   4.871  16.928  0.00  0.00    +0.000 N 
BRANCH  28  29
ATOM     29  C   UNL     1       6.408   6.062  16.924  0.00  0.00    +0.000 C 
ATOM     30  C   UNL     1       7.477   6.131  18.013  0.00  0.00    +0.000 C 
ENDBRANCH  28  29
BRANCH  28  31
ATOM     31  C   UNL     1       5.875   3.804  15.934  0.00  0.00    +0.000 C 
BRANCH  31  32
ATOM     32  C   UNL     1       6.393   4.161  14.542  0.00  0.00    +0.000 A 
ATOM     33  C   UNL     1       7.446   5.036  14.264  0.00  0.00    +0.000 A 
ATOM     34  C   UNL     1       7.878   5.245  12.933  0.00  0.00    +0.000 A 
ATOM     35  C   UNL     1       7.274   4.577  11.867  0.00  0.00    +0.000 A 
ATOM     36  C   UNL     1       6.230   3.698  12.118  0.00  0.00    +0.000 A 
ATOM     37  C   UNL     1       5.800   3.496  13.435  0.00  0.00    +0.000 A 
ENDBRANCH  31  32
ENDBRANCH  28  31
ENDBRANCH   7  26
TORSDOF 8
ENDMDL
MODEL 3
REMARK VINA RESULT:      -8.7      2.736      3.576
REMARK  Name = 
REMARK  10 active torsions:
REMARK  status: ('A' for Active; 'I' for Inactive)
REMARK    1  A    between atoms: C_1  and  C_2
REMARK    2  A    between atoms: C_2  and  C_3
REMARK    3  A    between atoms: C_8  and  N_9
REMARK    4  A    between atoms: N_9  and  S_10
REMARK    5  A    between atoms: S_10  and  C_13
REMARK    6  A    between atoms: C_19  and  C_20
REMARK    7  A    between atoms: N_22  and  C_23
REMARK    8  A    between atoms: N_22  and  C_25
REMARK    9  A    between atoms: C_23  and  C_24
REMARK   10  A    between atoms: C_25  and  C_26
REMARK                            x       y       z     vdW  Elec       q    Type
REMARK                         _______ _______ _______ _____ _____    ______ ____
ROOT
ATOM      1  C   UNL     1       0.341  10.538  19.635  0.00  0.00    +0.000 A 
ATOM      2  C   UNL     1       0.306  10.051  20.945  0.00  0.00    +0.000 A 
ATOM      3  C   UNL     1       0.943   8.853  21.245  0.00  0.00    +0.000 A 
ATOM      4  C   UNL     1       1.617   8.126  20.244  0.00  0.00    +0.000 A 
ATOM      5  N   UNL     1       2.212   6.910  20.578  0.00  0.00    +0.000 N 
ATOM      6  C   UNL     1       2.807   6.133  19.622  0.00  0.00    +0.000 A 
ATOM      7  C   UNL     1       3.129   6.487  18.360  0.00  0.00    +0.000 A 
ATOM      8  C   UNL     1       2.618   7.855  17.946  0.00  0.00    +0.000 A 
ATOM      9  O   UNL     1       2.855   8.329  16.840  0.00  0.00    +0.000 OA
ATOM     10  C   UNL     1       1.756   8.650  18.945  0.00  0.00    +0.000 A 
ATOM     11  C   UNL     1       1.091   9.864  18.635  0.00  0.00    +0.000 A 
ATOM     12  H   UNL     1       1.891   6.446  21.422  0.00  0.00    +0.000 HD
ENDROOT
BRANCH   1  13
ATOM     13  S   UNL     1      -0.489  12.106  19.339  0.00  0.00    +0.000 S 
ATOM     14  O   UNL     1      -0.544  12.823  20.591  0.00  0.00    +0.000 OA
ATOM     15  O   UNL     1      -1.685  11.811  18.593  0.00  0.00    +0.000 OA
BRANCH  13  16
ATOM     16  N   UNL     1       0.530  12.904  18.263  0.00  0.00    +0.000 N 
ATOM     17  H   UNL     1       0.451  12.669  17.276  0.00  0.00    +0.000 HD
BRANCH  16  23
ATOM     18  C   UNL     1       1.096  15.211  18.833  0.00  0.00    +0.000 A 
ATOM     19  C   UNL     1       2.057  16.133  19.286  0.00  0.00    +0.000 A 
ATOM     20  C   UNL     1       3.355  15.727  19.591  0.00  0.00    +0.000 A 
ATOM     21  C   UNL     1       3.707  14.386  19.477  0.00  0.00    +0.000 A 
ATOM     22  C   UNL     1       2.763  13.455  19.042  0.00  0.00    +0.000 A 
ATOM     23  C   UNL     1       1.471  13.867  18.691  0.00  0.00    +0.000 A 
BRANCH  18  25
ATOM     24  C   UNL     1      -1.004  16.302  19.718  0.00  0.00    +0.000 C 
ATOM     25  C   UNL     1      -0.286  15.723  18.508  0.00  0.00    +0.000 C 
ENDBRANCH  18  25
ENDBRANCH  16  23
ENDBRANCH  13  16
ENDBRANCH   1  13
BRANCH   7  26
ATOM     26  C   UNL     1       3.717   5.321  17.569  0.00  0.00    +0.000 C 
ATOM     27  O   UNL     1       3.068   4.263  17.622  0.00  0.00    +0.000 OA
ATOM     28  N   UNL     1       4.950   5.316  16.890  0.00  0.00    +0.000 N 
BRANCH  28  29
ATOM     29  C   UNL     1       5.685   6.545  16.562  0.00  0.00    +0.000 C 
ATOM     30  C   UNL     1       6.848   6.908  17.484  0.00  0.00    +0.000 C 
ENDBRANCH  28  29
BRANCH  28  31
ATOM     31  C   UNL     1       5.202   4.130  16.015  0.00  0.00    +0.000 C 
BRANCH  31  32
ATOM     32  C   UNL     1       5.916   4.283  14.673  0.00  0.00    +0.000 A 
ATOM     33  C   UNL     1       7.122   4.957  14.463  0.00  0.00    +0.000 A 
ATOM     34  C   UNL     1       7.720   4.982  13.182  0.00  0.00    +0.000 A 
ATOM     35  C   UNL     1       7.130   4.329  12.099  0.00  0.00    +0.000 A 
ATOM     36  C   UNL     1       5.936   3.647  12.284  0.00  0.00    +0.000 A 
ATOM     37  C   UNL     1       5.342   3.627  13.551  0.00  0.00    +0.000 A 
ENDBRANCH  31  32
ENDBRANCH  28  31
ENDBRANCH   7  26
TORSDOF 8
ENDMDL
MODEL 4
REMARK VINA RESULT:      -8.5      3.259      9.936
REMARK  Name = 
REMARK  10 active torsions:
REMARK  status: ('A' for Active; 'I' for Inactive)
REMARK    1  A    between atoms: C_1  and  C_2
REMARK    2  A    between atoms: C_2  and  C_3
REMARK    3  A    between atoms: C_8  and  N_9
REMARK    4  A    between atoms: N_9  and  S_10
REMARK    5  A    between atoms: S_10  and  C_13
REMARK    6  A    between atoms: C_19  and  C_20
REMARK    7  A    between atoms: N_22  and  C_23
REMARK    8  A    between atoms: N_22  and  C_25
REMARK    9  A    between atoms: C_23  and  C_24
REMARK   10  A    between atoms: C_25  and  C_26
REMARK                            x       y       z     vdW  Elec       q    Type
REMARK                         _______ _______ _______ _____ _____    ______ ____
ROOT
ATOM      1  C   UNL     1       3.206   4.618  19.314  0.00  0.00    +0.000 A 
ATOM      2  C   UNL     1       2.564   4.531  20.553  0.00  0.00    +0.000 A 
ATOM      3  C   UNL     1       1.876   5.635  21.044  0.00  0.00    +0.000 A 
ATOM      4  C   UNL     1       1.823   6.835  20.309  0.00  0.00    +0.000 A 
ATOM      5  N   UNL     1       1.153   7.931  20.853  0.00  0.00    +0.000 N 
ATOM      6  C   UNL     1       1.145   9.138  20.211  0.00  0.00    +0.000 A 
ATOM      7  C   UNL     1       1.518   9.395  18.940  0.00  0.00    +0.000 A 
ATOM      8  C   UNL     1       2.155   8.216  18.227  0.00  0.00    +0.000 A 
ATOM      9  O   UNL     1       2.519   8.284  17.058  0.00  0.00    +0.000 OA
ATOM     10  C   UNL     1       2.370   6.910  19.014  0.00  0.00    +0.000 A 
ATOM     11  C   UNL     1       3.087   5.790  18.521  0.00  0.00    +0.000 A 
ATOM     12  H   UNL     1       0.997   7.935  21.856  0.00  0.00    +0.000 HD
ENDROOT
BRANCH   1  13
ATOM     13  S   UNL     1       4.054   3.137  18.744  0.00  0.00    +0.000 S 
ATOM     14  O   UNL     1       3.068   2.256  18.165  0.00  0.00    +0.000 OA
ATOM     15  O   UNL     1       4.905   2.704  19.822  0.00  0.00    +0.000 OA
BRANCH  13  16
ATOM     16  N   UNL     1       5.094   3.705  17.549  0.00  0.00    +0.000 N 
ATOM     17  H   UNL     1       5.033   3.276  16.628  0.00  0.00    +0.000 HD
BRANCH  16  23
ATOM     18  C   UNL     1       6.304   5.690  16.801  0.00  0.00    +0.000 A 
ATOM     19  C   UNL     1       7.222   6.716  17.091  0.00  0.00    +0.000 A 
ATOM     20  C   UNL     1       7.846   6.791  18.336  0.00  0.00    +0.000 A 
ATOM     21  C   UNL     1       7.540   5.858  19.322  0.00  0.00    +0.000 A 
ATOM     22  C   UNL     1       6.622   4.841  19.055  0.00  0.00    +0.000 A 
ATOM     23  C   UNL     1       6.028   4.736  17.791  0.00  0.00    +0.000 A 
BRANCH  18  25
ATOM     24  C   UNL     1       6.528   4.930  14.401  0.00  0.00    +0.000 C 
ATOM     25  C   UNL     1       5.677   5.663  15.428  0.00  0.00    +0.000 C 
ENDBRANCH  18  25
ENDBRANCH  16  23
ENDBRANCH  13  16
ENDBRANCH   1  13
BRANCH   7  26
ATOM     26  C   UNL     1       1.435  10.882  18.606  0.00  0.00    +0.000 C 
ATOM     27  O   UNL     1       2.462  11.373  18.107  0.00  0.00    +0.000 OA
ATOM     28  N   UNL     1       0.361  11.742  18.903  0.00  0.00    +0.000 N 
BRANCH  28  29
ATOM     29  C   UNL     1      -0.975  11.251  19.271  0.00  0.00    +0.000 C 
ATOM     30  C   UNL     1      -1.703  12.023  20.370  0.00  0.00    +0.000 C 
ENDBRANCH  28  29
BRANCH  28  31
ATOM     31  C   UNL     1       0.428  13.101  18.285  0.00  0.00    +0.000 C 
BRANCH  31  32
ATOM     32  C   UNL     1       0.799  14.325  19.120  0.00  0.00    +0.000 A 
ATOM     33  C   UNL     1       1.959  14.468  19.887  0.00  0.00    +0.000 A 
ATOM     34  C   UNL     1       2.225  15.675  20.573  0.00  0.00    +0.000 A 
ATOM     35  C   UNL     1       1.346  16.757  20.496  0.00  0.00    +0.000 A 
ATOM     36  C   UNL     1       0.192  16.642  19.735  0.00  0.00    +0.000 A 
ATOM     37  C   UNL     1      -0.074  15.445  19.060  0.00  0.00    +0.000 A 
ENDBRANCH  31  32
ENDBRANCH  28  31
ENDBRANCH   7  26
TORSDOF 8
ENDMDL
MODEL 5
REMARK VINA RESULT:      -8.5      3.233     10.477
REMARK  Name = 
REMARK  10 active torsions:
REMARK  status: ('A' for Active; 'I' for Inactive)
REMARK    1  A    between atoms: C_1  and  C_2
REMARK    2  A    between atoms: C_2  and  C_3
REMARK    3  A    between atoms: C_8  and  N_9
REMARK    4  A    between atoms: N_9  and  S_10
REMARK    5  A    between atoms: S_10  and  C_13
REMARK    6  A    between atoms: C_19  and  C_20
REMARK    7  A    between atoms: N_22  and  C_23
REMARK    8  A    between atoms: N_22  and  C_25
REMARK    9  A    between atoms: C_23  and  C_24
REMARK   10  A    between atoms: C_25  and  C_26
REMARK                            x       y       z     vdW  Elec       q    Type
REMARK                         _______ _______ _______ _____ _____    ______ ____
ROOT
ATOM      1  C   UNL     1       2.210   5.761  19.037  0.00  0.00    +0.000 A 
ATOM      2  C   UNL     1       1.803   5.568  20.360  0.00  0.00    +0.000 A 
ATOM      3  C   UNL     1       1.385   6.660  21.112  0.00  0.00    +0.000 A 
ATOM      4  C   UNL     1       1.371   7.954  20.555  0.00  0.00    +0.000 A 
ATOM      5  N   UNL     1       0.979   9.028  21.354  0.00  0.00    +0.000 N 
ATOM      6  C   UNL     1       1.027  10.310  20.879  0.00  0.00    +0.000 A 
ATOM      7  C   UNL     1       1.191  10.706  19.599  0.00  0.00    +0.000 A 
ATOM      8  C   UNL     1       1.508   9.579  18.633  0.00  0.00    +0.000 A 
ATOM      9  O   UNL     1       1.655   9.776  17.432  0.00  0.00    +0.000 OA
ATOM     10  C   UNL     1       1.673   8.155  19.195  0.00  0.00    +0.000 A 
ATOM     11  C   UNL     1       2.117   7.043  18.434  0.00  0.00    +0.000 A 
ATOM     12  H   UNL     1       1.013   8.902  22.360  0.00  0.00    +0.000 HD
ENDROOT
BRANCH   1  13
ATOM     13  S   UNL     1       2.715   4.291  18.130  0.00  0.00    +0.000 S 
ATOM     14  O   UNL     1       1.594   3.857  17.330  0.00  0.00    +0.000 OA
ATOM     15  O   UNL     1       3.343   3.411  19.080  0.00  0.00    +0.000 OA
BRANCH  13  16
ATOM     16  N   UNL     1       3.956   4.840  17.134  0.00  0.00    +0.000 N 
ATOM     17  H   UNL     1       3.712   5.121  16.187  0.00  0.00    +0.000 HD
BRANCH  16  23
ATOM     18  C   UNL     1       6.332   4.397  16.781  0.00  0.00    +0.000 A 
ATOM     19  C   UNL     1       7.655   4.513  17.243  0.00  0.00    +0.000 A 
ATOM     20  C   UNL     1       7.940   5.129  18.461  0.00  0.00    +0.000 A 
ATOM     21  C   UNL     1       6.908   5.666  19.224  0.00  0.00    +0.000 A 
ATOM     22  C   UNL     1       5.590   5.572  18.775  0.00  0.00    +0.000 A 
ATOM     23  C   UNL     1       5.296   4.913  17.574  0.00  0.00    +0.000 A 
BRANCH  18  25
ATOM     24  C   UNL     1       6.202   4.648  14.270  0.00  0.00    +0.000 C 
ATOM     25  C   UNL     1       6.097   3.706  15.460  0.00  0.00    +0.000 C 
ENDBRANCH  18  25
ENDBRANCH  16  23
ENDBRANCH  13  16
ENDBRANCH   1  13
BRANCH   7  26
ATOM     26  C   UNL     1       1.263  12.226  19.473  0.00  0.00    +0.000 C 
ATOM     27  O   UNL     1       2.313  12.744  19.891  0.00  0.00    +0.000 OA
ATOM     28  N   UNL     1       0.229  13.073  19.034  0.00  0.00    +0.000 N 
BRANCH  28  29
ATOM     29  C   UNL     1      -0.951  12.581  18.309  0.00  0.00    +0.000 C 
ATOM     30  C   UNL     1      -2.169  12.221  19.159  0.00  0.00    +0.000 C 
ENDBRANCH  28  29
BRANCH  28  31
ATOM     31  C   UNL     1       0.615  14.498  18.797  0.00  0.00    +0.000 C 
BRANCH  31  32
ATOM     32  C   UNL     1      -0.383  15.630  19.029  0.00  0.00    +0.000 A 
ATOM     33  C   UNL     1      -1.276  15.723  20.100  0.00  0.00    +0.000 A 
ATOM     34  C   UNL     1      -2.115  16.853  20.243  0.00  0.00    +0.000 A 
ATOM     35  C   UNL     1      -2.068  17.906  19.328  0.00  0.00    +0.000 A 
ATOM     36  C   UNL     1      -1.184  17.840  18.260  0.00  0.00    +0.000 A 
ATOM     37  C   UNL     1      -0.357  16.719  18.116  0.00  0.00    +0.000 A 
ENDBRANCH  31  32
ENDBRANCH  28  31
ENDBRANCH   7  26
TORSDOF 8
ENDMDL
MODEL 6
REMARK VINA RESULT:      -8.5      2.779     10.783
REMARK  Name = 
REMARK  10 active torsions:
REMARK  status: ('A' for Active; 'I' for Inactive)
REMARK    1  A    between atoms: C_1  and  C_2
REMARK    2  A    between atoms: C_2  and  C_3
REMARK    3  A    between atoms: C_8  and  N_9
REMARK    4  A    between atoms: N_9  and  S_10
REMARK    5  A    between atoms: S_10  and  C_13
REMARK    6  A    between atoms: C_19  and  C_20
REMARK    7  A    between atoms: N_22  and  C_23
REMARK    8  A    between atoms: N_22  and  C_25
REMARK    9  A    between atoms: C_23  and  C_24
REMARK   10  A    between atoms: C_25  and  C_26
REMARK                            x       y       z     vdW  Elec       q    Type
REMARK                         _______ _______ _______ _____ _____    ______ ____
ROOT
ATOM      1  C   UNL     1       2.616   5.541  19.008  0.00  0.00    +0.000 A 
ATOM      2  C   UNL     1       3.093   6.078  17.809  0.00  0.00    +0.000 A 
ATOM      3  C   UNL     1       2.903   7.428  17.541  0.00  0.00    +0.000 A 
ATOM      4  C   UNL     1       2.233   8.256  18.463  0.00  0.00    +0.000 A 
ATOM      5  N   UNL     1       2.030   9.598  18.141  0.00  0.00    +0.000 N 
ATOM      6  C   UNL     1       1.315  10.419  18.969  0.00  0.00    +0.000 A 
ATOM      7  C   UNL     1       0.941  10.176  20.243  0.00  0.00    +0.000 A 
ATOM      8  C   UNL     1       1.232   8.764  20.720  0.00  0.00    +0.000 A 
ATOM      9  O   UNL     1       0.977   8.400  21.863  0.00  0.00    +0.000 OA
ATOM     10  C   UNL     1       1.840   7.762  19.721  0.00  0.00    +0.000 A 
ATOM     11  C   UNL     1       2.019   6.380  19.986  0.00  0.00    +0.000 A 
ATOM     12  H   UNL     1       2.088   9.861  17.162  0.00  0.00    +0.000 HD
ENDROOT
BRANCH   1  13
ATOM     13  S   UNL     1       2.925   3.791  19.283  0.00  0.00    +0.000 S 
ATOM     14  O   UNL     1       2.236   3.051  18.253  0.00  0.00    +0.000 OA
ATOM     15  O   UNL     1       2.678   3.538  20.679  0.00  0.00    +0.000 OA
BRANCH  13  16
ATOM     16  N   UNL     1       4.590   3.641  19.085  0.00  0.00    +0.000 N 
ATOM     17  H   UNL     1       5.118   3.205  19.838  0.00  0.00    +0.000 HD
BRANCH  16  23
ATOM     18  C   UNL     1       6.301   5.025  18.025  0.00  0.00    +0.000 A 
ATOM     19  C   UNL     1       6.953   5.435  16.848  0.00  0.00    +0.000 A 
ATOM     20  C   UNL     1       6.572   4.933  15.604  0.00  0.00    +0.000 A 
ATOM     21  C   UNL     1       5.554   3.990  15.519  0.00  0.00    +0.000 A 
ATOM     22  C   UNL     1       4.905   3.562  16.678  0.00  0.00    +0.000 A 
ATOM     23  C   UNL     1       5.253   4.098  17.924  0.00  0.00    +0.000 A 
BRANCH  18  25
ATOM     24  C   UNL     1       8.244   5.935  19.359  0.00  0.00    +0.000 C 
ATOM     25  C   UNL     1       6.756   5.620  19.336  0.00  0.00    +0.000 C 
ENDBRANCH  18  25
ENDBRANCH  16  23
ENDBRANCH  13  16
ENDBRANCH   1  13
BRANCH   7  26
ATOM     26  C   UNL     1       0.090  11.305  20.817  0.00  0.00    +0.000 C 
ATOM     27  O   UNL     1       0.620  11.956  21.734  0.00  0.00    +0.000 OA
ATOM     28  N   UNL     1      -1.245  11.596  20.477  0.00  0.00    +0.000 N 
BRANCH  28  29
ATOM     29  C   UNL     1      -1.894  11.063  19.271  0.00  0.00    +0.000 C 
ATOM     30  C   UNL     1      -1.914  11.980  18.049  0.00  0.00    +0.000 C 
ENDBRANCH  28  29
BRANCH  28  31
ATOM     31  C   UNL     1      -1.787  12.879  21.019  0.00  0.00    +0.000 C 
BRANCH  31  32
ATOM     32  C   UNL     1      -3.018  12.891  21.923  0.00  0.00    +0.000 A 
ATOM     33  C   UNL     1      -4.334  13.108  21.507  0.00  0.00    +0.000 A 
ATOM     34  C   UNL     1      -5.403  13.036  22.430  0.00  0.00    +0.000 A 
ATOM     35  C   UNL     1      -5.175  12.737  23.774  0.00  0.00    +0.000 A 
ATOM     36  C   UNL     1      -3.878  12.510  24.211  0.00  0.00    +0.000 A 
ATOM     37  C   UNL     1      -2.819  12.587  23.297  0.00  0.00    +0.000 A 
ENDBRANCH  31  32
ENDBRANCH  28  31
ENDBRANCH   7  26
TORSDOF 8
ENDMDL
MODEL 7
REMARK VINA RESULT:      -8.5      2.536     10.745
REMARK  Name = 
REMARK  10 active torsions:
REMARK  status: ('A' for Active; 'I' for Inactive)
REMARK    1  A    between atoms: C_1  and  C_2
REMARK    2  A    between atoms: C_2  and  C_3
REMARK    3  A    between atoms: C_8  and  N_9
REMARK    4  A    between atoms: N_9  and  S_10
REMARK    5  A    between atoms: S_10  and  C_13
REMARK    6  A    between atoms: C_19  and  C_20
REMARK    7  A    between atoms: N_22  and  C_23
REMARK    8  A    between atoms: N_22  and  C_25
REMARK    9  A    between atoms: C_23  and  C_24
REMARK   10  A    between atoms: C_25  and  C_26
REMARK                            x       y       z     vdW  Elec       q    Type
REMARK                         _______ _______ _______ _____ _____    ______ ____
ROOT
ATOM      1  C   UNL     1       2.827   5.797  18.886  0.00  0.00    +0.000 A 
ATOM      2  C   UNL     1       3.340   6.380  17.724  0.00  0.00    +0.000 A 
ATOM      3  C   UNL     1       3.093   7.723  17.466  0.00  0.00    +0.000 A 
ATOM      4  C   UNL     1       2.330   8.498  18.362  0.00  0.00    +0.000 A 
ATOM      5  N   UNL     1       2.073   9.833  18.050  0.00  0.00    +0.000 N 
ATOM      6  C   UNL     1       1.271  10.599  18.850  0.00  0.00    +0.000 A 
ATOM      7  C   UNL     1       0.840  10.313  20.096  0.00  0.00    +0.000 A 
ATOM      8  C   UNL     1       1.179   8.910  20.567  0.00  0.00    +0.000 A 
ATOM      9  O   UNL     1       0.882   8.512  21.688  0.00  0.00    +0.000 OA
ATOM     10  C   UNL     1       1.895   7.960  19.588  0.00  0.00    +0.000 A 
ATOM     11  C   UNL     1       2.132   6.585  19.841  0.00  0.00    +0.000 A 
ATOM     12  H   UNL     1       2.171  10.116  17.080  0.00  0.00    +0.000 HD
ENDROOT
BRANCH   1  13
ATOM     13  S   UNL     1       3.213   4.060  19.151  0.00  0.00    +0.000 S 
ATOM     14  O   UNL     1       2.579   3.299  18.101  0.00  0.00    +0.000 OA
ATOM     15  O   UNL     1       2.953   3.782  20.539  0.00  0.00    +0.000 OA
BRANCH  13  16
ATOM     16  N   UNL     1       4.886   3.991  18.982  0.00  0.00    +0.000 N 
ATOM     17  H   UNL     1       5.435   3.752  19.806  0.00  0.00    +0.000 HD
BRANCH  16  23
ATOM     18  C   UNL     1       6.653   5.093  17.705  0.00  0.00    +0.000 A 
ATOM     19  C   UNL     1       7.280   5.309  16.465  0.00  0.00    +0.000 A 
ATOM     20  C   UNL     1       6.803   4.702  15.303  0.00  0.00    +0.000 A 
ATOM     21  C   UNL     1       5.708   3.847  15.367  0.00  0.00    +0.000 A 
ATOM     22  C   UNL     1       5.082   3.611  16.591  0.00  0.00    +0.000 A 
ATOM     23  C   UNL     1       5.530   4.254  17.752  0.00  0.00    +0.000 A 
BRANCH  18  25
ATOM     24  C   UNL     1       8.061   7.007  18.565  0.00  0.00    +0.000 C 
ATOM     25  C   UNL     1       7.215   5.792  18.919  0.00  0.00    +0.000 C 
ENDBRANCH  18  25
ENDBRANCH  16  23
ENDBRANCH  13  16
ENDBRANCH   1  13
BRANCH   7  26
ATOM     26  C   UNL     1      -0.100  11.385  20.639  0.00  0.00    +0.000 C 
ATOM     27  O   UNL     1       0.171  11.803  21.778  0.00  0.00    +0.000 OA
ATOM     28  N   UNL     1      -1.275  11.852  20.019  0.00  0.00    +0.000 N 
BRANCH  28  29
ATOM     29  C   UNL     1      -1.575  11.616  18.600  0.00  0.00    +0.000 C 
ATOM     30  C   UNL     1      -2.408  10.376  18.280  0.00  0.00    +0.000 C 
ENDBRANCH  28  29
BRANCH  28  31
ATOM     31  C   UNL     1      -1.905  13.054  20.647  0.00  0.00    +0.000 C 
BRANCH  31  32
ATOM     32  C   UNL     1      -3.185  12.928  21.470  0.00  0.00    +0.000 A 
ATOM     33  C   UNL     1      -3.265  12.969  22.865  0.00  0.00    +0.000 A 
ATOM     34  C   UNL     1      -4.517  12.902  23.518  0.00  0.00    +0.000 A 
ATOM     35  C   UNL     1      -5.705  12.803  22.791  0.00  0.00    +0.000 A 
ATOM     36  C   UNL     1      -5.652  12.768  21.404  0.00  0.00    +0.000 A 
ATOM     37  C   UNL     1      -4.411  12.830  20.759  0.00  0.00    +0.000 A 
ENDBRANCH  31  32
ENDBRANCH  28  31
ENDBRANCH   7  26
TORSDOF 8
ENDMDL
MODEL 8
REMARK VINA RESULT:      -8.4      3.196      9.992
REMARK  Name = 
REMARK  10 active torsions:
REMARK  status: ('A' for Active; 'I' for Inactive)
REMARK    1  A    between atoms: C_1  and  C_2
REMARK    2  A    between atoms: C_2  and  C_3
REMARK    3  A    between atoms: C_8  and  N_9
REMARK    4  A    between atoms: N_9  and  S_10
REMARK    5  A    between atoms: S_10  and  C_13
REMARK    6  A    between atoms: C_19  and  C_20
REMARK    7  A    between atoms: N_22  and  C_23
REMARK    8  A    between atoms: N_22  and  C_25
REMARK    9  A    between atoms: C_23  and  C_24
REMARK   10  A    between atoms: C_25  and  C_26
REMARK                            x       y       z     vdW  Elec       q    Type
REMARK                         _______ _______ _______ _____ _____    ______ ____
ROOT
ATOM      1  C   UNL     1       3.285   4.769  19.361  0.00  0.00    +0.000 A 
ATOM      2  C   UNL     1       2.588   4.658  20.567  0.00  0.00    +0.000 A 
ATOM      3  C   UNL     1       1.854   5.742  21.034  0.00  0.00    +0.000 A 
ATOM      4  C   UNL     1       1.810   6.947  20.307  0.00  0.00    +0.000 A 
ATOM      5  N   UNL     1       1.093   8.024  20.827  0.00  0.00    +0.000 N 
ATOM      6  C   UNL     1       1.089   9.237  20.194  0.00  0.00    +0.000 A 
ATOM      7  C   UNL     1       1.516   9.513  18.944  0.00  0.00    +0.000 A 
ATOM      8  C   UNL     1       2.211   8.354  18.253  0.00  0.00    +0.000 A 
ATOM      9  O   UNL     1       2.628   8.439  17.103  0.00  0.00    +0.000 OA
ATOM     10  C   UNL     1       2.416   7.045  19.039  0.00  0.00    +0.000 A 
ATOM     11  C   UNL     1       3.179   5.945  18.572  0.00  0.00    +0.000 A 
ATOM     12  H   UNL     1       0.889   8.017  21.821  0.00  0.00    +0.000 HD
ENDROOT
BRANCH   1  13
ATOM     13  S   UNL     1       4.190   3.311  18.821  0.00  0.00    +0.000 S 
ATOM     14  O   UNL     1       3.548   2.805  17.630  0.00  0.00    +0.000 OA
ATOM     15  O   UNL     1       4.374   2.480  19.982  0.00  0.00    +0.000 OA
BRANCH  13  16
ATOM     16  N   UNL     1       5.719   3.904  18.443  0.00  0.00    +0.000 N 
ATOM     17  H   UNL     1       6.404   3.957  19.194  0.00  0.00    +0.000 HD
BRANCH  16  23
ATOM     18  C   UNL     1       6.798   5.501  16.942  0.00  0.00    +0.000 A 
ATOM     19  C   UNL     1       7.142   5.869  15.628  0.00  0.00    +0.000 A 
ATOM     20  C   UNL     1       6.765   5.083  14.540  0.00  0.00    +0.000 A 
ATOM     21  C   UNL     1       6.063   3.900  14.749  0.00  0.00    +0.000 A 
ATOM     22  C   UNL     1       5.726   3.513  16.046  0.00  0.00    +0.000 A 
ATOM     23  C   UNL     1       6.063   4.323  17.138  0.00  0.00    +0.000 A 
BRANCH  18  25
ATOM     24  C   UNL     1       7.699   7.771  17.591  0.00  0.00    +0.000 C 
ATOM     25  C   UNL     1       7.228   6.406  18.071  0.00  0.00    +0.000 C 
ENDBRANCH  18  25
ENDBRANCH  16  23
ENDBRANCH  13  16
ENDBRANCH   1  13
BRANCH   7  26
ATOM     26  C   UNL     1       1.417  11.000  18.618  0.00  0.00    +0.000 C 
ATOM     27  O   UNL     1       2.448  11.510  18.146  0.00  0.00    +0.000 OA
ATOM     28  N   UNL     1       0.323  11.841  18.897  0.00  0.00    +0.000 N 
BRANCH  28  29
ATOM     29  C   UNL     1      -1.012  11.327  19.232  0.00  0.00    +0.000 C 
ATOM     30  C   UNL     1      -1.660  11.892  20.494  0.00  0.00    +0.000 C 
ENDBRANCH  28  29
BRANCH  28  31
ATOM     31  C   UNL     1       0.383  13.206  18.289  0.00  0.00    +0.000 C 
BRANCH  31  32
ATOM     32  C   UNL     1       0.533  14.448  19.165  0.00  0.00    +0.000 A 
ATOM     33  C   UNL     1      -0.317  15.558  19.158  0.00  0.00    +0.000 A 
ATOM     34  C   UNL     1      -0.113  16.628  20.059  0.00  0.00    +0.000 A 
ATOM     35  C   UNL     1       0.932  16.602  20.984  0.00  0.00    +0.000 A 
ATOM     36  C   UNL     1       1.785  15.507  21.015  0.00  0.00    +0.000 A 
ATOM     37  C   UNL     1       1.585  14.451  20.119  0.00  0.00    +0.000 A 
ENDBRANCH  31  32
ENDBRANCH  28  31
ENDBRANCH   7  26
TORSDOF 8
ENDMDL
MODEL 9
REMARK VINA RESULT:      -8.4      2.758     10.918
REMARK  Name = 
REMARK  10 active torsions:
REMARK  status: ('A' for Active; 'I' for Inactive)
REMARK    1  A    between atoms: C_1  and  C_2
REMARK    2  A    between atoms: C_2  and  C_3
REMARK    3  A    between atoms: C_8  and  N_9
REMARK    4  A    between atoms: N_9  and  S_10
REMARK    5  A    between atoms: S_10  and  C_13
REMARK    6  A    between atoms: C_19  and  C_20
REMARK    7  A    between atoms: N_22  and  C_23
REMARK    8  A    between atoms: N_22  and  C_25
REMARK    9  A    between atoms: C_23  and  C_24
REMARK   10  A    between atoms: C_25  and  C_26
REMARK                            x       y       z     vdW  Elec       q    Type
REMARK                         _______ _______ _______ _____ _____    ______ ____
ROOT
ATOM      1  C   UNL     1       2.577   6.031  18.741  0.00  0.00    +0.000 A 
ATOM      2  C   UNL     1       3.051   6.683  17.599  0.00  0.00    +0.000 A 
ATOM      3  C   UNL     1       2.800   8.040  17.433  0.00  0.00    +0.000 A 
ATOM      4  C   UNL     1       2.072   8.759  18.401  0.00  0.00    +0.000 A 
ATOM      5  N   UNL     1       1.809  10.111  18.181  0.00  0.00    +0.000 N 
ATOM      6  C   UNL     1       1.039  10.829  19.054  0.00  0.00    +0.000 A 
ATOM      7  C   UNL     1       0.652  10.468  20.295  0.00  0.00    +0.000 A 
ATOM      8  C   UNL     1       1.002   9.038  20.667  0.00  0.00    +0.000 A 
ATOM      9  O   UNL     1       0.743   8.573  21.771  0.00  0.00    +0.000 OA
ATOM     10  C   UNL     1       1.679   8.149  19.607  0.00  0.00    +0.000 A 
ATOM     11  C   UNL     1       1.919   6.760  19.767  0.00  0.00    +0.000 A 
ATOM     12  H   UNL     1       1.874  10.453  17.227  0.00  0.00    +0.000 HD
ENDROOT
BRANCH   1  13
ATOM     13  S   UNL     1       2.966   4.280  18.885  0.00  0.00    +0.000 S 
ATOM     14  O   UNL     1       1.834   3.532  18.393  0.00  0.00    +0.000 OA
ATOM     15  O   UNL     1       3.478   4.075  20.215  0.00  0.00    +0.000 OA
BRANCH  13  16
ATOM     16  N   UNL     1       4.283   4.076  17.858  0.00  0.00    +0.000 N 
ATOM     17  H   UNL     1       4.204   3.376  17.123  0.00  0.00    +0.000 HD
BRANCH  16  23
ATOM     18  C   UNL     1       6.030   5.474  16.879  0.00  0.00    +0.000 A 
ATOM     19  C   UNL     1       7.195   6.241  17.060  0.00  0.00    +0.000 A 
ATOM     20  C   UNL     1       7.783   6.368  18.318  0.00  0.00    +0.000 A 
ATOM     21  C   UNL     1       7.199   5.754  19.421  0.00  0.00    +0.000 A 
ATOM     22  C   UNL     1       6.035   5.001  19.262  0.00  0.00    +0.000 A 
ATOM     23  C   UNL     1       5.467   4.834  17.992  0.00  0.00    +0.000 A 
BRANCH  18  25
ATOM     24  C   UNL     1       6.112   4.279  14.654  0.00  0.00    +0.000 C 
ATOM     25  C   UNL     1       5.455   5.370  15.486  0.00  0.00    +0.000 C 
ENDBRANCH  18  25
ENDBRANCH  16  23
ENDBRANCH  13  16
ENDBRANCH   1  13
BRANCH   7  26
ATOM     26  C   UNL     1      -0.265  11.507  20.936  0.00  0.00    +0.000 C 
ATOM     27  O   UNL     1       0.121  11.953  22.030  0.00  0.00    +0.000 OA
ATOM     28  N   UNL     1      -1.525  11.912  20.456  0.00  0.00    +0.000 N 
BRANCH  28  29
ATOM     29  C   UNL     1      -1.981  11.641  19.086  0.00  0.00    +0.000 C 
ATOM     30  C   UNL     1      -3.482  11.767  18.832  0.00  0.00    +0.000 C 
ENDBRANCH  28  29
BRANCH  28  31
ATOM     31  C   UNL     1      -2.129  13.095  21.142  0.00  0.00    +0.000 C 
BRANCH  31  32
ATOM     32  C   UNL     1      -3.221  12.917  22.196  0.00  0.00    +0.000 A 
ATOM     33  C   UNL     1      -3.023  12.478  23.508  0.00  0.00    +0.000 A 
ATOM     34  C   UNL     1      -4.106  12.410  24.415  0.00  0.00    +0.000 A 
ATOM     35  C   UNL     1      -5.394  12.786  24.030  0.00  0.00    +0.000 A 
ATOM     36  C   UNL     1      -5.613  13.232  22.735  0.00  0.00    +0.000 A 
ATOM     37  C   UNL     1      -4.542  13.295  21.836  0.00  0.00    +0.000 A 
ENDBRANCH  31  32
ENDBRANCH  28  31
ENDBRANCH   7  26
TORSDOF 8
ENDMDL
