MODEL 1
REMARK VINA RESULT:      -9.3      0.000      0.000
REMARK  Name = 
REMARK  7 active torsions:
REMARK  status: ('A' for Active; 'I' for Inactive)
REMARK    1  A    between atoms: C_2  and  C_7
REMARK    2  A    between atoms: N_3  and  C_4
REMARK    3  A    between atoms: C_10  and  C_11
REMARK    4  A    between atoms: C_11  and  N_12
REMARK    5  A    between atoms: N_12  and  C_13
REMARK    6  A    between atoms: N_12  and  S_19
REMARK    7  A    between atoms: S_19  and  C_22
REMARK                            x       y       z     vdW  Elec       q    Type
REMARK                         _______ _______ _______ _____ _____    ______ ____
ROOT
ATOM      1  N   UNL     1       3.854   5.371  18.942  0.00  0.00    +0.000 N 
ENDROOT
BRANCH   1   2
ATOM      2  C   UNL     1       2.729   4.551  19.274  0.00  0.00    +0.000 A 
ATOM      3  C   UNL     1       2.038   3.941  18.225  0.00  0.00    +0.000 A 
ATOM      4  C   UNL     1       0.966   3.090  18.490  0.00  0.00    +0.000 A 
ATOM      5  C   UNL     1       0.579   2.853  19.806  0.00  0.00    +0.000 A 
ATOM      6  C   UNL     1       1.257   3.472  20.858  0.00  0.00    +0.000 A 
ATOM      7  C   UNL     1       2.334   4.327  20.595  0.00  0.00    +0.000 A 
ENDBRANCH   1   2
BRANCH   1   8
ATOM      8  S   UNL     1       5.400   4.678  18.991  0.00  0.00    +0.000 S 
ATOM      9  O   UNL     1       6.293   5.640  19.613  0.00  0.00    +0.000 OA
ATOM     10  O   UNL     1       5.295   3.342  19.541  0.00  0.00    +0.000 OA
BRANCH   8  11
ATOM     11  C   UNL     1       5.978   4.488  17.297  0.00  0.00    +0.000 A 
ATOM     12  C   UNL     1       5.133   3.911  16.340  0.00  0.00    +0.000 A 
ATOM     13  C   UNL     1       5.434   4.026  14.975  0.00  0.00    +0.000 A 
ATOM     14  C   UNL     1       6.566   4.730  14.564  0.00  0.00    +0.000 A 
ATOM     15  C   UNL     1       7.412   5.302  15.513  0.00  0.00    +0.000 A 
ATOM     16  C   UNL     1       7.122   5.183  16.879  0.00  0.00    +0.000 A 
ENDBRANCH   8  11
ENDBRANCH   1   8
BRANCH   1  17
ATOM     17  C   UNL     1       3.635   6.592  18.148  0.00  0.00    +0.000 C 
BRANCH  17  21
ATOM     18  C   UNL     1       0.805   9.536  19.655  0.00  0.00    +0.000 A 
ATOM     19  C   UNL     1       1.283   8.543  20.519  0.00  0.00    +0.000 A 
ATOM     20  C   UNL     1       2.149   7.545  20.020  0.00  0.00    +0.000 A 
ATOM     21  C   UNL     1       2.540   7.526  18.664  0.00  0.00    +0.000 A 
ATOM     22  C   UNL     1       1.969   8.466  17.800  0.00  0.00    +0.000 A 
ATOM     23  C   UNL     1       1.126   9.466  18.291  0.00  0.00    +0.000 A 
BRANCH  18  25
ATOM     24  O   UNL     1      -0.045  11.691  19.299  0.00  0.00    +0.000 OA
ATOM     25  C   UNL     1       0.053  10.754  20.089  0.00  0.00    +0.000 C 
ATOM     26  N   UNL     1      -0.529  10.778  21.346  0.00  0.00    +0.000 N 
ATOM     27  H   UNL     1      -0.488   9.968  21.950  0.00  0.00    +0.000 HD
BRANCH  26  28
ATOM     28  C   UNL     1      -1.360  11.890  21.713  0.00  0.00    +0.000 C 
ATOM     29  C   UNL     1      -2.102  11.849  23.027  0.00  0.00    +0.000 C 
ATOM     30  C   UNL     1      -1.019  12.862  22.807  0.00  0.00    +0.000 C 
ENDBRANCH  26  28
ENDBRANCH  18  25
ENDBRANCH  17  21
ENDBRANCH   1  17
TORSDOF 7
ENDMDL
MODEL 2
REMARK VINA RESULT:      -9.1      0.728      1.233
REMARK  Name = 
REMARK  7 active torsions:
REMARK  status: ('A' for Active; 'I' for Inactive)
REMARK    1  A    between atoms: C_2  and  C_7
REMARK    2  A    between atoms: N_3  and  C_4
REMARK    3  A    between atoms: C_10  and  C_11
REMARK    4  A    between atoms: C_11  and  N_12
REMARK    5  A    between atoms: N_12  and  C_13
REMARK    6  A    between atoms: N_12  and  S_19
REMARK    7  A    between atoms: S_19  and  C_22
REMARK                            x       y       z     vdW  Elec       q    Type
REMARK                         _______ _______ _______ _____ _____    ______ ____
ROOT
ATOM      1  N   UNL     1       3.764   5.244  18.898  0.00  0.00    +0.000 N 
ENDROOT
BRANCH   1   2
ATOM      2  C   UNL     1       2.685   4.359  19.218  0.00  0.00    +0.000 A 
ATOM      3  C   UNL     1       2.369   4.183  20.567  0.00  0.00    +0.000 A 
ATOM      4  C   UNL     1       1.295   3.374  20.937  0.00  0.00    +0.000 A 
ATOM      5  C   UNL     1       0.541   2.733  19.958  0.00  0.00    +0.000 A 
ATOM      6  C   UNL     1       0.863   2.893  18.609  0.00  0.00    +0.000 A 
ATOM      7  C   UNL     1       1.940   3.706  18.234  0.00  0.00    +0.000 A 
ENDBRANCH   1   2
BRANCH   1   8
ATOM      8  S   UNL     1       5.348   4.647  18.974  0.00  0.00    +0.000 S 
ATOM      9  O   UNL     1       6.169   5.658  19.616  0.00  0.00    +0.000 OA
ATOM     10  O   UNL     1       5.315   3.304  19.517  0.00  0.00    +0.000 OA
BRANCH   8  11
ATOM     11  C   UNL     1       5.968   4.500  17.290  0.00  0.00    +0.000 A 
ATOM     12  C   UNL     1       5.181   3.870  16.317  0.00  0.00    +0.000 A 
ATOM     13  C   UNL     1       5.499   4.010  14.958  0.00  0.00    +0.000 A 
ATOM     14  C   UNL     1       6.588   4.789  14.569  0.00  0.00    +0.000 A 
ATOM     15  C   UNL     1       7.377   5.414  15.534  0.00  0.00    +0.000 A 
ATOM     16  C   UNL     1       7.070   5.272  16.894  0.00  0.00    +0.000 A 
ENDBRANCH   8  11
ENDBRANCH   1   8
BRANCH   1  17
ATOM     17  C   UNL     1       3.483   6.446  18.093  0.00  0.00    +0.000 C 
BRANCH  17  21
ATOM     18  C   UNL     1       0.997   9.520  19.915  0.00  0.00    +0.000 A 
ATOM     19  C   UNL     1       1.378   8.409  20.677  0.00  0.00    +0.000 A 
ATOM     20  C   UNL     1       2.127   7.375  20.073  0.00  0.00    +0.000 A 
ATOM     21  C   UNL     1       2.499   7.438  18.714  0.00  0.00    +0.000 A 
ATOM     22  C   UNL     1       2.020   8.507  17.948  0.00  0.00    +0.000 A 
ATOM     23  C   UNL     1       1.294   9.541  18.544  0.00  0.00    +0.000 A 
BRANCH  18  25
ATOM     24  O   UNL     1       1.077  11.490  21.181  0.00  0.00    +0.000 OA
ATOM     25  C   UNL     1       0.384  10.766  20.471  0.00  0.00    +0.000 C 
ATOM     26  N   UNL     1      -0.927  11.077  20.146  0.00  0.00    +0.000 N 
ATOM     27  H   UNL     1      -1.453  10.498  19.506  0.00  0.00    +0.000 HD
BRANCH  26  28
ATOM     28  C   UNL     1      -1.475  12.336  20.569  0.00  0.00    +0.000 C 
ATOM     29  C   UNL     1      -2.940  12.613  20.339  0.00  0.00    +0.000 C 
ATOM     30  C   UNL     1      -2.409  12.490  21.735  0.00  0.00    +0.000 C 
ENDBRANCH  26  28
ENDBRANCH  18  25
ENDBRANCH  17  21
ENDBRANCH   1  17
TORSDOF 7
ENDMDL
MODEL 3
REMARK VINA RESULT:      -9.1      0.449      1.338
REMARK  Name = 
REMARK  7 active torsions:
REMARK  status: ('A' for Active; 'I' for Inactive)
REMARK    1  A    between atoms: C_2  and  C_7
REMARK    2  A    between atoms: N_3  and  C_4
REMARK    3  A    between atoms: C_10  and  C_11
REMARK    4  A    between atoms: C_11  and  N_12
REMARK    5  A    between atoms: N_12  and  C_13
REMARK    6  A    between atoms: N_12  and  S_19
REMARK    7  A    between atoms: S_19  and  C_22
REMARK                            x       y       z     vdW  Elec       q    Type
REMARK                         _______ _______ _______ _____ _____    ______ ____
ROOT
ATOM      1  N   UNL     1       3.769   5.198  18.773  0.00  0.00    +0.000 N 
ENDROOT
BRANCH   1   2
ATOM      2  C   UNL     1       2.687   4.350  19.176  0.00  0.00    +0.000 A 
ATOM      3  C   UNL     1       2.411   4.256  20.542  0.00  0.00    +0.000 A 
ATOM      4  C   UNL     1       1.338   3.487  20.991  0.00  0.00    +0.000 A 
ATOM      5  C   UNL     1       0.543   2.806  20.073  0.00  0.00    +0.000 A 
ATOM      6  C   UNL     1       0.824   2.886  18.708  0.00  0.00    +0.000 A 
ATOM      7  C   UNL     1       1.901   3.656  18.255  0.00  0.00    +0.000 A 
ENDBRANCH   1   2
BRANCH   1   8
ATOM      8  S   UNL     1       5.354   4.627  18.961  0.00  0.00    +0.000 S 
ATOM      9  O   UNL     1       6.107   5.646  19.670  0.00  0.00    +0.000 OA
ATOM     10  O   UNL     1       5.305   3.278  19.488  0.00  0.00    +0.000 OA
BRANCH   8  11
ATOM     11  C   UNL     1       6.098   4.507  17.326  0.00  0.00    +0.000 A 
ATOM     12  C   UNL     1       5.505   3.689  16.355  0.00  0.00    +0.000 A 
ATOM     13  C   UNL     1       5.879   3.811  15.009  0.00  0.00    +0.000 A 
ATOM     14  C   UNL     1       6.830   4.758  14.628  0.00  0.00    +0.000 A 
ATOM     15  C   UNL     1       7.425   5.571  15.591  0.00  0.00    +0.000 A 
ATOM     16  C   UNL     1       7.063   5.449  16.939  0.00  0.00    +0.000 A 
ENDBRANCH   8  11
ENDBRANCH   1   8
BRANCH   1  17
ATOM     17  C   UNL     1       3.502   6.287  17.819  0.00  0.00    +0.000 C 
BRANCH  17  21
ATOM     18  C   UNL     1       0.981   9.489  19.350  0.00  0.00    +0.000 A 
ATOM     19  C   UNL     1       1.535   9.609  18.069  0.00  0.00    +0.000 A 
ATOM     20  C   UNL     1       2.407   8.605  17.593  0.00  0.00    +0.000 A 
ATOM     21  C   UNL     1       2.736   7.484  18.384  0.00  0.00    +0.000 A 
ATOM     22  C   UNL     1       2.253   7.439  19.696  0.00  0.00    +0.000 A 
ATOM     23  C   UNL     1       1.376   8.419  20.166  0.00  0.00    +0.000 A 
BRANCH  18  25
ATOM     24  O   UNL     1      -1.017  10.696  19.144  0.00  0.00    +0.000 OA
ATOM     25  C   UNL     1      -0.102  10.364  19.895  0.00  0.00    +0.000 C 
ATOM     26  N   UNL     1      -0.058  10.745  21.227  0.00  0.00    +0.000 N 
ATOM     27  H   UNL     1       0.670  10.402  21.838  0.00  0.00    +0.000 HD
BRANCH  26  28
ATOM     28  C   UNL     1      -1.163  11.473  21.785  0.00  0.00    +0.000 C 
ATOM     29  C   UNL     1      -1.540  11.241  23.228  0.00  0.00    +0.000 C 
ATOM     30  C   UNL     1      -1.011  12.575  22.795  0.00  0.00    +0.000 C 
ENDBRANCH  26  28
ENDBRANCH  18  25
ENDBRANCH  17  21
ENDBRANCH   1  17
TORSDOF 7
ENDMDL
MODEL 4
REMARK VINA RESULT:      -9.0      2.323      4.990
REMARK  Name = 
REMARK  7 active torsions:
REMARK  status: ('A' for Active; 'I' for Inactive)
REMARK    1  A    between atoms: C_2  and  C_7
REMARK    2  A    between atoms: N_3  and  C_4
REMARK    3  A    between atoms: C_10  and  C_11
REMARK    4  A    between atoms: C_11  and  N_12
REMARK    5  A    between atoms: N_12  and  C_13
REMARK    6  A    between atoms: N_12  and  S_19
REMARK    7  A    between atoms: S_19  and  C_22
REMARK                            x       y       z     vdW  Elec       q    Type
REMARK                         _______ _______ _______ _____ _____    ______ ____
ROOT
ATOM      1  N   UNL     1       3.695   5.081  17.883  0.00  0.00    +0.000 N 
ENDROOT
BRANCH   1   2
ATOM      2  C   UNL     1       4.921   4.980  17.149  0.00  0.00    +0.000 A 
ATOM      3  C   UNL     1       4.906   5.362  15.806  0.00  0.00    +0.000 A 
ATOM      4  C   UNL     1       6.080   5.335  15.054  0.00  0.00    +0.000 A 
ATOM      5  C   UNL     1       7.271   4.917  15.644  0.00  0.00    +0.000 A 
ATOM      6  C   UNL     1       7.287   4.520  16.983  0.00  0.00    +0.000 A 
ATOM      7  C   UNL     1       6.110   4.547  17.740  0.00  0.00    +0.000 A 
ENDBRANCH   1   2
BRANCH   1   8
ATOM      8  S   UNL     1       2.535   3.862  17.688  0.00  0.00    +0.000 S 
ATOM      9  O   UNL     1       1.280   4.501  17.337  0.00  0.00    +0.000 OA
ATOM     10  O   UNL     1       3.079   2.833  16.825  0.00  0.00    +0.000 OA
BRANCH   8  11
ATOM     11  C   UNL     1       2.267   3.089  19.292  0.00  0.00    +0.000 A 
ATOM     12  C   UNL     1       3.352   2.529  19.979  0.00  0.00    +0.000 A 
ATOM     13  C   UNL     1       3.230   2.200  21.337  0.00  0.00    +0.000 A 
ATOM     14  C   UNL     1       2.035   2.445  22.014  0.00  0.00    +0.000 A 
ATOM     15  C   UNL     1       0.952   2.999  21.333  0.00  0.00    +0.000 A 
ATOM     16  C   UNL     1       1.063   3.322  19.974  0.00  0.00    +0.000 A 
ENDBRANCH   8  11
ENDBRANCH   1   8
BRANCH   1  17
ATOM     17  C   UNL     1       3.654   5.933  19.084  0.00  0.00    +0.000 C 
BRANCH  17  21
ATOM     18  C   UNL     1       1.061   9.393  18.585  0.00  0.00    +0.000 A 
ATOM     19  C   UNL     1       1.980   9.077  17.576  0.00  0.00    +0.000 A 
ATOM     20  C   UNL     1       2.870   7.996  17.761  0.00  0.00    +0.000 A 
ATOM     21  C   UNL     1       2.855   7.228  18.945  0.00  0.00    +0.000 A 
ATOM     22  C   UNL     1       2.000   7.627  19.979  0.00  0.00    +0.000 A 
ATOM     23  C   UNL     1       1.105   8.684  19.794  0.00  0.00    +0.000 A 
BRANCH  18  25
ATOM     24  O   UNL     1      -0.004  11.422  19.073  0.00  0.00    +0.000 OA
ATOM     25  C   UNL     1      -0.061  10.371  18.440  0.00  0.00    +0.000 C 
ATOM     26  N   UNL     1      -1.108  10.077  17.579  0.00  0.00    +0.000 N 
ATOM     27  H   UNL     1      -1.096   9.235  17.020  0.00  0.00    +0.000 HD
BRANCH  26  28
ATOM     28  C   UNL     1      -2.117  11.070  17.338  0.00  0.00    +0.000 C 
ATOM     29  C   UNL     1      -2.792  11.116  15.990  0.00  0.00    +0.000 C 
ATOM     30  C   UNL     1      -3.581  10.757  17.212  0.00  0.00    +0.000 C 
ENDBRANCH  26  28
ENDBRANCH  18  25
ENDBRANCH  17  21
ENDBRANCH   1  17
TORSDOF 7
ENDMDL
MODEL 5
REMARK VINA RESULT:      -8.8      0.961      1.696
REMARK  Name = 
REMARK  7 active torsions:
REMARK  status: ('A' for Active; 'I' for Inactive)
REMARK    1  A    between atoms: C_2  and  C_7
REMARK    2  A    between atoms: N_3  and  C_4
REMARK    3  A    between atoms: C_10  and  C_11
REMARK    4  A    between atoms: C_11  and  N_12
REMARK    5  A    between atoms: N_12  and  C_13
REMARK    6  A    between atoms: N_12  and  S_19
REMARK    7  A    between atoms: S_19  and  C_22
REMARK                            x       y       z     vdW  Elec       q    Type
REMARK                         _______ _______ _______ _____ _____    ______ ____
ROOT
ATOM      1  N   UNL     1       3.666   5.101  18.791  0.00  0.00    +0.000 N 
ENDROOT
BRANCH   1   2
ATOM      2  C   UNL     1       2.624   4.186  19.147  0.00  0.00    +0.000 A 
ATOM      3  C   UNL     1       2.283   4.085  20.498  0.00  0.00    +0.000 A 
ATOM      4  C   UNL     1       1.241   3.251  20.899  0.00  0.00    +0.000 A 
ATOM      5  C   UNL     1       0.542   2.509  19.950  0.00  0.00    +0.000 A 
ATOM      6  C   UNL     1       0.889   2.595  18.600  0.00  0.00    +0.000 A 
ATOM      7  C   UNL     1       1.935   3.433  18.194  0.00  0.00    +0.000 A 
ENDBRANCH   1   2
BRANCH   1   8
ATOM      8  S   UNL     1       5.274   4.590  18.944  0.00  0.00    +0.000 S 
ATOM      9  O   UNL     1       6.007   5.643  19.624  0.00  0.00    +0.000 OA
ATOM     10  O   UNL     1       5.288   3.246  19.485  0.00  0.00    +0.000 OA
BRANCH   8  11
ATOM     11  C   UNL     1       5.982   4.481  17.292  0.00  0.00    +0.000 A 
ATOM     12  C   UNL     1       5.311   3.754  16.300  0.00  0.00    +0.000 A 
ATOM     13  C   UNL     1       5.673   3.903  14.953  0.00  0.00    +0.000 A 
ATOM     14  C   UNL     1       6.691   4.786  14.594  0.00  0.00    +0.000 A 
ATOM     15  C   UNL     1       7.365   5.508  15.579  0.00  0.00    +0.000 A 
ATOM     16  C   UNL     1       7.014   5.358  16.927  0.00  0.00    +0.000 A 
ENDBRANCH   8  11
ENDBRANCH   1   8
BRANCH   1  17
ATOM     17  C   UNL     1       3.348   6.229  17.899  0.00  0.00    +0.000 C 
BRANCH  17  21
ATOM     18  C   UNL     1       0.975   9.377  19.745  0.00  0.00    +0.000 A 
ATOM     19  C   UNL     1       1.360   9.509  18.405  0.00  0.00    +0.000 A 
ATOM     20  C   UNL     1       2.186   8.524  17.820  0.00  0.00    +0.000 A 
ATOM     21  C   UNL     1       2.635   7.410  18.560  0.00  0.00    +0.000 A 
ATOM     22  C   UNL     1       2.323   7.354  19.922  0.00  0.00    +0.000 A 
ATOM     23  C   UNL     1       1.491   8.315  20.502  0.00  0.00    +0.000 A 
BRANCH  18  25
ATOM     24  O   UNL     1      -0.584   9.796  21.444  0.00  0.00    +0.000 OA
ATOM     25  C   UNL     1      -0.049  10.229  20.425  0.00  0.00    +0.000 C 
ATOM     26  N   UNL     1      -0.341  11.481  19.907  0.00  0.00    +0.000 N 
ATOM     27  H   UNL     1       0.162  11.838  19.106  0.00  0.00    +0.000 HD
BRANCH  26  28
ATOM     28  C   UNL     1      -1.224  12.352  20.632  0.00  0.00    +0.000 C 
ATOM     29  C   UNL     1      -1.559  13.703  20.051  0.00  0.00    +0.000 C 
ATOM     30  C   UNL     1      -2.628  12.664  20.198  0.00  0.00    +0.000 C 
ENDBRANCH  26  28
ENDBRANCH  18  25
ENDBRANCH  17  21
ENDBRANCH   1  17
TORSDOF 7
ENDMDL
MODEL 6
REMARK VINA RESULT:      -8.8      0.505      1.628
REMARK  Name = 
REMARK  7 active torsions:
REMARK  status: ('A' for Active; 'I' for Inactive)
REMARK    1  A    between atoms: C_2  and  C_7
REMARK    2  A    between atoms: N_3  and  C_4
REMARK    3  A    between atoms: C_10  and  C_11
REMARK    4  A    between atoms: C_11  and  N_12
REMARK    5  A    between atoms: N_12  and  C_13
REMARK    6  A    between atoms: N_12  and  S_19
REMARK    7  A    between atoms: S_19  and  C_22
REMARK                            x       y       z     vdW  Elec       q    Type
REMARK                         _______ _______ _______ _____ _____    ______ ____
ROOT
ATOM      1  N   UNL     1       3.647   5.154  18.864  0.00  0.00    +0.000 N 
ENDROOT
BRANCH   1   2
ATOM      2  C   UNL     1       2.740   4.299  19.567  0.00  0.00    +0.000 A 
ATOM      3  C   UNL     1       2.872   4.213  20.955  0.00  0.00    +0.000 A 
ATOM      4  C   UNL     1       1.985   3.437  21.699  0.00  0.00    +0.000 A 
ATOM      5  C   UNL     1       0.966   2.740  21.055  0.00  0.00    +0.000 A 
ATOM      6  C   UNL     1       0.838   2.811  19.666  0.00  0.00    +0.000 A 
ATOM      7  C   UNL     1       1.728   3.589  18.917  0.00  0.00    +0.000 A 
ENDBRANCH   1   2
BRANCH   1   8
ATOM      8  S   UNL     1       5.281   4.709  18.790  0.00  0.00    +0.000 S 
ATOM      9  O   UNL     1       6.042   5.707  19.521  0.00  0.00    +0.000 OA
ATOM     10  O   UNL     1       5.401   3.312  19.152  0.00  0.00    +0.000 OA
BRANCH   8  11
ATOM     11  C   UNL     1       5.814   4.838  17.075  0.00  0.00    +0.000 A 
ATOM     12  C   UNL     1       6.911   5.647  16.751  0.00  0.00    +0.000 A 
ATOM     13  C   UNL     1       7.526   5.529  15.496  0.00  0.00    +0.000 A 
ATOM     14  C   UNL     1       7.059   4.595  14.571  0.00  0.00    +0.000 A 
ATOM     15  C   UNL     1       5.965   3.791  14.887  0.00  0.00    +0.000 A 
ATOM     16  C   UNL     1       5.340   3.909  16.136  0.00  0.00    +0.000 A 
ENDBRANCH   8  11
ENDBRANCH   1   8
BRANCH   1  17
ATOM     17  C   UNL     1       3.109   6.098  17.869  0.00  0.00    +0.000 C 
BRANCH  17  21
ATOM     18  C   UNL     1       1.149   9.662  19.418  0.00  0.00    +0.000 A 
ATOM     19  C   UNL     1       1.669   9.679  18.118  0.00  0.00    +0.000 A 
ATOM     20  C   UNL     1       2.366   8.550  17.633  0.00  0.00    +0.000 A 
ATOM     21  C   UNL     1       2.551   7.403  18.435  0.00  0.00    +0.000 A 
ATOM     22  C   UNL     1       2.113   7.449  19.763  0.00  0.00    +0.000 A 
ATOM     23  C   UNL     1       1.408   8.557  20.242  0.00  0.00    +0.000 A 
BRANCH  18  25
ATOM     24  O   UNL     1      -0.088  11.647  19.268  0.00  0.00    +0.000 OA
ATOM     25  C   UNL     1       0.227  10.697  19.981  0.00  0.00    +0.000 C 
ATOM     26  N   UNL     1      -0.262  10.538  21.268  0.00  0.00    +0.000 N 
ATOM     27  H   UNL     1      -0.039   9.713  21.808  0.00  0.00    +0.000 HD
BRANCH  26  28
ATOM     28  C   UNL     1      -1.249  11.458  21.762  0.00  0.00    +0.000 C 
ATOM     29  C   UNL     1      -1.628  11.413  23.221  0.00  0.00    +0.000 C 
ATOM     30  C   UNL     1      -0.931  12.617  22.663  0.00  0.00    +0.000 C 
ENDBRANCH  26  28
ENDBRANCH  18  25
ENDBRANCH  17  21
ENDBRANCH   1  17
TORSDOF 7
ENDMDL
MODEL 7
REMARK VINA RESULT:      -8.8      0.452      1.003
REMARK  Name = 
REMARK  7 active torsions:
REMARK  status: ('A' for Active; 'I' for Inactive)
REMARK    1  A    between atoms: C_2  and  C_7
REMARK    2  A    between atoms: N_3  and  C_4
REMARK    3  A    between atoms: C_10  and  C_11
REMARK    4  A    between atoms: C_11  and  N_12
REMARK    5  A    between atoms: N_12  and  C_13
REMARK    6  A    between atoms: N_12  and  S_19
REMARK    7  A    between atoms: S_19  and  C_22
REMARK                            x       y       z     vdW  Elec       q    Type
REMARK                         _______ _______ _______ _____ _____    ______ ____
ROOT
ATOM      1  N   UNL     1       3.609   5.362  18.855  0.00  0.00    +0.000 N 
ENDROOT
BRANCH   1   2
ATOM      2  C   UNL     1       2.577   4.498  19.344  0.00  0.00    +0.000 A 
ATOM      3  C   UNL     1       1.789   3.830  18.404  0.00  0.00    +0.000 A 
ATOM      4  C   UNL     1       0.804   2.936  18.820  0.00  0.00    +0.000 A 
ATOM      5  C   UNL     1       0.600   2.714  20.179  0.00  0.00    +0.000 A 
ATOM      6  C   UNL     1       1.375   3.390  21.124  0.00  0.00    +0.000 A 
ATOM      7  C   UNL     1       2.365   4.289  20.708  0.00  0.00    +0.000 A 
ENDBRANCH   1   2
BRANCH   1   8
ATOM      8  S   UNL     1       5.196   4.771  18.797  0.00  0.00    +0.000 S 
ATOM      9  O   UNL     1       6.038   5.699  19.530  0.00  0.00    +0.000 OA
ATOM     10  O   UNL     1       5.186   3.370  19.168  0.00  0.00    +0.000 OA
BRANCH   8  11
ATOM     11  C   UNL     1       5.753   4.840  17.086  0.00  0.00    +0.000 A 
ATOM     12  C   UNL     1       6.966   5.471  16.780  0.00  0.00    +0.000 A 
ATOM     13  C   UNL     1       7.562   5.277  15.525  0.00  0.00    +0.000 A 
ATOM     14  C   UNL     1       6.959   4.443  14.584  0.00  0.00    +0.000 A 
ATOM     15  C   UNL     1       5.749   3.817  14.883  0.00  0.00    +0.000 A 
ATOM     16  C   UNL     1       5.144   4.013  16.131  0.00  0.00    +0.000 A 
ENDBRANCH   8  11
ENDBRANCH   1   8
BRANCH   1  17
ATOM     17  C   UNL     1       3.234   6.510  18.011  0.00  0.00    +0.000 C 
BRANCH  17  21
ATOM     18  C   UNL     1       0.979   9.696  19.938  0.00  0.00    +0.000 A 
ATOM     19  C   UNL     1       1.353   8.574  20.688  0.00  0.00    +0.000 A 
ATOM     20  C   UNL     1       2.026   7.507  20.053  0.00  0.00    +0.000 A 
ATOM     21  C   UNL     1       2.327   7.546  18.675  0.00  0.00    +0.000 A 
ATOM     22  C   UNL     1       1.853   8.629  17.927  0.00  0.00    +0.000 A 
ATOM     23  C   UNL     1       1.202   9.696  18.552  0.00  0.00    +0.000 A 
BRANCH  18  25
ATOM     24  O   UNL     1       1.062  12.010  20.294  0.00  0.00    +0.000 OA
ATOM     25  C   UNL     1       0.448  10.969  20.515  0.00  0.00    +0.000 C 
ATOM     26  N   UNL     1      -0.727  10.941  21.250  0.00  0.00    +0.000 N 
ATOM     27  H   UNL     1      -1.247  10.081  21.360  0.00  0.00    +0.000 HD
BRANCH  26  28
ATOM     28  C   UNL     1      -1.308  12.178  21.692  0.00  0.00    +0.000 C 
ATOM     29  C   UNL     1      -2.555  12.140  22.541  0.00  0.00    +0.000 C 
ATOM     30  C   UNL     1      -1.270  12.655  23.116  0.00  0.00    +0.000 C 
ENDBRANCH  26  28
ENDBRANCH  18  25
ENDBRANCH  17  21
ENDBRANCH   1  17
TORSDOF 7
ENDMDL
MODEL 8
REMARK VINA RESULT:      -8.7      1.822      4.590
REMARK  Name = 
REMARK  7 active torsions:
REMARK  status: ('A' for Active; 'I' for Inactive)
REMARK    1  A    between atoms: C_2  and  C_7
REMARK    2  A    between atoms: N_3  and  C_4
REMARK    3  A    between atoms: C_10  and  C_11
REMARK    4  A    between atoms: C_11  and  N_12
REMARK    5  A    between atoms: N_12  and  C_13
REMARK    6  A    between atoms: N_12  and  S_19
REMARK    7  A    between atoms: S_19  and  C_22
REMARK                            x       y       z     vdW  Elec       q    Type
REMARK                         _______ _______ _______ _____ _____    ______ ____
ROOT
ATOM      1  N   UNL     1       3.671   5.167  17.807  0.00  0.00    +0.000 N 
ENDROOT
BRANCH   1   2
ATOM      2  C   UNL     1       4.874   5.096  17.034  0.00  0.00    +0.000 A 
ATOM      3  C   UNL     1       6.026   4.627  17.669  0.00  0.00    +0.000 A 
ATOM      4  C   UNL     1       7.215   4.486  16.954  0.00  0.00    +0.000 A 
ATOM      5  C   UNL     1       7.254   4.820  15.603  0.00  0.00    +0.000 A 
ATOM      6  C   UNL     1       6.109   5.303  14.967  0.00  0.00    +0.000 A 
ATOM      7  C   UNL     1       4.914   5.446  15.683  0.00  0.00    +0.000 A 
ENDBRANCH   1   2
BRANCH   1   8
ATOM      8  S   UNL     1       2.522   3.935  17.627  0.00  0.00    +0.000 S 
ATOM      9  O   UNL     1       1.254   4.560  17.295  0.00  0.00    +0.000 OA
ATOM     10  O   UNL     1       3.065   2.914  16.754  0.00  0.00    +0.000 OA
BRANCH   8  11
ATOM     11  C   UNL     1       2.286   3.157  19.234  0.00  0.00    +0.000 A 
ATOM     12  C   UNL     1       3.383   2.588  19.894  0.00  0.00    +0.000 A 
ATOM     13  C   UNL     1       3.290   2.254  21.253  0.00  0.00    +0.000 A 
ATOM     14  C   UNL     1       2.112   2.503  21.957  0.00  0.00    +0.000 A 
ATOM     15  C   UNL     1       1.016   3.065  21.303  0.00  0.00    +0.000 A 
ATOM     16  C   UNL     1       1.099   3.393  19.944  0.00  0.00    +0.000 A 
ENDBRANCH   8  11
ENDBRANCH   1   8
BRANCH   1  17
ATOM     17  C   UNL     1       3.655   5.998  19.023  0.00  0.00    +0.000 C 
BRANCH  17  21
ATOM     18  C   UNL     1       1.077   9.505  19.093  0.00  0.00    +0.000 A 
ATOM     19  C   UNL     1       1.147   8.686  20.227  0.00  0.00    +0.000 A 
ATOM     20  C   UNL     1       1.929   7.510  20.188  0.00  0.00    +0.000 A 
ATOM     21  C   UNL     1       2.640   7.141  19.026  0.00  0.00    +0.000 A 
ATOM     22  C   UNL     1       2.472   7.919  17.875  0.00  0.00    +0.000 A 
ATOM     23  C   UNL     1       1.714   9.093  17.913  0.00  0.00    +0.000 A 
BRANCH  18  25
ATOM     24  O   UNL     1       1.144  11.810  18.677  0.00  0.00    +0.000 OA
ATOM     25  C   UNL     1       0.458  10.866  19.062  0.00  0.00    +0.000 C 
ATOM     26  N   UNL     1      -0.868  11.015  19.436  0.00  0.00    +0.000 N 
ATOM     27  H   UNL     1      -1.429  10.211  19.685  0.00  0.00    +0.000 HD
BRANCH  26  28
ATOM     28  C   UNL     1      -1.502  12.295  19.280  0.00  0.00    +0.000 C 
ATOM     29  C   UNL     1      -2.819  12.550  19.970  0.00  0.00    +0.000 C 
ATOM     30  C   UNL     1      -1.597  13.317  20.377  0.00  0.00    +0.000 C 
ENDBRANCH  26  28
ENDBRANCH  18  25
ENDBRANCH  17  21
ENDBRANCH   1  17
TORSDOF 7
ENDMDL
MODEL 9
REMARK VINA RESULT:      -8.7      1.959      4.874
REMARK  Name = 
REMARK  7 active torsions:
REMARK  status: ('A' for Active; 'I' for Inactive)
REMARK    1  A    between atoms: C_2  and  C_7
REMARK    2  A    between atoms: N_3  and  C_4
REMARK    3  A    between atoms: C_10  and  C_11
REMARK    4  A    between atoms: C_11  and  N_12
REMARK    5  A    between atoms: N_12  and  C_13
REMARK    6  A    between atoms: N_12  and  S_19
REMARK    7  A    between atoms: S_19  and  C_22
REMARK                            x       y       z     vdW  Elec       q    Type
REMARK                         _______ _______ _______ _____ _____    ______ ____
ROOT
ATOM      1  N   UNL     1       4.131   4.390  17.629  0.00  0.00    +0.000 N 
ENDROOT
BRANCH   1   2
ATOM      2  C   UNL     1       5.169   4.550  16.656  0.00  0.00    +0.000 A 
ATOM      3  C   UNL     1       6.458   4.822  17.121  0.00  0.00    +0.000 A 
ATOM      4  C   UNL     1       7.519   4.936  16.224  0.00  0.00    +0.000 A 
ATOM      5  C   UNL     1       7.291   4.786  14.858  0.00  0.00    +0.000 A 
ATOM      6  C   UNL     1       6.002   4.529  14.388  0.00  0.00    +0.000 A 
ATOM      7  C   UNL     1       4.934   4.413  15.286  0.00  0.00    +0.000 A 
ENDBRANCH   1   2
BRANCH   1   8
ATOM      8  S   UNL     1       3.176   2.992  17.567  0.00  0.00    +0.000 S 
ATOM      9  O   UNL     1       2.059   3.261  16.680  0.00  0.00    +0.000 OA
ATOM     10  O   UNL     1       4.033   1.852  17.312  0.00  0.00    +0.000 OA
BRANCH   8  11
ATOM     11  C   UNL     1       2.461   2.735  19.200  0.00  0.00    +0.000 A 
ATOM     12  C   UNL     1       3.303   2.479  20.290  0.00  0.00    +0.000 A 
ATOM     13  C   UNL     1       2.809   2.576  21.599  0.00  0.00    +0.000 A 
ATOM     14  C   UNL     1       1.482   2.945  21.821  0.00  0.00    +0.000 A 
ATOM     15  C   UNL     1       0.639   3.196  20.739  0.00  0.00    +0.000 A 
ATOM     16  C   UNL     1       1.124   3.092  19.429  0.00  0.00    +0.000 A 
ENDBRANCH   8  11
ENDBRANCH   1   8
BRANCH   1  17
ATOM     17  C   UNL     1       4.208   5.158  18.884  0.00  0.00    +0.000 C 
BRANCH  17  21
ATOM     18  C   UNL     1       1.498   8.512  19.481  0.00  0.00    +0.000 A 
ATOM     19  C   UNL     1       1.579   7.515  20.462  0.00  0.00    +0.000 A 
ATOM     20  C   UNL     1       2.405   6.391  20.244  0.00  0.00    +0.000 A 
ATOM     21  C   UNL     1       3.151   6.248  19.055  0.00  0.00    +0.000 A 
ATOM     22  C   UNL     1       2.974   7.204  18.048  0.00  0.00    +0.000 A 
ATOM     23  C   UNL     1       2.172   8.327  18.264  0.00  0.00    +0.000 A 
BRANCH  18  25
ATOM     24  O   UNL     1       0.995  10.432  20.725  0.00  0.00    +0.000 OA
ATOM     25  C   UNL     1       0.828   9.836  19.663  0.00  0.00    +0.000 C 
ATOM     26  N   UNL     1       0.071  10.360  18.628  0.00  0.00    +0.000 N 
ATOM     27  H   UNL     1       0.005   9.879  17.741  0.00  0.00    +0.000 HD
BRANCH  26  28
ATOM     28  C   UNL     1      -0.462  11.688  18.750  0.00  0.00    +0.000 C 
ATOM     29  C   UNL     1      -1.681  12.066  17.945  0.00  0.00    +0.000 C 
ATOM     30  C   UNL     1      -1.758  12.006  19.440  0.00  0.00    +0.000 C 
ENDBRANCH  26  28
ENDBRANCH  18  25
ENDBRANCH  17  21
ENDBRANCH   1  17
TORSDOF 7
ENDMDL
