MODEL 1
REMARK VINA RESULT:      -6.6      0.000      0.000
REMARK  Name = 
REMARK  7 active torsions:
REMARK  status: ('A' for Active; 'I' for Inactive)
REMARK    1  A    between atoms: C_1  and  C_2
REMARK    2  A    between atoms: C_4  and  C_5
REMARK    3  A    between atoms: N_10  and  C_11
REMARK    4  A    between atoms: C_11  and  C_12
REMARK    5  A    between atoms: C_11  and  C_13
REMARK    6  A    between atoms: C_11  and  C_14
REMARK    7  A    between atoms: N_15  and  C_16
REMARK                            x       y       z     vdW  Elec       q    Type
REMARK                         _______ _______ _______ _____ _____    ______ ____
ROOT
ATOM      1  C   UNL     1       1.606   9.915  17.702  0.00  0.00    +0.000 C 
ATOM      2  C   UNL     1       1.491   9.105  18.957  0.00  0.00    +0.000 A 
ATOM      3  C   UNL     1       0.729   9.532  20.039  0.00  0.00    +0.000 A 
ATOM      4  C   UNL     1       0.664   8.724  21.168  0.00  0.00    +0.000 A 
ATOM      5  C   UNL     1      -0.156   9.138  22.352  0.00  0.00    +0.000 C 
ATOM      6  N   UNL     1       1.313   7.535  21.261  0.00  0.00    +0.000 NA
ATOM      7  C   UNL     1       2.058   7.117  20.212  0.00  0.00    +0.000 A 
ATOM      8  N   UNL     1       2.647   5.861  20.364  0.00  0.00    +0.000 N 
ATOM      9  C   UNL     1       3.534   5.202  19.551  0.00  0.00    +0.000 C 
ATOM     10  N   UNL     1       4.267   5.853  18.724  0.00  0.00    +0.000 NA
ATOM     11  N   UNL     1       3.557   3.842  19.744  0.00  0.00    +0.000 N 
ATOM     12  C   UNL     1       2.155   7.881  19.054  0.00  0.00    +0.000 A 
ATOM     13  H   UNL     1       2.401   5.476  21.264  0.00  0.00    +0.000 HD
ATOM     14  H   UNL     1       4.129   3.338  19.086  0.00  0.00    +0.000 HD
ENDROOT
BRANCH  10  15
ATOM     15  C   UNL     1       5.235   5.429  17.722  0.00  0.00    +0.000 C 
ATOM     16  C   UNL     1       4.579   4.432  16.762  0.00  0.00    +0.000 C 
ATOM     17  C   UNL     1       5.603   6.712  16.944  0.00  0.00    +0.000 C 
ATOM     18  C   UNL     1       6.523   4.872  18.325  0.00  0.00    +0.000 C 
ENDBRANCH  10  15
BRANCH  11  19
ATOM     19  C   UNL     1       2.333   3.150  20.078  0.00  0.00    +0.000 C 
ATOM     20  N   UNL     1       1.361   2.598  20.389  0.00  0.00    +0.000 NA
ENDBRANCH  11  19
TORSDOF 2
ENDMDL
MODEL 2
REMARK VINA RESULT:      -6.4      1.867      5.603
REMARK  Name = 
REMARK  7 active torsions:
REMARK  status: ('A' for Active; 'I' for Inactive)
REMARK    1  A    between atoms: C_1  and  C_2
REMARK    2  A    between atoms: C_4  and  C_5
REMARK    3  A    between atoms: N_10  and  C_11
REMARK    4  A    between atoms: C_11  and  C_12
REMARK    5  A    between atoms: C_11  and  C_13
REMARK    6  A    between atoms: C_11  and  C_14
REMARK    7  A    between atoms: N_15  and  C_16
REMARK                            x       y       z     vdW  Elec       q    Type
REMARK                         _______ _______ _______ _____ _____    ______ ____
ROOT
ATOM      1  C   UNL     1       5.544   3.662  15.402  0.00  0.00    +0.000 C 
ATOM      2  C   UNL     1       5.712   4.713  16.456  0.00  0.00    +0.000 A 
ATOM      3  C   UNL     1       6.735   5.652  16.401  0.00  0.00    +0.000 A 
ATOM      4  C   UNL     1       6.824   6.601  17.412  0.00  0.00    +0.000 A 
ATOM      5  C   UNL     1       7.904   7.641  17.385  0.00  0.00    +0.000 C 
ATOM      6  N   UNL     1       5.955   6.652  18.453  0.00  0.00    +0.000 NA
ATOM      7  C   UNL     1       4.959   5.738  18.513  0.00  0.00    +0.000 A 
ATOM      8  N   UNL     1       4.075   5.892  19.582  0.00  0.00    +0.000 N 
ATOM      9  C   UNL     1       3.040   5.088  19.990  0.00  0.00    +0.000 C 
ATOM     10  N   UNL     1       3.012   3.848  19.667  0.00  0.00    +0.000 NA
ATOM     11  N   UNL     1       2.108   5.736  20.764  0.00  0.00    +0.000 N 
ATOM     12  C   UNL     1       4.817   4.768  17.527  0.00  0.00    +0.000 A 
ATOM     13  H   UNL     1       4.349   6.688  20.139  0.00  0.00    +0.000 HD
ATOM     14  H   UNL     1       1.295   5.185  20.985  0.00  0.00    +0.000 HD
ENDROOT
BRANCH  10  15
ATOM     15  C   UNL     1       2.039   2.791  19.902  0.00  0.00    +0.000 C 
ATOM     16  C   UNL     1       0.705   3.164  19.248  0.00  0.00    +0.000 C 
ATOM     17  C   UNL     1       2.615   1.543  19.197  0.00  0.00    +0.000 C 
ATOM     18  C   UNL     1       1.869   2.446  21.381  0.00  0.00    +0.000 C 
ENDBRANCH  10  15
BRANCH  11  19
ATOM     19  C   UNL     1       1.798   7.121  20.495  0.00  0.00    +0.000 C 
ATOM     20  N   UNL     1       1.524   8.221  20.244  0.00  0.00    +0.000 NA
ENDBRANCH  11  19
TORSDOF 2
ENDMDL
MODEL 3
REMARK VINA RESULT:      -6.3      0.163      1.049
REMARK  Name = 
REMARK  7 active torsions:
REMARK  status: ('A' for Active; 'I' for Inactive)
REMARK    1  A    between atoms: C_1  and  C_2
REMARK    2  A    between atoms: C_4  and  C_5
REMARK    3  A    between atoms: N_10  and  C_11
REMARK    4  A    between atoms: C_11  and  C_12
REMARK    5  A    between atoms: C_11  and  C_13
REMARK    6  A    between atoms: C_11  and  C_14
REMARK    7  A    between atoms: N_15  and  C_16
REMARK                            x       y       z     vdW  Elec       q    Type
REMARK                         _______ _______ _______ _____ _____    ______ ____
ROOT
ATOM      1  C   UNL     1       1.577   9.868  17.667  0.00  0.00    +0.000 C 
ATOM      2  C   UNL     1       1.502   9.086  18.942  0.00  0.00    +0.000 A 
ATOM      3  C   UNL     1       0.793   9.547  20.046  0.00  0.00    +0.000 A 
ATOM      4  C   UNL     1       0.763   8.763  21.193  0.00  0.00    +0.000 A 
ATOM      5  C   UNL     1      -0.001   9.215  22.402  0.00  0.00    +0.000 C 
ATOM      6  N   UNL     1       1.397   7.566  21.284  0.00  0.00    +0.000 NA
ATOM      7  C   UNL     1       2.091   7.115  20.214  0.00  0.00    +0.000 A 
ATOM      8  N   UNL     1       2.666   5.853  20.367  0.00  0.00    +0.000 N 
ATOM      9  C   UNL     1       3.508   5.163  19.532  0.00  0.00    +0.000 C 
ATOM     10  N   UNL     1       4.216   5.785  18.662  0.00  0.00    +0.000 NA
ATOM     11  N   UNL     1       3.518   3.807  19.752  0.00  0.00    +0.000 N 
ATOM     12  C   UNL     1       2.151   7.853  19.037  0.00  0.00    +0.000 A 
ATOM     13  H   UNL     1       2.452   5.490  21.285  0.00  0.00    +0.000 HD
ATOM     14  H   UNL     1       4.054   3.281  19.082  0.00  0.00    +0.000 HD
ENDROOT
BRANCH  10  15
ATOM     15  C   UNL     1       5.134   5.325  17.630  0.00  0.00    +0.000 C 
ATOM     16  C   UNL     1       6.378   4.714  18.281  0.00  0.00    +0.000 C 
ATOM     17  C   UNL     1       4.368   4.220  16.867  0.00  0.00    +0.000 C 
ATOM     18  C   UNL     1       5.498   6.412  16.619  0.00  0.00    +0.000 C 
ENDBRANCH  10  15
BRANCH  11  19
ATOM     19  C   UNL     1       2.299   3.142  20.151  0.00  0.00    +0.000 C 
ATOM     20  N   UNL     1       1.298   2.627  20.437  0.00  0.00    +0.000 NA
ENDBRANCH  11  19
TORSDOF 2
ENDMDL
MODEL 4
REMARK VINA RESULT:      -6.2      1.919      5.536
REMARK  Name = 
REMARK  7 active torsions:
REMARK  status: ('A' for Active; 'I' for Inactive)
REMARK    1  A    between atoms: C_1  and  C_2
REMARK    2  A    between atoms: C_4  and  C_5
REMARK    3  A    between atoms: N_10  and  C_11
REMARK    4  A    between atoms: C_11  and  C_12
REMARK    5  A    between atoms: C_11  and  C_13
REMARK    6  A    between atoms: C_11  and  C_14
REMARK    7  A    between atoms: N_15  and  C_16
REMARK                            x       y       z     vdW  Elec       q    Type
REMARK                         _______ _______ _______ _____ _____    ______ ____
ROOT
ATOM      1  C   UNL     1       5.477   3.916  15.248  0.00  0.00    +0.000 C 
ATOM      2  C   UNL     1       5.655   4.892  16.370  0.00  0.00    +0.000 A 
ATOM      3  C   UNL     1       6.675   5.836  16.367  0.00  0.00    +0.000 A 
ATOM      4  C   UNL     1       6.774   6.713  17.440  0.00  0.00    +0.000 A 
ATOM      5  C   UNL     1       7.851   7.756  17.472  0.00  0.00    +0.000 C 
ATOM      6  N   UNL     1       5.917   6.688  18.493  0.00  0.00    +0.000 NA
ATOM      7  C   UNL     1       4.924   5.770  18.502  0.00  0.00    +0.000 A 
ATOM      8  N   UNL     1       4.054   5.846  19.589  0.00  0.00    +0.000 N 
ATOM      9  C   UNL     1       3.026   5.012  19.953  0.00  0.00    +0.000 C 
ATOM     10  N   UNL     1       2.998   3.797  19.545  0.00  0.00    +0.000 NA
ATOM     11  N   UNL     1       2.102   5.601  20.781  0.00  0.00    +0.000 N 
ATOM     12  C   UNL     1       4.773   4.870  17.452  0.00  0.00    +0.000 A 
ATOM     13  H   UNL     1       4.332   6.602  20.197  0.00  0.00    +0.000 HD
ATOM     14  H   UNL     1       1.293   5.033  20.973  0.00  0.00    +0.000 HD
ENDROOT
BRANCH  10  15
ATOM     15  C   UNL     1       2.030   2.723  19.718  0.00  0.00    +0.000 C 
ATOM     16  C   UNL     1       1.755   2.513  21.210  0.00  0.00    +0.000 C 
ATOM     17  C   UNL     1       0.739   3.224  19.033  0.00  0.00    +0.000 C 
ATOM     18  C   UNL     1       2.441   1.423  19.028  0.00  0.00    +0.000 C 
ENDBRANCH  10  15
BRANCH  11  19
ATOM     19  C   UNL     1       1.785   7.001  20.613  0.00  0.00    +0.000 C 
ATOM     20  N   UNL     1       1.569   8.136  20.496  0.00  0.00    +0.000 NA
ENDBRANCH  11  19
TORSDOF 2
ENDMDL
MODEL 5
REMARK VINA RESULT:      -6.1      1.843      3.958
REMARK  Name = 
REMARK  7 active torsions:
REMARK  status: ('A' for Active; 'I' for Inactive)
REMARK    1  A    between atoms: C_1  and  C_2
REMARK    2  A    between atoms: C_4  and  C_5
REMARK    3  A    between atoms: N_10  and  C_11
REMARK    4  A    between atoms: C_11  and  C_12
REMARK    5  A    between atoms: C_11  and  C_13
REMARK    6  A    between atoms: C_11  and  C_14
REMARK    7  A    between atoms: N_15  and  C_16
REMARK                            x       y       z     vdW  Elec       q    Type
REMARK                         _______ _______ _______ _____ _____    ______ ____
ROOT
ATOM      1  C   UNL     1       0.384   8.801  22.057  0.00  0.00    +0.000 C 
ATOM      2  C   UNL     1       0.913   9.168  20.705  0.00  0.00    +0.000 A 
ATOM      3  C   UNL     1       0.785  10.454  20.191  0.00  0.00    +0.000 A 
ATOM      4  C   UNL     1       1.307  10.723  18.932  0.00  0.00    +0.000 A 
ATOM      5  C   UNL     1       1.204  12.099  18.345  0.00  0.00    +0.000 C 
ATOM      6  N   UNL     1       1.936   9.783  18.179  0.00  0.00    +0.000 NA
ATOM      7  C   UNL     1       2.059   8.530  18.673  0.00  0.00    +0.000 A 
ATOM      8  N   UNL     1       2.766   7.640  17.865  0.00  0.00    +0.000 N 
ATOM      9  C   UNL     1       2.976   6.292  18.015  0.00  0.00    +0.000 C 
ATOM     10  N   UNL     1       2.181   5.585  18.731  0.00  0.00    +0.000 NA
ATOM     11  N   UNL     1       4.063   5.820  17.321  0.00  0.00    +0.000 N 
ATOM     12  C   UNL     1       1.562   8.205  19.930  0.00  0.00    +0.000 A 
ATOM     13  H   UNL     1       3.070   8.109  17.024  0.00  0.00    +0.000 HD
ATOM     14  H   UNL     1       4.286   4.855  17.503  0.00  0.00    +0.000 HD
ENDROOT
BRANCH  10  15
ATOM     15  C   UNL     1       2.183   4.179  19.108  0.00  0.00    +0.000 C 
ATOM     16  C   UNL     1       3.500   3.836  19.812  0.00  0.00    +0.000 C 
ATOM     17  C   UNL     1       1.020   4.025  20.113  0.00  0.00    +0.000 C 
ATOM     18  C   UNL     1       1.905   3.240  17.936  0.00  0.00    +0.000 C 
ENDBRANCH  10  15
BRANCH  11  19
ATOM     19  C   UNL     1       5.233   6.655  17.178  0.00  0.00    +0.000 C 
ATOM     20  N   UNL     1       6.199   7.289  17.062  0.00  0.00    +0.000 NA
ENDBRANCH  11  19
TORSDOF 2
ENDMDL
MODEL 6
REMARK VINA RESULT:      -6.0      1.843      3.857
REMARK  Name = 
REMARK  7 active torsions:
REMARK  status: ('A' for Active; 'I' for Inactive)
REMARK    1  A    between atoms: C_1  and  C_2
REMARK    2  A    between atoms: C_4  and  C_5
REMARK    3  A    between atoms: N_10  and  C_11
REMARK    4  A    between atoms: C_11  and  C_12
REMARK    5  A    between atoms: C_11  and  C_13
REMARK    6  A    between atoms: C_11  and  C_14
REMARK    7  A    between atoms: N_15  and  C_16
REMARK                            x       y       z     vdW  Elec       q    Type
REMARK                         _______ _______ _______ _____ _____    ______ ____
ROOT
ATOM      1  C   UNL     1       0.357   8.727  22.010  0.00  0.00    +0.000 C 
ATOM      2  C   UNL     1       0.909   9.110  20.671  0.00  0.00    +0.000 A 
ATOM      3  C   UNL     1       0.783  10.399  20.166  0.00  0.00    +0.000 A 
ATOM      4  C   UNL     1       1.328  10.681  18.919  0.00  0.00    +0.000 A 
ATOM      5  C   UNL     1       1.227  12.061  18.341  0.00  0.00    +0.000 C 
ATOM      6  N   UNL     1       1.977   9.752  18.171  0.00  0.00    +0.000 NA
ATOM      7  C   UNL     1       2.099   8.496  18.657  0.00  0.00    +0.000 A 
ATOM      8  N   UNL     1       2.827   7.616  17.855  0.00  0.00    +0.000 N 
ATOM      9  C   UNL     1       3.043   6.269  17.999  0.00  0.00    +0.000 C 
ATOM     10  N   UNL     1       2.239   5.551  18.693  0.00  0.00    +0.000 NA
ATOM     11  N   UNL     1       4.146   5.809  17.322  0.00  0.00    +0.000 N 
ATOM     12  C   UNL     1       1.580   8.157  19.902  0.00  0.00    +0.000 A 
ATOM     13  H   UNL     1       3.144   8.095  17.024  0.00  0.00    +0.000 HD
ATOM     14  H   UNL     1       4.371   4.844  17.500  0.00  0.00    +0.000 HD
ENDROOT
BRANCH  10  15
ATOM     15  C   UNL     1       2.243   4.142  19.059  0.00  0.00    +0.000 C 
ATOM     16  C   UNL     1       1.050   3.842  19.972  0.00  0.00    +0.000 C 
ATOM     17  C   UNL     1       2.066   3.376  17.729  0.00  0.00    +0.000 C 
ATOM     18  C   UNL     1       3.562   3.684  19.681  0.00  0.00    +0.000 C 
ENDBRANCH  10  15
BRANCH  11  19
ATOM     19  C   UNL     1       5.313   6.653  17.208  0.00  0.00    +0.000 C 
ATOM     20  N   UNL     1       6.241   7.338  17.074  0.00  0.00    +0.000 NA
ENDBRANCH  11  19
TORSDOF 2
ENDMDL
MODEL 7
REMARK VINA RESULT:      -5.9      1.863      3.872
REMARK  Name = 
REMARK  7 active torsions:
REMARK  status: ('A' for Active; 'I' for Inactive)
REMARK    1  A    between atoms: C_1  and  C_2
REMARK    2  A    between atoms: C_4  and  C_5
REMARK    3  A    between atoms: N_10  and  C_11
REMARK    4  A    between atoms: C_11  and  C_12
REMARK    5  A    between atoms: C_11  and  C_13
REMARK    6  A    between atoms: C_11  and  C_14
REMARK    7  A    between atoms: N_15  and  C_16
REMARK                            x       y       z     vdW  Elec       q    Type
REMARK                         _______ _______ _______ _____ _____    ______ ____
ROOT
ATOM      1  C   UNL     1       0.394   8.681  21.875  0.00  0.00    +0.000 C 
ATOM      2  C   UNL     1       0.979   9.076  20.554  0.00  0.00    +0.000 A 
ATOM      3  C   UNL     1       0.877  10.373  20.064  0.00  0.00    +0.000 A 
ATOM      4  C   UNL     1       1.452  10.668  18.834  0.00  0.00    +0.000 A 
ATOM      5  C   UNL     1       1.377  12.057  18.274  0.00  0.00    +0.000 C 
ATOM      6  N   UNL     1       2.108   9.743  18.087  0.00  0.00    +0.000 NA
ATOM      7  C   UNL     1       2.207   8.479  18.558  0.00  0.00    +0.000 A 
ATOM      8  N   UNL     1       2.945   7.603  17.760  0.00  0.00    +0.000 N 
ATOM      9  C   UNL     1       3.144   6.252  17.890  0.00  0.00    +0.000 C 
ATOM     10  N   UNL     1       2.318   5.533  18.556  0.00  0.00    +0.000 NA
ATOM     11  N   UNL     1       4.258   5.791  17.231  0.00  0.00    +0.000 N 
ATOM     12  C   UNL     1       1.657   8.128  19.786  0.00  0.00    +0.000 A 
ATOM     13  H   UNL     1       3.284   8.090  16.944  0.00  0.00    +0.000 HD
ATOM     14  H   UNL     1       4.470   4.822  17.400  0.00  0.00    +0.000 HD
ENDROOT
BRANCH  10  15
ATOM     15  C   UNL     1       2.301   4.118  18.902  0.00  0.00    +0.000 C 
ATOM     16  C   UNL     1       2.253   3.276  17.624  0.00  0.00    +0.000 C 
ATOM     17  C   UNL     1       3.641   3.861  19.627  0.00  0.00    +0.000 C 
ATOM     18  C   UNL     1       1.177   3.748  19.868  0.00  0.00    +0.000 C 
ENDBRANCH  10  15
BRANCH  11  19
ATOM     19  C   UNL     1       5.435   6.624  17.155  0.00  0.00    +0.000 C 
ATOM     20  N   UNL     1       6.357   7.327  17.076  0.00  0.00    +0.000 NA
ENDBRANCH  11  19
TORSDOF 2
ENDMDL
MODEL 8
REMARK VINA RESULT:      -5.7      1.708      3.913
REMARK  Name = 
REMARK  7 active torsions:
REMARK  status: ('A' for Active; 'I' for Inactive)
REMARK    1  A    between atoms: C_1  and  C_2
REMARK    2  A    between atoms: C_4  and  C_5
REMARK    3  A    between atoms: N_10  and  C_11
REMARK    4  A    between atoms: C_11  and  C_12
REMARK    5  A    between atoms: C_11  and  C_13
REMARK    6  A    between atoms: C_11  and  C_14
REMARK    7  A    between atoms: N_15  and  C_16
REMARK                            x       y       z     vdW  Elec       q    Type
REMARK                         _______ _______ _______ _____ _____    ______ ____
ROOT
ATOM      1  C   UNL     1       0.911   7.690  21.602  0.00  0.00    +0.000 C 
ATOM      2  C   UNL     1       1.513   7.997  20.265  0.00  0.00    +0.000 A 
ATOM      3  C   UNL     1       1.387   9.248  19.672  0.00  0.00    +0.000 A 
ATOM      4  C   UNL     1       1.980   9.460  18.433  0.00  0.00    +0.000 A 
ATOM      5  C   UNL     1       1.880  10.798  17.764  0.00  0.00    +0.000 C 
ATOM      6  N   UNL     1       2.676   8.498  17.775  0.00  0.00    +0.000 NA
ATOM      7  C   UNL     1       2.798   7.278  18.346  0.00  0.00    +0.000 A 
ATOM      8  N   UNL     1       3.575   6.364  17.634  0.00  0.00    +0.000 N 
ATOM      9  C   UNL     1       3.807   5.033  17.874  0.00  0.00    +0.000 C 
ATOM     10  N   UNL     1       2.986   4.345  18.579  0.00  0.00    +0.000 NA
ATOM     11  N   UNL     1       4.946   4.553  17.274  0.00  0.00    +0.000 N 
ATOM     12  C   UNL     1       2.232   7.010  19.588  0.00  0.00    +0.000 A 
ATOM     13  H   UNL     1       3.918   6.794  16.788  0.00  0.00    +0.000 HD
ATOM     14  H   UNL     1       5.180   3.606  17.524  0.00  0.00    +0.000 HD
ENDROOT
BRANCH  10  15
ATOM     15  C   UNL     1       2.999   2.963  19.036  0.00  0.00    +0.000 C 
ATOM     16  C   UNL     1       4.250   2.711  19.882  0.00  0.00    +0.000 C 
ATOM     17  C   UNL     1       1.747   2.818  19.930  0.00  0.00    +0.000 C 
ATOM     18  C   UNL     1       2.869   1.951  17.898  0.00  0.00    +0.000 C 
ENDBRANCH  10  15
BRANCH  11  19
ATOM     19  C   UNL     1       6.102   5.410  17.155  0.00  0.00    +0.000 C 
ATOM     20  N   UNL     1       7.037   6.096  17.102  0.00  0.00    +0.000 NA
ENDBRANCH  11  19
TORSDOF 2
ENDMDL
MODEL 9
REMARK VINA RESULT:      -5.7      1.472      3.825
REMARK  Name = 
REMARK  7 active torsions:
REMARK  status: ('A' for Active; 'I' for Inactive)
REMARK    1  A    between atoms: C_1  and  C_2
REMARK    2  A    between atoms: C_4  and  C_5
REMARK    3  A    between atoms: N_10  and  C_11
REMARK    4  A    between atoms: C_11  and  C_12
REMARK    5  A    between atoms: C_11  and  C_13
REMARK    6  A    between atoms: C_11  and  C_14
REMARK    7  A    between atoms: N_15  and  C_16
REMARK                            x       y       z     vdW  Elec       q    Type
REMARK                         _______ _______ _______ _____ _____    ______ ____
ROOT
ATOM      1  C   UNL     1       0.549   8.260  21.850  0.00  0.00    +0.000 C 
ATOM      2  C   UNL     1       1.220   8.384  20.517  0.00  0.00    +0.000 A 
ATOM      3  C   UNL     1       1.226   9.578  19.807  0.00  0.00    +0.000 A 
ATOM      4  C   UNL     1       1.876   9.620  18.579  0.00  0.00    +0.000 A 
ATOM      5  C   UNL     1       1.919  10.891  17.785  0.00  0.00    +0.000 C 
ATOM      6  N   UNL     1       2.503   8.542  18.041  0.00  0.00    +0.000 NA
ATOM      7  C   UNL     1       2.497   7.377  18.727  0.00  0.00    +0.000 A 
ATOM      8  N   UNL     1       3.211   6.335  18.135  0.00  0.00    +0.000 N 
ATOM      9  C   UNL     1       3.314   5.017  18.506  0.00  0.00    +0.000 C 
ATOM     10  N   UNL     1       2.413   4.474  19.238  0.00  0.00    +0.000 NA
ATOM     11  N   UNL     1       4.425   4.386  18.001  0.00  0.00    +0.000 N 
ATOM     12  C   UNL     1       1.869   7.278  19.964  0.00  0.00    +0.000 A 
ATOM     13  H   UNL     1       3.620   6.651  17.268  0.00  0.00    +0.000 HD
ATOM     14  H   UNL     1       4.564   3.451  18.347  0.00  0.00    +0.000 HD
ENDROOT
BRANCH  10  15
ATOM     15  C   UNL     1       2.286   3.146  19.820  0.00  0.00    +0.000 C 
ATOM     16  C   UNL     1       1.286   3.184  20.980  0.00  0.00    +0.000 C 
ATOM     17  C   UNL     1       1.715   2.259  18.691  0.00  0.00    +0.000 C 
ATOM     18  C   UNL     1       3.625   2.543  20.244  0.00  0.00    +0.000 C 
ENDBRANCH  10  15
BRANCH  11  19
ATOM     19  C   UNL     1       5.657   5.124  17.850  0.00  0.00    +0.000 C 
ATOM     20  N   UNL     1       6.637   5.725  17.686  0.00  0.00    +0.000 NA
ENDBRANCH  11  19
TORSDOF 2
ENDMDL
