MODEL 1
REMARK VINA RESULT:      -6.9      0.000      0.000
REMARK  Name = 
REMARK  4 active torsions:
REMARK  status: ('A' for Active; 'I' for Inactive)
REMARK    1  A    between atoms: C_2  and  C_3
REMARK    2  A    between atoms: C_3  and  C_4
REMARK    3  A    between atoms: C_5  and  C_6
REMARK    4  A    between atoms: C_18  and  O_19
REMARK                            x       y       z     vdW  Elec       q    Type
REMARK                         _______ _______ _______ _____ _____    ______ ____
ROOT
ATOM      1  C   UNL     1       3.732   6.663  17.817  0.00  0.00    +0.000 A 
ATOM      2  C   UNL     1       3.649   5.826  18.972  0.00  0.00    +0.000 A 
ATOM      3  C   UNL     1       4.373   4.560  19.256  0.00  0.00    +0.000 C 
ATOM      4  N   UNL     1       2.818   6.324  19.904  0.00  0.00    +0.000 NA
ATOM      5  N   UNL     1       2.366   7.473  19.355  0.00  0.00    +0.000 N 
ATOM      6  C   UNL     1       1.527   8.293  20.095  0.00  0.00    +0.000 A 
ATOM      7  N   UNL     1       1.012   9.418  19.643  0.00  0.00    +0.000 NA
ATOM      8  C   UNL     1       0.307   9.927  20.710  0.00  0.00    +0.000 A 
ATOM      9  C   UNL     1      -0.445  11.103  20.796  0.00  0.00    +0.000 A 
ATOM     10  C   UNL     1      -1.050  11.428  22.016  0.00  0.00    +0.000 A 
ATOM     11  C   UNL     1      -0.908  10.592  23.127  0.00  0.00    +0.000 A 
ATOM     12  C   UNL     1      -0.172   9.401  23.056  0.00  0.00    +0.000 A 
ATOM     13  C   UNL     1       0.417   9.100  21.826  0.00  0.00    +0.000 A 
ATOM     14  N   UNL     1       1.182   8.046  21.396  0.00  0.00    +0.000 N 
ATOM     15  C   UNL     1       2.872   7.707  18.095  0.00  0.00    +0.000 A 
ATOM     16  H   UNL     1       1.489   7.244  21.931  0.00  0.00    +0.000 HD
ENDROOT
BRANCH  15  17
ATOM     17  O   UNL     1       2.586   8.798  17.380  0.00  0.00    +0.000 OA
ATOM     18  H   UNL     1       2.678   8.566  16.426  0.00  0.00    +0.000 HD
ENDBRANCH  15  17
BRANCH   1  19
ATOM     19  C   UNL     1       4.610   6.540  16.617  0.00  0.00    +0.000 C 
BRANCH  19  21
ATOM     20  C   UNL     1       7.041   5.950  16.820  0.00  0.00    +0.000 C 
ATOM     21  C   UNL     1       6.055   6.855  16.878  0.00  0.00    +0.000 C 
ENDBRANCH  19  21
ENDBRANCH   1  19
TORSDOF 3
ENDMDL
MODEL 2
REMARK VINA RESULT:      -6.7      1.405      1.921
REMARK  Name = 
REMARK  4 active torsions:
REMARK  status: ('A' for Active; 'I' for Inactive)
REMARK    1  A    between atoms: C_2  and  C_3
REMARK    2  A    between atoms: C_3  and  C_4
REMARK    3  A    between atoms: C_5  and  C_6
REMARK    4  A    between atoms: C_18  and  O_19
REMARK                            x       y       z     vdW  Elec       q    Type
REMARK                         _______ _______ _______ _____ _____    ______ ____
ROOT
ATOM      1  C   UNL     1       4.415   4.561  17.915  0.00  0.00    +0.000 A 
ATOM      2  C   UNL     1       4.044   3.982  19.167  0.00  0.00    +0.000 A 
ATOM      3  C   UNL     1       4.456   2.678  19.747  0.00  0.00    +0.000 C 
ATOM      4  N   UNL     1       3.243   4.789  19.885  0.00  0.00    +0.000 NA
ATOM      5  N   UNL     1       3.097   5.881  19.102  0.00  0.00    +0.000 N 
ATOM      6  C   UNL     1       2.376   6.966  19.579  0.00  0.00    +0.000 A 
ATOM      7  N   UNL     1       2.154   8.063  18.887  0.00  0.00    +0.000 NA
ATOM      8  C   UNL     1       1.465   8.883  19.752  0.00  0.00    +0.000 A 
ATOM      9  C   UNL     1       0.968  10.174  19.544  0.00  0.00    +0.000 A 
ATOM     10  C   UNL     1       0.323  10.825  20.603  0.00  0.00    +0.000 A 
ATOM     11  C   UNL     1       0.174  10.197  21.842  0.00  0.00    +0.000 A 
ATOM     12  C   UNL     1       0.651   8.897  22.064  0.00  0.00    +0.000 A 
ATOM     13  C   UNL     1       1.286   8.270  20.991  0.00  0.00    +0.000 A 
ATOM     14  N   UNL     1       1.856   7.031  20.844  0.00  0.00    +0.000 N 
ATOM     15  C   UNL     1       3.766   5.781  17.902  0.00  0.00    +0.000 A 
ATOM     16  H   UNL     1       1.935   6.298  21.538  0.00  0.00    +0.000 HD
ENDROOT
BRANCH  15  17
ATOM     17  O   UNL     1       3.786   6.754  16.988  0.00  0.00    +0.000 OA
ATOM     18  H   UNL     1       4.626   7.258  17.102  0.00  0.00    +0.000 HD
ENDBRANCH  15  17
BRANCH   1  19
ATOM     19  C   UNL     1       5.366   4.058  16.882  0.00  0.00    +0.000 C 
BRANCH  19  21
ATOM     20  C   UNL     1       7.587   4.689  17.865  0.00  0.00    +0.000 C 
ATOM     21  C   UNL     1       6.692   4.763  16.871  0.00  0.00    +0.000 C 
ENDBRANCH  19  21
ENDBRANCH   1  19
TORSDOF 3
ENDMDL
MODEL 3
REMARK VINA RESULT:      -6.7      1.576      6.459
REMARK  Name = 
REMARK  4 active torsions:
REMARK  status: ('A' for Active; 'I' for Inactive)
REMARK    1  A    between atoms: C_2  and  C_3
REMARK    2  A    between atoms: C_3  and  C_4
REMARK    3  A    between atoms: C_5  and  C_6
REMARK    4  A    between atoms: C_18  and  O_19
REMARK                            x       y       z     vdW  Elec       q    Type
REMARK                         _______ _______ _______ _____ _____    ______ ____
ROOT
ATOM      1  C   UNL     1       0.483  10.430  19.352  0.00  0.00    +0.000 A 
ATOM      2  C   UNL     1       0.425   9.793  20.629  0.00  0.00    +0.000 A 
ATOM      3  C   UNL     1      -0.349  10.193  21.832  0.00  0.00    +0.000 C 
ATOM      4  N   UNL     1       1.161   8.669  20.672  0.00  0.00    +0.000 NA
ATOM      5  N   UNL     1       1.692   8.581  19.433  0.00  0.00    +0.000 N 
ATOM      6  C   UNL     1       2.462   7.475  19.103  0.00  0.00    +0.000 A 
ATOM      7  N   UNL     1       3.045   7.307  17.934  0.00  0.00    +0.000 NA
ATOM      8  C   UNL     1       3.640   6.069  18.021  0.00  0.00    +0.000 A 
ATOM      9  C   UNL     1       4.402   5.383  17.069  0.00  0.00    +0.000 A 
ATOM     10  C   UNL     1       4.878   4.104  17.383  0.00  0.00    +0.000 A 
ATOM     11  C   UNL     1       4.601   3.525  18.624  0.00  0.00    +0.000 A 
ATOM     12  C   UNL     1       3.854   4.204  19.597  0.00  0.00    +0.000 A 
ATOM     13  C   UNL     1       3.395   5.478  19.259  0.00  0.00    +0.000 A 
ATOM     14  N   UNL     1       2.660   6.413  19.943  0.00  0.00    +0.000 N 
ATOM     15  C   UNL     1       1.330   9.626  18.612  0.00  0.00    +0.000 A 
ATOM     16  H   UNL     1       2.281   6.340  20.879  0.00  0.00    +0.000 HD
ENDROOT
BRANCH  15  17
ATOM     17  O   UNL     1       1.712   9.726  17.337  0.00  0.00    +0.000 OA
ATOM     18  H   UNL     1       2.582  10.190  17.318  0.00  0.00    +0.000 HD
ENDBRANCH  15  17
BRANCH   1  19
ATOM     19  C   UNL     1      -0.262  11.621  18.850  0.00  0.00    +0.000 C 
BRANCH  19  21
ATOM     20  C   UNL     1      -2.061  10.205  17.821  0.00  0.00    +0.000 C 
ATOM     21  C   UNL     1      -1.676  11.331  18.436  0.00  0.00    +0.000 C 
ENDBRANCH  19  21
ENDBRANCH   1  19
TORSDOF 3
ENDMDL
MODEL 4
REMARK VINA RESULT:      -6.6      1.923      3.251
REMARK  Name = 
REMARK  4 active torsions:
REMARK  status: ('A' for Active; 'I' for Inactive)
REMARK    1  A    between atoms: C_2  and  C_3
REMARK    2  A    between atoms: C_3  and  C_4
REMARK    3  A    between atoms: C_5  and  C_6
REMARK    4  A    between atoms: C_18  and  O_19
REMARK                            x       y       z     vdW  Elec       q    Type
REMARK                         _______ _______ _______ _____ _____    ______ ____
ROOT
ATOM      1  C   UNL     1       3.936   4.593  18.883  0.00  0.00    +0.000 A 
ATOM      2  C   UNL     1       4.126   5.386  17.710  0.00  0.00    +0.000 A 
ATOM      3  C   UNL     1       4.835   5.032  16.453  0.00  0.00    +0.000 C 
ATOM      4  N   UNL     1       3.529   6.587  17.804  0.00  0.00    +0.000 NA
ATOM      5  N   UNL     1       2.960   6.571  19.030  0.00  0.00    +0.000 N 
ATOM      6  C   UNL     1       2.184   7.649  19.431  0.00  0.00    +0.000 A 
ATOM      7  N   UNL     1       1.609   7.742  20.611  0.00  0.00    +0.000 NA
ATOM      8  C   UNL     1       0.902   8.922  20.558  0.00  0.00    +0.000 A 
ATOM      9  C   UNL     1       0.107   9.524  21.538  0.00  0.00    +0.000 A 
ATOM     10  C   UNL     1      -0.547  10.724  21.231  0.00  0.00    +0.000 A 
ATOM     11  C   UNL     1      -0.405  11.311  19.972  0.00  0.00    +0.000 A 
ATOM     12  C   UNL     1       0.401  10.731  18.981  0.00  0.00    +0.000 A 
ATOM     13  C   UNL     1       1.044   9.538  19.316  0.00  0.00    +0.000 A 
ATOM     14  N   UNL     1       1.893   8.714  18.622  0.00  0.00    +0.000 N 
ATOM     15  C   UNL     1       3.194   5.403  19.722  0.00  0.00    +0.000 A 
ATOM     16  H   UNL     1       2.223   8.823  17.672  0.00  0.00    +0.000 HD
ENDROOT
BRANCH  15  17
ATOM     17  O   UNL     1       2.700   5.157  20.937  0.00  0.00    +0.000 OA
ATOM     18  H   UNL     1       3.457   5.115  21.568  0.00  0.00    +0.000 HD
ENDBRANCH  15  17
BRANCH   1  19
ATOM     19  C   UNL     1       4.330   3.178  19.146  0.00  0.00    +0.000 C 
BRANCH  19  21
ATOM     20  C   UNL     1       2.473   2.127  17.825  0.00  0.00    +0.000 C 
ATOM     21  C   UNL     1       3.226   2.183  18.931  0.00  0.00    +0.000 C 
ENDBRANCH  19  21
ENDBRANCH   1  19
TORSDOF 3
ENDMDL
MODEL 5
REMARK VINA RESULT:      -6.6      1.435      1.766
REMARK  Name = 
REMARK  4 active torsions:
REMARK  status: ('A' for Active; 'I' for Inactive)
REMARK    1  A    between atoms: C_2  and  C_3
REMARK    2  A    between atoms: C_3  and  C_4
REMARK    3  A    between atoms: C_5  and  C_6
REMARK    4  A    between atoms: C_18  and  O_19
REMARK                            x       y       z     vdW  Elec       q    Type
REMARK                         _______ _______ _______ _____ _____    ______ ____
ROOT
ATOM      1  C   UNL     1       4.540   5.045  18.060  0.00  0.00    +0.000 A 
ATOM      2  C   UNL     1       4.055   4.312  19.186  0.00  0.00    +0.000 A 
ATOM      3  C   UNL     1       4.454   2.961  19.657  0.00  0.00    +0.000 C 
ATOM      4  N   UNL     1       3.146   5.006  19.893  0.00  0.00    +0.000 NA
ATOM      5  N   UNL     1       3.043   6.178  19.228  0.00  0.00    +0.000 N 
ATOM      6  C   UNL     1       2.228   7.178  19.739  0.00  0.00    +0.000 A 
ATOM      7  N   UNL     1       2.039   8.342  19.155  0.00  0.00    +0.000 NA
ATOM      8  C   UNL     1       1.224   9.034  20.022  0.00  0.00    +0.000 A 
ATOM      9  C   UNL     1       0.700  10.326  19.906  0.00  0.00    +0.000 A 
ATOM     10  C   UNL     1      -0.086  10.829  20.949  0.00  0.00    +0.000 A 
ATOM     11  C   UNL     1      -0.346  10.056  22.083  0.00  0.00    +0.000 A 
ATOM     12  C   UNL     1       0.157   8.753  22.210  0.00  0.00    +0.000 A 
ATOM     13  C   UNL     1       0.934   8.275  21.154  0.00  0.00    +0.000 A 
ATOM     14  N   UNL     1       1.568   7.078  20.934  0.00  0.00    +0.000 N 
ATOM     15  C   UNL     1       3.846   6.239  18.109  0.00  0.00    +0.000 A 
ATOM     16  H   UNL     1       1.599   6.272  21.543  0.00  0.00    +0.000 HD
ENDROOT
BRANCH  15  17
ATOM     17  O   UNL     1       3.928   7.314  17.322  0.00  0.00    +0.000 OA
ATOM     18  H   UNL     1       3.122   7.334  16.754  0.00  0.00    +0.000 HD
ENDBRANCH  15  17
BRANCH   1  19
ATOM     19  C   UNL     1       5.620   4.694  17.092  0.00  0.00    +0.000 C 
BRANCH  19  21
ATOM     20  C   UNL     1       5.927   4.069  14.681  0.00  0.00    +0.000 C 
ATOM     21  C   UNL     1       5.126   4.365  15.713  0.00  0.00    +0.000 C 
ENDBRANCH  19  21
ENDBRANCH   1  19
TORSDOF 3
ENDMDL
MODEL 6
REMARK VINA RESULT:      -6.5      1.689      6.284
REMARK  Name = 
REMARK  4 active torsions:
REMARK  status: ('A' for Active; 'I' for Inactive)
REMARK    1  A    between atoms: C_2  and  C_3
REMARK    2  A    between atoms: C_3  and  C_4
REMARK    3  A    between atoms: C_5  and  C_6
REMARK    4  A    between atoms: C_18  and  O_19
REMARK                            x       y       z     vdW  Elec       q    Type
REMARK                         _______ _______ _______ _____ _____    ______ ____
ROOT
ATOM      1  C   UNL     1       0.622  10.474  19.393  0.00  0.00    +0.000 A 
ATOM      2  C   UNL     1       0.538   9.873  20.685  0.00  0.00    +0.000 A 
ATOM      3  C   UNL     1      -0.190  10.352  21.888  0.00  0.00    +0.000 C 
ATOM      4  N   UNL     1       1.196   8.701  20.746  0.00  0.00    +0.000 NA
ATOM      5  N   UNL     1       1.702   8.549  19.502  0.00  0.00    +0.000 N 
ATOM      6  C   UNL     1       2.390   7.385  19.189  0.00  0.00    +0.000 A 
ATOM      7  N   UNL     1       2.943   7.151  18.017  0.00  0.00    +0.000 NA
ATOM      8  C   UNL     1       3.453   5.877  18.126  0.00  0.00    +0.000 A 
ATOM      9  C   UNL     1       4.152   5.118  17.181  0.00  0.00    +0.000 A 
ATOM     10  C   UNL     1       4.543   3.817  17.519  0.00  0.00    +0.000 A 
ATOM     11  C   UNL     1       4.245   3.287  18.777  0.00  0.00    +0.000 A 
ATOM     12  C   UNL     1       3.560   4.038  19.743  0.00  0.00    +0.000 A 
ATOM     13  C   UNL     1       3.185   5.333  19.381  0.00  0.00    +0.000 A 
ATOM     14  N   UNL     1       2.526   6.331  20.052  0.00  0.00    +0.000 N 
ATOM     15  C   UNL     1       1.401   9.598  18.661  0.00  0.00    +0.000 A 
ATOM     16  H   UNL     1       2.157   6.306  20.993  0.00  0.00    +0.000 HD
ENDROOT
BRANCH  15  17
ATOM     17  O   UNL     1       1.771   9.641  17.380  0.00  0.00    +0.000 OA
ATOM     18  H   UNL     1       1.207  10.309  16.925  0.00  0.00    +0.000 HD
ENDBRANCH  15  17
BRANCH   1  19
ATOM     19  C   UNL     1      -0.047  11.702  18.872  0.00  0.00    +0.000 C 
BRANCH  19  21
ATOM     20  C   UNL     1       1.943  13.121  18.296  0.00  0.00    +0.000 C 
ATOM     21  C   UNL     1       0.794  12.944  18.962  0.00  0.00    +0.000 C 
ENDBRANCH  19  21
ENDBRANCH   1  19
TORSDOF 3
ENDMDL
MODEL 7
REMARK VINA RESULT:      -6.4      4.630      5.930
REMARK  Name = 
REMARK  4 active torsions:
REMARK  status: ('A' for Active; 'I' for Inactive)
REMARK    1  A    between atoms: C_2  and  C_3
REMARK    2  A    between atoms: C_3  and  C_4
REMARK    3  A    between atoms: C_5  and  C_6
REMARK    4  A    between atoms: C_18  and  O_19
REMARK                            x       y       z     vdW  Elec       q    Type
REMARK                         _______ _______ _______ _____ _____    ______ ____
ROOT
ATOM      1  C   UNL     1       6.948   5.200  16.044  0.00  0.00    +0.000 A 
ATOM      2  C   UNL     1       6.962   6.254  17.008  0.00  0.00    +0.000 A 
ATOM      3  C   UNL     1       7.738   7.520  16.989  0.00  0.00    +0.000 C 
ATOM      4  N   UNL     1       6.111   6.026  18.024  0.00  0.00    +0.000 NA
ATOM      5  N   UNL     1       5.554   4.834  17.720  0.00  0.00    +0.000 N 
ATOM      6  C   UNL     1       4.555   4.324  18.538  0.00  0.00    +0.000 A 
ATOM      7  N   UNL     1       3.968   3.162  18.345  0.00  0.00    +0.000 NA
ATOM      8  C   UNL     1       3.016   3.088  19.336  0.00  0.00    +0.000 A 
ATOM      9  C   UNL     1       2.101   2.067  19.612  0.00  0.00    +0.000 A 
ATOM     10  C   UNL     1       1.198   2.240  20.668  0.00  0.00    +0.000 A 
ATOM     11  C   UNL     1       1.211   3.408  21.434  0.00  0.00    +0.000 A 
ATOM     12  C   UNL     1       2.131   4.436  21.183  0.00  0.00    +0.000 A 
ATOM     13  C   UNL     1       3.023   4.235  20.127  0.00  0.00    +0.000 A 
ATOM     14  N   UNL     1       4.038   5.000  19.610  0.00  0.00    +0.000 N 
ATOM     15  C   UNL     1       6.039   4.290  16.551  0.00  0.00    +0.000 A 
ATOM     16  H   UNL     1       4.340   5.916  19.914  0.00  0.00    +0.000 HD
ENDROOT
BRANCH  15  17
ATOM     17  O   UNL     1       5.607   3.134  16.043  0.00  0.00    +0.000 OA
ATOM     18  H   UNL     1       5.215   2.608  16.780  0.00  0.00    +0.000 HD
ENDBRANCH  15  17
BRANCH   1  19
ATOM     19  C   UNL     1       7.646   5.106  14.729  0.00  0.00    +0.000 C 
BRANCH  19  21
ATOM     20  C   UNL     1       6.643   3.810  12.828  0.00  0.00    +0.000 C 
ATOM     21  C   UNL     1       6.725   4.932  13.555  0.00  0.00    +0.000 C 
ENDBRANCH  19  21
ENDBRANCH   1  19
TORSDOF 3
ENDMDL
MODEL 8
REMARK VINA RESULT:      -6.3      1.475      6.471
REMARK  Name = 
REMARK  4 active torsions:
REMARK  status: ('A' for Active; 'I' for Inactive)
REMARK    1  A    between atoms: C_2  and  C_3
REMARK    2  A    between atoms: C_3  and  C_4
REMARK    3  A    between atoms: C_5  and  C_6
REMARK    4  A    between atoms: C_18  and  O_19
REMARK                            x       y       z     vdW  Elec       q    Type
REMARK                         _______ _______ _______ _____ _____    ______ ____
ROOT
ATOM      1  C   UNL     1       0.337  10.067  20.528  0.00  0.00    +0.000 A 
ATOM      2  C   UNL     1       0.391   9.292  21.727  0.00  0.00    +0.000 A 
ATOM      3  C   UNL     1      -0.248   9.565  23.040  0.00  0.00    +0.000 C 
ATOM      4  N   UNL     1       1.100   8.160  21.571  0.00  0.00    +0.000 NA
ATOM      5  N   UNL     1       1.502   8.204  20.281  0.00  0.00    +0.000 N 
ATOM      6  C   UNL     1       2.208   7.132  19.754  0.00  0.00    +0.000 A 
ATOM      7  N   UNL     1       2.666   7.088  18.521  0.00  0.00    +0.000 NA
ATOM      8  C   UNL     1       3.237   5.840  18.410  0.00  0.00    +0.000 A 
ATOM      9  C   UNL     1       3.882   5.255  17.315  0.00  0.00    +0.000 A 
ATOM     10  C   UNL     1       4.355   3.943  17.436  0.00  0.00    +0.000 A 
ATOM     11  C   UNL     1       4.190   3.232  18.627  0.00  0.00    +0.000 A 
ATOM     12  C   UNL     1       3.560   3.807  19.741  0.00  0.00    +0.000 A 
ATOM     13  C   UNL     1       3.102   5.118  19.594  0.00  0.00    +0.000 A 
ATOM     14  N   UNL     1       2.462   5.980  20.448  0.00  0.00    +0.000 N 
ATOM     15  C   UNL     1       1.085   9.340  19.622  0.00  0.00    +0.000 A 
ATOM     16  H   UNL     1       2.178   5.808  21.404  0.00  0.00    +0.000 HD
ENDROOT
BRANCH  15  17
ATOM     17  O   UNL     1       1.341   9.576  18.333  0.00  0.00    +0.000 OA
ATOM     18  H   UNL     1       0.752   8.995  17.797  0.00  0.00    +0.000 HD
ENDBRANCH  15  17
BRANCH   1  19
ATOM     19  C   UNL     1      -0.425  11.316  20.239  0.00  0.00    +0.000 C 
BRANCH  19  21
ATOM     20  C   UNL     1       1.215  13.157  20.711  0.00  0.00    +0.000 C 
ATOM     21  C   UNL     1       0.068  12.522  20.987  0.00  0.00    +0.000 C 
ENDBRANCH  19  21
ENDBRANCH   1  19
TORSDOF 3
ENDMDL
MODEL 9
REMARK VINA RESULT:      -6.3      1.387      6.686
REMARK  Name = 
REMARK  4 active torsions:
REMARK  status: ('A' for Active; 'I' for Inactive)
REMARK    1  A    between atoms: C_2  and  C_3
REMARK    2  A    between atoms: C_3  and  C_4
REMARK    3  A    between atoms: C_5  and  C_6
REMARK    4  A    between atoms: C_18  and  O_19
REMARK                            x       y       z     vdW  Elec       q    Type
REMARK                         _______ _______ _______ _____ _____    ______ ____
ROOT
ATOM      1  C   UNL     1       0.538   9.909  19.576  0.00  0.00    +0.000 A 
ATOM      2  C   UNL     1       0.614   8.940  20.623  0.00  0.00    +0.000 A 
ATOM      3  C   UNL     1      -0.169   8.872  21.884  0.00  0.00    +0.000 C 
ATOM      4  N   UNL     1       1.504   7.969  20.356  0.00  0.00    +0.000 NA
ATOM      5  N   UNL     1       2.001   8.309  19.146  0.00  0.00    +0.000 N 
ATOM      6  C   UNL     1       2.911   7.464  18.526  0.00  0.00    +0.000 A 
ATOM      7  N   UNL     1       3.472   7.715  17.362  0.00  0.00    +0.000 NA
ATOM      8  C   UNL     1       4.242   6.603  17.104  0.00  0.00    +0.000 A 
ATOM      9  C   UNL     1       5.062   6.329  16.004  0.00  0.00    +0.000 A 
ATOM     10  C   UNL     1       5.726   5.097  15.951  0.00  0.00    +0.000 A 
ATOM     11  C   UNL     1       5.576   4.161  16.978  0.00  0.00    +0.000 A 
ATOM     12  C   UNL     1       4.772   4.425  18.096  0.00  0.00    +0.000 A 
ATOM     13  C   UNL     1       4.124   5.662  18.124  0.00  0.00    +0.000 A 
ATOM     14  N   UNL     1       3.286   6.251  19.037  0.00  0.00    +0.000 N 
ATOM     15  C   UNL     1       1.466   9.476  18.648  0.00  0.00    +0.000 A 
ATOM     16  H   UNL     1       2.953   5.866  19.911  0.00  0.00    +0.000 HD
ENDROOT
BRANCH  15  17
ATOM     17  O   UNL     1       1.788   9.982  17.455  0.00  0.00    +0.000 OA
ATOM     18  H   UNL     1       0.952  10.230  16.996  0.00  0.00    +0.000 HD
ENDBRANCH  15  17
BRANCH   1  19
ATOM     19  C   UNL     1      -0.386  11.070  19.421  0.00  0.00    +0.000 C 
BRANCH  19  21
ATOM     20  C   UNL     1       0.197  12.665  21.270  0.00  0.00    +0.000 C 
ATOM     21  C   UNL     1       0.154  12.361  19.966  0.00  0.00    +0.000 C 
ENDBRANCH  19  21
ENDBRANCH   1  19
TORSDOF 3
ENDMDL
