MODEL 1
REMARK VINA RESULT:      -8.1      0.000      0.000
REMARK  Name = 
REMARK  4 active torsions:
REMARK  status: ('A' for Active; 'I' for Inactive)
REMARK    1  A    between atoms: C_2  and  C_5
REMARK    2  A    between atoms: N_8  and  C_9
REMARK    3  A    between atoms: C_9  and  C_10
REMARK    4  A    between atoms: C_10  and  C_11
REMARK                            x       y       z     vdW  Elec       q    Type
REMARK                         _______ _______ _______ _____ _____    ______ ____
ROOT
ATOM      1  C   UNL     1       2.797   6.474  18.726  0.00  0.00    +0.000 A 
ATOM      2  N   UNL     1       4.058   6.000  18.614  0.00  0.00    +0.000 NA
ATOM      3  C   UNL     1       4.350   4.817  19.187  0.00  0.00    +0.000 A 
ATOM      4  N   UNL     1       5.678   4.380  19.161  0.00  0.00    +0.000 N 
ATOM      5  C   UNL     1       3.390   4.080  19.905  0.00  0.00    +0.000 A 
ATOM      6  C   UNL     1       3.613   2.836  20.556  0.00  0.00    +0.000 A 
ATOM      7  C   UNL     1       2.598   2.222  21.292  0.00  0.00    +0.000 A 
ATOM      8  C   UNL     1       1.362   2.839  21.398  0.00  0.00    +0.000 A 
ATOM      9  C   UNL     1       1.142   4.058  20.755  0.00  0.00    +0.000 A 
ATOM     10  C   UNL     1       2.131   4.677  20.004  0.00  0.00    +0.000 A 
ATOM     11  N   UNL     1       1.831   5.842  19.426  0.00  0.00    +0.000 NA
ATOM     12  H   UNL     1       5.783   3.426  18.834  0.00  0.00    +0.000 HD
ENDROOT
BRANCH   1  14
ATOM     13  F   UNL     1       2.299   8.847  18.909  0.00  0.00    +0.000 F 
ATOM     14  C   UNL     1       2.431   7.793  18.047  0.00  0.00    +0.000 C 
ATOM     15  F   UNL     1       1.243   7.729  17.372  0.00  0.00    +0.000 F 
ATOM     16  F   UNL     1       3.355   8.197  17.123  0.00  0.00    +0.000 F 
ENDBRANCH   1  14
BRANCH   4  17
ATOM     17  C   UNL     1       6.716   5.296  18.679  0.00  0.00    +0.000 C 
BRANCH  17  18
ATOM     18  C   UNL     1       7.644   4.595  17.671  0.00  0.00    +0.000 C 
BRANCH  18  19
ATOM     19  C   UNL     1       7.042   4.545  16.306  0.00  0.00    +0.000 A 
ATOM     20  C   UNL     1       6.002   3.816  15.772  0.00  0.00    +0.000 A 
ATOM     21  N   UNL     1       5.871   4.062  14.430  0.00  0.00    +0.000 NA
ATOM     22  C   UNL     1       6.812   4.931  14.142  0.00  0.00    +0.000 A 
ATOM     23  N   UNL     1       7.543   5.262  15.246  0.00  0.00    +0.000 N 
ATOM     24  H   UNL     1       8.342   5.878  15.270  0.00  0.00    +0.000 HD
ENDBRANCH  18  19
ENDBRANCH  17  18
ENDBRANCH   4  17
TORSDOF 4
ENDMDL
MODEL 2
REMARK VINA RESULT:      -7.9      2.736      6.785
REMARK  Name = 
REMARK  4 active torsions:
REMARK  status: ('A' for Active; 'I' for Inactive)
REMARK    1  A    between atoms: C_2  and  C_5
REMARK    2  A    between atoms: N_8  and  C_9
REMARK    3  A    between atoms: C_9  and  C_10
REMARK    4  A    between atoms: C_10  and  C_11
REMARK                            x       y       z     vdW  Elec       q    Type
REMARK                         _______ _______ _______ _____ _____    ______ ____
ROOT
ATOM      1  C   UNL     1       6.862   5.198  17.330  0.00  0.00    +0.000 A 
ATOM      2  N   UNL     1       5.640   4.625  17.413  0.00  0.00    +0.000 NA
ATOM      3  C   UNL     1       5.098   4.107  16.295  0.00  0.00    +0.000 A 
ATOM      4  N   UNL     1       3.792   3.611  16.361  0.00  0.00    +0.000 N 
ATOM      5  C   UNL     1       5.758   4.161  15.053  0.00  0.00    +0.000 A 
ATOM      6  C   UNL     1       5.257   3.658  13.822  0.00  0.00    +0.000 A 
ATOM      7  C   UNL     1       5.976   3.821  12.637  0.00  0.00    +0.000 A 
ATOM      8  C   UNL     1       7.189   4.491  12.660  0.00  0.00    +0.000 A 
ATOM      9  C   UNL     1       7.682   4.981  13.870  0.00  0.00    +0.000 A 
ATOM     10  C   UNL     1       6.992   4.815  15.062  0.00  0.00    +0.000 A 
ATOM     11  N   UNL     1       7.541   5.317  16.170  0.00  0.00    +0.000 NA
ATOM     12  H   UNL     1       3.694   2.680  15.971  0.00  0.00    +0.000 HD
ENDROOT
BRANCH   1  14
ATOM     13  F   UNL     1       7.987   7.031  18.462  0.00  0.00    +0.000 F 
ATOM     14  C   UNL     1       7.515   5.754  18.594  0.00  0.00    +0.000 C 
ATOM     15  F   UNL     1       8.588   5.013  19.004  0.00  0.00    +0.000 F 
ATOM     16  F   UNL     1       6.666   5.792  19.666  0.00  0.00    +0.000 F 
ENDBRANCH   1  14
BRANCH   4  17
ATOM     17  C   UNL     1       3.010   3.837  17.580  0.00  0.00    +0.000 C 
BRANCH  17  18
ATOM     18  C   UNL     1       2.571   2.501  18.208  0.00  0.00    +0.000 C 
BRANCH  18  19
ATOM     19  C   UNL     1       2.397   2.615  19.686  0.00  0.00    +0.000 A 
ATOM     20  C   UNL     1       3.287   2.578  20.735  0.00  0.00    +0.000 A 
ATOM     21  N   UNL     1       2.631   2.649  21.937  0.00  0.00    +0.000 NA
ATOM     22  C   UNL     1       1.357   2.732  21.633  0.00  0.00    +0.000 A 
ATOM     23  N   UNL     1       1.163   2.724  20.282  0.00  0.00    +0.000 N 
ATOM     24  H   UNL     1       0.272   2.739  19.806  0.00  0.00    +0.000 HD
ENDBRANCH  18  19
ENDBRANCH  17  18
ENDBRANCH   4  17
TORSDOF 4
ENDMDL
MODEL 3
REMARK VINA RESULT:      -7.8      1.370      2.117
REMARK  Name = 
REMARK  4 active torsions:
REMARK  status: ('A' for Active; 'I' for Inactive)
REMARK    1  A    between atoms: C_2  and  C_5
REMARK    2  A    between atoms: N_8  and  C_9
REMARK    3  A    between atoms: C_9  and  C_10
REMARK    4  A    between atoms: C_10  and  C_11
REMARK                            x       y       z     vdW  Elec       q    Type
REMARK                         _______ _______ _______ _____ _____    ______ ____
ROOT
ATOM      1  C   UNL     1       2.636   6.621  18.592  0.00  0.00    +0.000 A 
ATOM      2  N   UNL     1       3.318   5.896  17.676  0.00  0.00    +0.000 NA
ATOM      3  C   UNL     1       3.562   4.599  17.940  0.00  0.00    +0.000 A 
ATOM      4  N   UNL     1       4.357   3.879  17.043  0.00  0.00    +0.000 N 
ATOM      5  C   UNL     1       3.145   3.991  19.139  0.00  0.00    +0.000 A 
ATOM      6  C   UNL     1       3.373   2.638  19.510  0.00  0.00    +0.000 A 
ATOM      7  C   UNL     1       2.964   2.158  20.755  0.00  0.00    +0.000 A 
ATOM      8  C   UNL     1       2.337   3.015  21.645  0.00  0.00    +0.000 A 
ATOM      9  C   UNL     1       2.109   4.342  21.279  0.00  0.00    +0.000 A 
ATOM     10  C   UNL     1       2.492   4.835  20.040  0.00  0.00    +0.000 A 
ATOM     11  N   UNL     1       2.233   6.118  19.778  0.00  0.00    +0.000 NA
ATOM     12  H   UNL     1       3.948   2.996  16.759  0.00  0.00    +0.000 HD
ENDROOT
BRANCH   1  14
ATOM     13  F   UNL     1       1.886   8.793  19.385  0.00  0.00    +0.000 F 
ATOM     14  C   UNL     1       2.310   8.084  18.294  0.00  0.00    +0.000 C 
ATOM     15  F   UNL     1       1.317   8.225  17.364  0.00  0.00    +0.000 F 
ATOM     16  F   UNL     1       3.376   8.783  17.801  0.00  0.00    +0.000 F 
ENDBRANCH   1  14
BRANCH   4  17
ATOM     17  C   UNL     1       5.033   4.601  15.960  0.00  0.00    +0.000 C 
BRANCH  17  18
ATOM     18  C   UNL     1       6.561   4.445  16.066  0.00  0.00    +0.000 C 
BRANCH  18  19
ATOM     19  C   UNL     1       7.152   5.425  17.025  0.00  0.00    +0.000 A 
ATOM     20  C   UNL     1       7.532   5.323  18.345  0.00  0.00    +0.000 A 
ATOM     21  N   UNL     1       7.955   6.535  18.826  0.00  0.00    +0.000 NA
ATOM     22  C   UNL     1       7.841   7.369  17.819  0.00  0.00    +0.000 A 
ATOM     23  N   UNL     1       7.367   6.743  16.703  0.00  0.00    +0.000 N 
ATOM     24  H   UNL     1       7.159   7.180  15.816  0.00  0.00    +0.000 HD
ENDBRANCH  18  19
ENDBRANCH  17  18
ENDBRANCH   4  17
TORSDOF 4
ENDMDL
MODEL 4
REMARK VINA RESULT:      -7.7      3.654      7.136
REMARK  Name = 
REMARK  4 active torsions:
REMARK  status: ('A' for Active; 'I' for Inactive)
REMARK    1  A    between atoms: C_2  and  C_5
REMARK    2  A    between atoms: N_8  and  C_9
REMARK    3  A    between atoms: C_9  and  C_10
REMARK    4  A    between atoms: C_10  and  C_11
REMARK                            x       y       z     vdW  Elec       q    Type
REMARK                         _______ _______ _______ _____ _____    ______ ____
ROOT
ATOM      1  C   UNL     1       2.104   3.948  18.780  0.00  0.00    +0.000 A 
ATOM      2  N   UNL     1       1.943   5.255  19.084  0.00  0.00    +0.000 NA
ATOM      3  C   UNL     1       2.719   6.159  18.458  0.00  0.00    +0.000 A 
ATOM      4  N   UNL     1       2.624   7.498  18.851  0.00  0.00    +0.000 N 
ATOM      5  C   UNL     1       3.694   5.779  17.517  0.00  0.00    +0.000 A 
ATOM      6  C   UNL     1       4.568   6.659  16.822  0.00  0.00    +0.000 A 
ATOM      7  C   UNL     1       5.540   6.162  15.952  0.00  0.00    +0.000 A 
ATOM      8  C   UNL     1       5.662   4.794  15.773  0.00  0.00    +0.000 A 
ATOM      9  C   UNL     1       4.801   3.930  16.452  0.00  0.00    +0.000 A 
ATOM     10  C   UNL     1       3.817   4.403  17.307  0.00  0.00    +0.000 A 
ATOM     11  N   UNL     1       3.040   3.503  17.914  0.00  0.00    +0.000 NA
ATOM     12  H   UNL     1       2.502   8.138  18.074  0.00  0.00    +0.000 HD
ENDROOT
BRANCH   1  14
ATOM     13  F   UNL     1       0.204   2.438  18.641  0.00  0.00    +0.000 F 
ATOM     14  C   UNL     1       1.205   2.907  19.446  0.00  0.00    +0.000 C 
ATOM     15  F   UNL     1       0.576   3.389  20.561  0.00  0.00    +0.000 F 
ATOM     16  F   UNL     1       1.885   1.796  19.861  0.00  0.00    +0.000 F 
ENDBRANCH   1  14
BRANCH   4  17
ATOM     17  C   UNL     1       1.828   7.833  20.035  0.00  0.00    +0.000 C 
BRANCH  17  18
ATOM     18  C   UNL     1       1.097   9.174  19.845  0.00  0.00    +0.000 C 
BRANCH  18  19
ATOM     19  C   UNL     1       0.501   9.665  21.123  0.00  0.00    +0.000 A 
ATOM     20  C   UNL     1       0.184  10.925  21.580  0.00  0.00    +0.000 A 
ATOM     21  N   UNL     1      -0.276  10.876  22.870  0.00  0.00    +0.000 NA
ATOM     22  C   UNL     1      -0.245   9.606  23.203  0.00  0.00    +0.000 A 
ATOM     23  N   UNL     1       0.210   8.831  22.176  0.00  0.00    +0.000 N 
ATOM     24  H   UNL     1       0.359   7.833  22.202  0.00  0.00    +0.000 HD
ENDBRANCH  18  19
ENDBRANCH  17  18
ENDBRANCH   4  17
TORSDOF 4
ENDMDL
MODEL 5
REMARK VINA RESULT:      -7.7      3.859      7.247
REMARK  Name = 
REMARK  4 active torsions:
REMARK  status: ('A' for Active; 'I' for Inactive)
REMARK    1  A    between atoms: C_2  and  C_5
REMARK    2  A    between atoms: N_8  and  C_9
REMARK    3  A    between atoms: C_9  and  C_10
REMARK    4  A    between atoms: C_10  and  C_11
REMARK                            x       y       z     vdW  Elec       q    Type
REMARK                         _______ _______ _______ _____ _____    ______ ____
ROOT
ATOM      1  C   UNL     1       2.580   3.945  19.490  0.00  0.00    +0.000 A 
ATOM      2  N   UNL     1       2.220   5.238  19.653  0.00  0.00    +0.000 NA
ATOM      3  C   UNL     1       2.741   6.158  18.819  0.00  0.00    +0.000 A 
ATOM      4  N   UNL     1       2.451   7.505  19.056  0.00  0.00    +0.000 N 
ATOM      5  C   UNL     1       3.652   5.811  17.804  0.00  0.00    +0.000 A 
ATOM      6  C   UNL     1       4.264   6.714  16.891  0.00  0.00    +0.000 A 
ATOM      7  C   UNL     1       5.202   6.264  15.961  0.00  0.00    +0.000 A 
ATOM      8  C   UNL     1       5.548   4.922  15.933  0.00  0.00    +0.000 A 
ATOM      9  C   UNL     1       4.944   4.036  16.826  0.00  0.00    +0.000 A 
ATOM     10  C   UNL     1       3.997   4.459  17.747  0.00  0.00    +0.000 A 
ATOM     11  N   UNL     1       3.473   3.541  18.562  0.00  0.00    +0.000 NA
ATOM     12  H   UNL     1       2.126   7.999  18.232  0.00  0.00    +0.000 HD
ENDROOT
BRANCH   1  14
ATOM     13  F   UNL     1       1.631   1.722  19.749  0.00  0.00    +0.000 F 
ATOM     14  C   UNL     1       1.968   2.879  20.397  0.00  0.00    +0.000 C 
ATOM     15  F   UNL     1       0.819   3.299  21.006  0.00  0.00    +0.000 F 
ATOM     16  F   UNL     1       2.801   2.494  21.411  0.00  0.00    +0.000 F 
ENDBRANCH   1  14
BRANCH   4  17
ATOM     17  C   UNL     1       1.752   7.872  20.291  0.00  0.00    +0.000 C 
BRANCH  17  18
ATOM     18  C   UNL     1       1.077   9.249  20.152  0.00  0.00    +0.000 C 
BRANCH  18  19
ATOM     19  C   UNL     1       0.485   9.707  21.444  0.00  0.00    +0.000 A 
ATOM     20  C   UNL     1       0.728   9.362  22.755  0.00  0.00    +0.000 A 
ATOM     21  N   UNL     1      -0.137  10.007  23.600  0.00  0.00    +0.000 NA
ATOM     22  C   UNL     1      -0.900  10.741  22.822  0.00  0.00    +0.000 A 
ATOM     23  N   UNL     1      -0.557  10.600  21.509  0.00  0.00    +0.000 N 
ATOM     24  H   UNL     1      -1.021  11.031  20.722  0.00  0.00    +0.000 HD
ENDBRANCH  18  19
ENDBRANCH  17  18
ENDBRANCH   4  17
TORSDOF 4
ENDMDL
MODEL 6
REMARK VINA RESULT:      -7.7      0.574      1.011
REMARK  Name = 
REMARK  4 active torsions:
REMARK  status: ('A' for Active; 'I' for Inactive)
REMARK    1  A    between atoms: C_2  and  C_5
REMARK    2  A    between atoms: N_8  and  C_9
REMARK    3  A    between atoms: C_9  and  C_10
REMARK    4  A    between atoms: C_10  and  C_11
REMARK                            x       y       z     vdW  Elec       q    Type
REMARK                         _______ _______ _______ _____ _____    ______ ____
ROOT
ATOM      1  C   UNL     1       2.945   6.447  18.640  0.00  0.00    +0.000 A 
ATOM      2  N   UNL     1       4.209   5.966  18.633  0.00  0.00    +0.000 NA
ATOM      3  C   UNL     1       4.452   4.797  19.254  0.00  0.00    +0.000 A 
ATOM      4  N   UNL     1       5.776   4.356  19.337  0.00  0.00    +0.000 N 
ATOM      5  C   UNL     1       3.438   4.080  19.916  0.00  0.00    +0.000 A 
ATOM      6  C   UNL     1       3.606   2.851  20.610  0.00  0.00    +0.000 A 
ATOM      7  C   UNL     1       2.536   2.258  21.283  0.00  0.00    +0.000 A 
ATOM      8  C   UNL     1       1.299   2.880  21.283  0.00  0.00    +0.000 A 
ATOM      9  C   UNL     1       1.133   4.085  20.597  0.00  0.00    +0.000 A 
ATOM     10  C   UNL     1       2.178   4.682  19.907  0.00  0.00    +0.000 A 
ATOM     11  N   UNL     1       1.927   5.834  19.281  0.00  0.00    +0.000 NA
ATOM     12  H   UNL     1       5.900   3.394  19.041  0.00  0.00    +0.000 HD
ENDROOT
BRANCH   1  14
ATOM     13  F   UNL     1       3.489   8.022  16.870  0.00  0.00    +0.000 F 
ATOM     14  C   UNL     1       2.636   7.751  17.905  0.00  0.00    +0.000 C 
ATOM     15  F   UNL     1       2.700   8.846  18.722  0.00  0.00    +0.000 F 
ATOM     16  F   UNL     1       1.384   7.775  17.357  0.00  0.00    +0.000 F 
ENDBRANCH   1  14
BRANCH   4  17
ATOM     17  C   UNL     1       6.851   5.258  18.912  0.00  0.00    +0.000 C 
BRANCH  17  18
ATOM     18  C   UNL     1       7.574   4.705  17.670  0.00  0.00    +0.000 C 
BRANCH  18  19
ATOM     19  C   UNL     1       6.710   4.771  16.453  0.00  0.00    +0.000 A 
ATOM     20  C   UNL     1       6.371   3.837  15.499  0.00  0.00    +0.000 A 
ATOM     21  N   UNL     1       5.601   4.401  14.515  0.00  0.00    +0.000 NA
ATOM     22  C   UNL     1       5.465   5.661  14.859  0.00  0.00    +0.000 A 
ATOM     23  N   UNL     1       6.111   5.933  16.029  0.00  0.00    +0.000 N 
ATOM     24  H   UNL     1       6.183   6.836  16.475  0.00  0.00    +0.000 HD
ENDBRANCH  18  19
ENDBRANCH  17  18
ENDBRANCH   4  17
TORSDOF 4
ENDMDL
MODEL 7
REMARK VINA RESULT:      -7.7      3.247      5.800
REMARK  Name = 
REMARK  4 active torsions:
REMARK  status: ('A' for Active; 'I' for Inactive)
REMARK    1  A    between atoms: C_2  and  C_5
REMARK    2  A    between atoms: N_8  and  C_9
REMARK    3  A    between atoms: C_9  and  C_10
REMARK    4  A    between atoms: C_10  and  C_11
REMARK                            x       y       z     vdW  Elec       q    Type
REMARK                         _______ _______ _______ _____ _____    ______ ____
ROOT
ATOM      1  C   UNL     1       4.550   4.698  16.705  0.00  0.00    +0.000 A 
ATOM      2  N   UNL     1       4.038   5.837  17.223  0.00  0.00    +0.000 NA
ATOM      3  C   UNL     1       3.054   5.739  18.136  0.00  0.00    +0.000 A 
ATOM      4  N   UNL     1       2.454   6.917  18.591  0.00  0.00    +0.000 N 
ATOM      5  C   UNL     1       2.539   4.495  18.547  0.00  0.00    +0.000 A 
ATOM      6  C   UNL     1       1.492   4.297  19.488  0.00  0.00    +0.000 A 
ATOM      7  C   UNL     1       1.022   3.014  19.775  0.00  0.00    +0.000 A 
ATOM      8  C   UNL     1       1.575   1.922  19.126  0.00  0.00    +0.000 A 
ATOM      9  C   UNL     1       2.605   2.117  18.205  0.00  0.00    +0.000 A 
ATOM     10  C   UNL     1       3.100   3.381  17.918  0.00  0.00    +0.000 A 
ATOM     11  N   UNL     1       4.086   3.470  17.023  0.00  0.00    +0.000 NA
ATOM     12  H   UNL     1       2.399   6.978  19.602  0.00  0.00    +0.000 HD
ENDROOT
BRANCH   1  14
ATOM     13  F   UNL     1       6.940   4.703  16.264  0.00  0.00    +0.000 F 
ATOM     14  C   UNL     1       5.697   4.783  15.699  0.00  0.00    +0.000 C 
ATOM     15  F   UNL     1       5.696   5.955  14.994  0.00  0.00    +0.000 F 
ATOM     16  F   UNL     1       5.663   3.790  14.760  0.00  0.00    +0.000 F 
ENDBRANCH   1  14
BRANCH   4  17
ATOM     17  C   UNL     1       2.791   8.183  17.933  0.00  0.00    +0.000 C 
BRANCH  17  18
ATOM     18  C   UNL     1       1.528   9.028  17.685  0.00  0.00    +0.000 C 
BRANCH  18  19
ATOM     19  C   UNL     1       1.633  10.378  18.314  0.00  0.00    +0.000 A 
ATOM     20  C   UNL     1       1.031  10.942  19.417  0.00  0.00    +0.000 A 
ATOM     21  N   UNL     1       1.392  12.257  19.552  0.00  0.00    +0.000 NA
ATOM     22  C   UNL     1       2.206  12.499  18.550  0.00  0.00    +0.000 A 
ATOM     23  N   UNL     1       2.391  11.391  17.776  0.00  0.00    +0.000 N 
ATOM     24  H   UNL     1       2.940  11.338  16.931  0.00  0.00    +0.000 HD
ENDBRANCH  18  19
ENDBRANCH  17  18
ENDBRANCH   4  17
TORSDOF 4
ENDMDL
MODEL 8
REMARK VINA RESULT:      -7.6      3.415      6.063
REMARK  Name = 
REMARK  4 active torsions:
REMARK  status: ('A' for Active; 'I' for Inactive)
REMARK    1  A    between atoms: C_2  and  C_5
REMARK    2  A    between atoms: N_8  and  C_9
REMARK    3  A    between atoms: C_9  and  C_10
REMARK    4  A    between atoms: C_10  and  C_11
REMARK                            x       y       z     vdW  Elec       q    Type
REMARK                         _______ _______ _______ _____ _____    ______ ____
ROOT
ATOM      1  C   UNL     1       5.493   5.871  17.564  0.00  0.00    +0.000 A 
ATOM      2  N   UNL     1       4.510   6.776  17.769  0.00  0.00    +0.000 NA
ATOM      3  C   UNL     1       3.266   6.325  18.017  0.00  0.00    +0.000 A 
ATOM      4  N   UNL     1       2.232   7.260  18.123  0.00  0.00    +0.000 N 
ATOM      5  C   UNL     1       2.966   4.950  18.052  0.00  0.00    +0.000 A 
ATOM      6  C   UNL     1       1.683   4.384  18.289  0.00  0.00    +0.000 A 
ATOM      7  C   UNL     1       1.491   3.002  18.241  0.00  0.00    +0.000 A 
ATOM      8  C   UNL     1       2.562   2.173  17.950  0.00  0.00    +0.000 A 
ATOM      9  C   UNL     1       3.822   2.729  17.722  0.00  0.00    +0.000 A 
ATOM     10  C   UNL     1       4.039   4.098  17.782  0.00  0.00    +0.000 A 
ATOM     11  N   UNL     1       5.277   4.539  17.550  0.00  0.00    +0.000 NA
ATOM     12  H   UNL     1       1.661   7.138  18.952  0.00  0.00    +0.000 HD
ENDROOT
BRANCH   1  14
ATOM     13  F   UNL     1       7.471   5.918  16.152  0.00  0.00    +0.000 F 
ATOM     14  C   UNL     1       6.921   6.360  17.324  0.00  0.00    +0.000 C 
ATOM     15  F   UNL     1       7.788   5.961  18.303  0.00  0.00    +0.000 F 
ATOM     16  F   UNL     1       7.022   7.723  17.278  0.00  0.00    +0.000 F 
ENDBRANCH   1  14
BRANCH   4  17
ATOM     17  C   UNL     1       2.506   8.659  17.784  0.00  0.00    +0.000 C 
BRANCH  17  18
ATOM     18  C   UNL     1       1.264   9.537  18.024  0.00  0.00    +0.000 C 
BRANCH  18  19
ATOM     19  C   UNL     1       1.637  10.931  18.406  0.00  0.00    +0.000 A 
ATOM     20  C   UNL     1       1.291  11.729  19.473  0.00  0.00    +0.000 A 
ATOM     21  N   UNL     1       1.834  12.981  19.344  0.00  0.00    +0.000 NA
ATOM     22  C   UNL     1       2.506  12.954  18.216  0.00  0.00    +0.000 A 
ATOM     23  N   UNL     1       2.425  11.732  17.615  0.00  0.00    +0.000 N 
ATOM     24  H   UNL     1       2.825  11.478  16.723  0.00  0.00    +0.000 HD
ENDBRANCH  18  19
ENDBRANCH  17  18
ENDBRANCH   4  17
TORSDOF 4
ENDMDL
MODEL 9
REMARK VINA RESULT:      -7.6      2.853      4.448
REMARK  Name = 
REMARK  4 active torsions:
REMARK  status: ('A' for Active; 'I' for Inactive)
REMARK    1  A    between atoms: C_2  and  C_5
REMARK    2  A    between atoms: N_8  and  C_9
REMARK    3  A    between atoms: C_9  and  C_10
REMARK    4  A    between atoms: C_10  and  C_11
REMARK                            x       y       z     vdW  Elec       q    Type
REMARK                         _______ _______ _______ _____ _____    ______ ____
ROOT
ATOM      1  C   UNL     1       2.943   4.314  19.890  0.00  0.00    +0.000 A 
ATOM      2  N   UNL     1       3.645   4.365  18.735  0.00  0.00    +0.000 NA
ATOM      3  C   UNL     1       3.675   5.526  18.055  0.00  0.00    +0.000 A 
ATOM      4  N   UNL     1       4.312   5.547  16.810  0.00  0.00    +0.000 N 
ATOM      5  C   UNL     1       2.988   6.670  18.503  0.00  0.00    +0.000 A 
ATOM      6  C   UNL     1       2.949   7.928  17.843  0.00  0.00    +0.000 A 
ATOM      7  C   UNL     1       2.183   8.979  18.351  0.00  0.00    +0.000 A 
ATOM      8  C   UNL     1       1.443   8.788  19.507  0.00  0.00    +0.000 A 
ATOM      9  C   UNL     1       1.485   7.554  20.157  0.00  0.00    +0.000 A 
ATOM     10  C   UNL     1       2.254   6.502  19.679  0.00  0.00    +0.000 A 
ATOM     11  N   UNL     1       2.232   5.358  20.366  0.00  0.00    +0.000 NA
ATOM     12  H   UNL     1       4.975   6.307  16.709  0.00  0.00    +0.000 HD
ENDROOT
BRANCH   1  14
ATOM     13  F   UNL     1       2.599   3.189  22.017  0.00  0.00    +0.000 F 
ATOM     14  C   UNL     1       2.931   3.019  20.701  0.00  0.00    +0.000 C 
ATOM     15  F   UNL     1       4.146   2.392  20.714  0.00  0.00    +0.000 F 
ATOM     16  F   UNL     1       2.045   2.094  20.223  0.00  0.00    +0.000 F 
ENDBRANCH   1  14
BRANCH   4  17
ATOM     17  C   UNL     1       4.757   4.280  16.221  0.00  0.00    +0.000 C 
BRANCH  17  18
ATOM     18  C   UNL     1       6.294   4.190  16.208  0.00  0.00    +0.000 C 
BRANCH  18  19
ATOM     19  C   UNL     1       6.906   5.015  17.290  0.00  0.00    +0.000 A 
ATOM     20  C   UNL     1       7.411   6.296  17.313  0.00  0.00    +0.000 A 
ATOM     21  N   UNL     1       7.945   6.590  18.541  0.00  0.00    +0.000 NA
ATOM     22  C   UNL     1       7.768   5.509  19.265  0.00  0.00    +0.000 A 
ATOM     23  N   UNL     1       7.135   4.530  18.556  0.00  0.00    +0.000 N 
ATOM     24  H   UNL     1       6.923   3.598  18.882  0.00  0.00    +0.000 HD
ENDBRANCH  18  19
ENDBRANCH  17  18
ENDBRANCH   4  17
TORSDOF 4
ENDMDL
