MODEL 1
REMARK VINA RESULT:      -7.1      0.000      0.000
REMARK  Name = 
REMARK  11 active torsions:
REMARK  status: ('A' for Active; 'I' for Inactive)
REMARK    1  A    between atoms: C_2  and  C_3
REMARK    2  A    between atoms: C_2  and  O_11
REMARK    3  A    between atoms: C_3  and  C_4
REMARK    4  A    between atoms: C_4  and  C_5
REMARK    5  A    between atoms: O_11  and  C_12
REMARK    6  A    between atoms: C_12  and  C_13
REMARK    7  A    between atoms: C_13  and  O_14
REMARK    8  A    between atoms: O_14  and  C_15
REMARK    9  A    between atoms: C_15  and  C_17
REMARK   10  A    between atoms: C_17  and  C_18
REMARK   11  A    between atoms: C_18  and  C_19
REMARK                            x       y       z     vdW  Elec       q    Type
REMARK                         _______ _______ _______ _____ _____    ______ ____
ROOT
ATOM      1  C   UNL     1       7.088   4.476  17.598  0.00  0.00    +0.000 C 
ENDROOT
BRANCH   1   2
ATOM      2  O   UNL     1       5.756   4.312  18.124  0.00  0.00    +0.000 OA
BRANCH   2   4
ATOM      3  O   UNL     1       4.430   4.230  16.258  0.00  0.00    +0.000 OA
ATOM      4  C   UNL     1       4.751   4.752  17.317  0.00  0.00    +0.000 C 
BRANCH   4   5
ATOM      5  C   UNL     1       4.111   5.986  17.900  0.00  0.00    +0.000 C 
BRANCH   5   6
ATOM      6  C   UNL     1       2.594   5.824  17.941  0.00  0.00    +0.000 C 
BRANCH   6   7
ATOM      7  C   UNL     1       2.152   4.822  18.978  0.00  0.00    +0.000 A 
ATOM      8  C   UNL     1       1.351   3.731  18.615  0.00  0.00    +0.000 A 
ATOM      9  C   UNL     1       0.929   2.811  19.576  0.00  0.00    +0.000 A 
ATOM     10  C   UNL     1       1.301   2.974  20.909  0.00  0.00    +0.000 A 
ATOM     11  C   UNL     1       2.099   4.054  21.281  0.00  0.00    +0.000 A 
ATOM     12  C   UNL     1       2.523   4.975  20.321  0.00  0.00    +0.000 A 
ENDBRANCH   6   7
ENDBRANCH   5   6
ENDBRANCH   4   5
ENDBRANCH   2   4
ENDBRANCH   1   2
BRANCH   1  13
ATOM     13  C   UNL     1       7.969   5.273  18.564  0.00  0.00    +0.000 C 
BRANCH  13  14
ATOM     14  O   UNL     1       7.421   6.586  18.795  0.00  0.00    +0.000 OA
BRANCH  14  15
ATOM     15  C   UNL     1       7.847   7.559  17.944  0.00  0.00    +0.000 C 
ATOM     16  O   UNL     1       7.631   7.574  16.739  0.00  0.00    +0.000 OA
BRANCH  15  17
ATOM     17  C   UNL     1       8.633   8.603  18.696  0.00  0.00    +0.000 C 
BRANCH  17  18
ATOM     18  C   UNL     1       8.663   9.909  17.908  0.00  0.00    +0.000 C 
BRANCH  18  19
ATOM     19  C   UNL     1       9.447  10.987  18.614  0.00  0.00    +0.000 A 
ATOM     20  C   UNL     1       9.805  12.164  17.942  0.00  0.00    +0.000 A 
ATOM     21  C   UNL     1      10.527  13.162  18.601  0.00  0.00    +0.000 A 
ATOM     22  C   UNL     1      10.901  12.993  19.931  0.00  0.00    +0.000 A 
ATOM     23  C   UNL     1      10.554  11.823  20.607  0.00  0.00    +0.000 A 
ATOM     24  C   UNL     1       9.834  10.824  19.951  0.00  0.00    +0.000 A 
ENDBRANCH  18  19
ENDBRANCH  17  18
ENDBRANCH  15  17
ENDBRANCH  14  15
ENDBRANCH  13  14
ENDBRANCH   1  13
TORSDOF 11
ENDMDL
MODEL 2
REMARK VINA RESULT:      -7.1      3.803      7.051
REMARK  Name = 
REMARK  11 active torsions:
REMARK  status: ('A' for Active; 'I' for Inactive)
REMARK    1  A    between atoms: C_2  and  C_3
REMARK    2  A    between atoms: C_2  and  O_11
REMARK    3  A    between atoms: C_3  and  C_4
REMARK    4  A    between atoms: C_4  and  C_5
REMARK    5  A    between atoms: O_11  and  C_12
REMARK    6  A    between atoms: C_12  and  C_13
REMARK    7  A    between atoms: C_13  and  O_14
REMARK    8  A    between atoms: O_14  and  C_15
REMARK    9  A    between atoms: C_15  and  C_17
REMARK   10  A    between atoms: C_17  and  C_18
REMARK   11  A    between atoms: C_18  and  C_19
REMARK                            x       y       z     vdW  Elec       q    Type
REMARK                         _______ _______ _______ _____ _____    ______ ____
ROOT
ATOM      1  C   UNL     1       7.508   5.797  18.249  0.00  0.00    +0.000 C 
ENDROOT
BRANCH   1   2
ATOM      2  O   UNL     1       6.646   5.581  19.385  0.00  0.00    +0.000 OA
BRANCH   2   4
ATOM      3  O   UNL     1       5.273   3.749  19.425  0.00  0.00    +0.000 OA
ATOM      4  C   UNL     1       5.489   4.914  19.121  0.00  0.00    +0.000 C 
BRANCH   4   5
ATOM      5  C   UNL     1       4.525   5.806  18.380  0.00  0.00    +0.000 C 
BRANCH   5   6
ATOM      6  C   UNL     1       3.299   6.090  19.245  0.00  0.00    +0.000 C 
BRANCH   6   7
ATOM      7  C   UNL     1       2.352   4.917  19.300  0.00  0.00    +0.000 A 
ATOM      8  C   UNL     1       1.865   4.456  20.530  0.00  0.00    +0.000 A 
ATOM      9  C   UNL     1       1.000   3.362  20.585  0.00  0.00    +0.000 A 
ATOM     10  C   UNL     1       0.615   2.718  19.410  0.00  0.00    +0.000 A 
ATOM     11  C   UNL     1       1.091   3.170  18.181  0.00  0.00    +0.000 A 
ATOM     12  C   UNL     1       1.956   4.264  18.125  0.00  0.00    +0.000 A 
ENDBRANCH   6   7
ENDBRANCH   5   6
ENDBRANCH   4   5
ENDBRANCH   2   4
ENDBRANCH   1   2
BRANCH   1  13
ATOM     13  C   UNL     1       7.860   4.474  17.564  0.00  0.00    +0.000 C 
BRANCH  13  14
ATOM     14  O   UNL     1       7.751   4.591  16.131  0.00  0.00    +0.000 OA
BRANCH  14  15
ATOM     15  C   UNL     1       6.536   4.270  15.607  0.00  0.00    +0.000 C 
ATOM     16  O   UNL     1       5.813   3.373  16.021  0.00  0.00    +0.000 OA
BRANCH  15  17
ATOM     17  C   UNL     1       6.220   5.167  14.437  0.00  0.00    +0.000 C 
BRANCH  17  18
ATOM     18  C   UNL     1       7.143   4.850  13.265  0.00  0.00    +0.000 C 
BRANCH  18  19
ATOM     19  C   UNL     1       6.645   3.691  12.439  0.00  0.00    +0.000 A 
ATOM     20  C   UNL     1       5.270   3.483  12.259  0.00  0.00    +0.000 A 
ATOM     21  C   UNL     1       4.812   2.411  11.489  0.00  0.00    +0.000 A 
ATOM     22  C   UNL     1       5.719   1.535  10.899  0.00  0.00    +0.000 A 
ATOM     23  C   UNL     1       7.089   1.730  11.077  0.00  0.00    +0.000 A 
ATOM     24  C   UNL     1       7.549   2.800  11.846  0.00  0.00    +0.000 A 
ENDBRANCH  18  19
ENDBRANCH  17  18
ENDBRANCH  15  17
ENDBRANCH  14  15
ENDBRANCH  13  14
ENDBRANCH   1  13
TORSDOF 11
ENDMDL
MODEL 3
REMARK VINA RESULT:      -7.0      4.743      7.977
REMARK  Name = 
REMARK  11 active torsions:
REMARK  status: ('A' for Active; 'I' for Inactive)
REMARK    1  A    between atoms: C_2  and  C_3
REMARK    2  A    between atoms: C_2  and  O_11
REMARK    3  A    between atoms: C_3  and  C_4
REMARK    4  A    between atoms: C_4  and  C_5
REMARK    5  A    between atoms: O_11  and  C_12
REMARK    6  A    between atoms: C_12  and  C_13
REMARK    7  A    between atoms: C_13  and  O_14
REMARK    8  A    between atoms: O_14  and  C_15
REMARK    9  A    between atoms: C_15  and  C_17
REMARK   10  A    between atoms: C_17  and  C_18
REMARK   11  A    between atoms: C_18  and  C_19
REMARK                            x       y       z     vdW  Elec       q    Type
REMARK                         _______ _______ _______ _____ _____    ______ ____
ROOT
ATOM      1  C   UNL     1       4.955   4.130  19.122  0.00  0.00    +0.000 C 
ENDROOT
BRANCH   1   2
ATOM      2  O   UNL     1       6.384   4.206  18.944  0.00  0.00    +0.000 OA
BRANCH   2   4
ATOM      3  O   UNL     1       7.808   5.095  17.386  0.00  0.00    +0.000 OA
ATOM      4  C   UNL     1       6.800   4.462  17.673  0.00  0.00    +0.000 C 
BRANCH   4   5
ATOM      5  C   UNL     1       5.832   3.880  16.675  0.00  0.00    +0.000 C 
BRANCH   5   6
ATOM      6  C   UNL     1       5.462   4.926  15.627  0.00  0.00    +0.000 C 
BRANCH   6   7
ATOM      7  C   UNL     1       6.052   4.616  14.274  0.00  0.00    +0.000 A 
ATOM      8  C   UNL     1       5.438   3.680  13.429  0.00  0.00    +0.000 A 
ATOM      9  C   UNL     1       5.991   3.381  12.183  0.00  0.00    +0.000 A 
ATOM     10  C   UNL     1       7.162   4.013  11.769  0.00  0.00    +0.000 A 
ATOM     11  C   UNL     1       7.780   4.946  12.600  0.00  0.00    +0.000 A 
ATOM     12  C   UNL     1       7.229   5.246  13.847  0.00  0.00    +0.000 A 
ENDBRANCH   6   7
ENDBRANCH   5   6
ENDBRANCH   4   5
ENDBRANCH   2   4
ENDBRANCH   1   2
BRANCH   1  13
ATOM     13  C   UNL     1       4.583   3.064  20.156  0.00  0.00    +0.000 C 
BRANCH  13  14
ATOM     14  O   UNL     1       4.212   1.830  19.510  0.00  0.00    +0.000 OA
BRANCH  14  15
ATOM     15  C   UNL     1       3.084   1.881  18.750  0.00  0.00    +0.000 C 
ATOM     16  O   UNL     1       3.065   1.819  17.528  0.00  0.00    +0.000 OA
BRANCH  15  17
ATOM     17  C   UNL     1       1.869   2.037  19.629  0.00  0.00    +0.000 C 
BRANCH  17  18
ATOM     18  C   UNL     1       0.911   3.061  19.026  0.00  0.00    +0.000 C 
BRANCH  18  19
ATOM     19  C   UNL     1       1.424   4.473  19.156  0.00  0.00    +0.000 A 
ATOM     20  C   UNL     1       1.465   5.104  20.407  0.00  0.00    +0.000 A 
ATOM     21  C   UNL     1       1.945   6.411  20.524  0.00  0.00    +0.000 A 
ATOM     22  C   UNL     1       2.382   7.099  19.396  0.00  0.00    +0.000 A 
ATOM     23  C   UNL     1       2.340   6.482  18.145  0.00  0.00    +0.000 A 
ATOM     24  C   UNL     1       1.861   5.177  18.026  0.00  0.00    +0.000 A 
ENDBRANCH  18  19
ENDBRANCH  17  18
ENDBRANCH  15  17
ENDBRANCH  14  15
ENDBRANCH  13  14
ENDBRANCH   1  13
TORSDOF 11
ENDMDL
MODEL 4
REMARK VINA RESULT:      -6.8      4.718      6.552
REMARK  Name = 
REMARK  11 active torsions:
REMARK  status: ('A' for Active; 'I' for Inactive)
REMARK    1  A    between atoms: C_2  and  C_3
REMARK    2  A    between atoms: C_2  and  O_11
REMARK    3  A    between atoms: C_3  and  C_4
REMARK    4  A    between atoms: C_4  and  C_5
REMARK    5  A    between atoms: O_11  and  C_12
REMARK    6  A    between atoms: C_12  and  C_13
REMARK    7  A    between atoms: C_13  and  O_14
REMARK    8  A    between atoms: O_14  and  C_15
REMARK    9  A    between atoms: C_15  and  C_17
REMARK   10  A    between atoms: C_17  and  C_18
REMARK   11  A    between atoms: C_18  and  C_19
REMARK                            x       y       z     vdW  Elec       q    Type
REMARK                         _______ _______ _______ _____ _____    ______ ____
ROOT
ATOM      1  C   UNL     1       3.260   2.444  19.380  0.00  0.00    +0.000 C 
ENDROOT
BRANCH   1   2
ATOM      2  O   UNL     1       3.250   3.089  20.670  0.00  0.00    +0.000 OA
BRANCH   2   4
ATOM      3  O   UNL     1       1.615   2.528  22.172  0.00  0.00    +0.000 OA
ATOM      4  C   UNL     1       2.024   3.219  21.249  0.00  0.00    +0.000 C 
BRANCH   4   5
ATOM      5  C   UNL     1       1.237   4.313  20.573  0.00  0.00    +0.000 C 
BRANCH   5   6
ATOM      6  C   UNL     1       1.727   5.680  21.042  0.00  0.00    +0.000 C 
BRANCH   6   7
ATOM      7  C   UNL     1       2.044   6.601  19.890  0.00  0.00    +0.000 A 
ATOM      8  C   UNL     1       1.669   7.951  19.937  0.00  0.00    +0.000 A 
ATOM      9  C   UNL     1       1.949   8.802  18.866  0.00  0.00    +0.000 A 
ATOM     10  C   UNL     1       2.605   8.311  17.739  0.00  0.00    +0.000 A 
ATOM     11  C   UNL     1       2.984   6.971  17.682  0.00  0.00    +0.000 A 
ATOM     12  C   UNL     1       2.705   6.119  18.752  0.00  0.00    +0.000 A 
ENDBRANCH   6   7
ENDBRANCH   5   6
ENDBRANCH   4   5
ENDBRANCH   2   4
ENDBRANCH   1   2
BRANCH   1  13
ATOM     13  C   UNL     1       4.618   2.605  18.692  0.00  0.00    +0.000 C 
BRANCH  13  14
ATOM     14  O   UNL     1       5.313   3.765  19.192  0.00  0.00    +0.000 OA
BRANCH  14  15
ATOM     15  C   UNL     1       6.161   4.364  18.312  0.00  0.00    +0.000 C 
ATOM     16  O   UNL     1       7.263   4.812  18.601  0.00  0.00    +0.000 OA
BRANCH  15  17
ATOM     17  C   UNL     1       5.541   4.410  16.938  0.00  0.00    +0.000 C 
BRANCH  17  18
ATOM     18  C   UNL     1       6.275   5.421  16.062  0.00  0.00    +0.000 C 
BRANCH  18  19
ATOM     19  C   UNL     1       6.484   4.918  14.656  0.00  0.00    +0.000 A 
ATOM     20  C   UNL     1       7.554   5.386  13.883  0.00  0.00    +0.000 A 
ATOM     21  C   UNL     1       7.747   4.914  12.582  0.00  0.00    +0.000 A 
ATOM     22  C   UNL     1       6.871   3.976  12.042  0.00  0.00    +0.000 A 
ATOM     23  C   UNL     1       5.799   3.508  12.802  0.00  0.00    +0.000 A 
ATOM     24  C   UNL     1       5.605   3.978  14.101  0.00  0.00    +0.000 A 
ENDBRANCH  18  19
ENDBRANCH  17  18
ENDBRANCH  15  17
ENDBRANCH  14  15
ENDBRANCH  13  14
ENDBRANCH   1  13
TORSDOF 11
ENDMDL
MODEL 5
REMARK VINA RESULT:      -6.8      1.172      8.961
REMARK  Name = 
REMARK  11 active torsions:
REMARK  status: ('A' for Active; 'I' for Inactive)
REMARK    1  A    between atoms: C_2  and  C_3
REMARK    2  A    between atoms: C_2  and  O_11
REMARK    3  A    between atoms: C_3  and  C_4
REMARK    4  A    between atoms: C_4  and  C_5
REMARK    5  A    between atoms: O_11  and  C_12
REMARK    6  A    between atoms: C_12  and  C_13
REMARK    7  A    between atoms: C_13  and  O_14
REMARK    8  A    between atoms: O_14  and  C_15
REMARK    9  A    between atoms: C_15  and  C_17
REMARK   10  A    between atoms: C_17  and  C_18
REMARK   11  A    between atoms: C_18  and  C_19
REMARK                            x       y       z     vdW  Elec       q    Type
REMARK                         _______ _______ _______ _____ _____    ______ ____
ROOT
ATOM      1  C   UNL     1       6.630   6.009  15.790  0.00  0.00    +0.000 C 
ENDROOT
BRANCH   1   2
ATOM      2  O   UNL     1       7.644   6.813  16.426  0.00  0.00    +0.000 OA
BRANCH   2   4
ATOM      3  O   UNL     1       6.005   7.912  17.590  0.00  0.00    +0.000 OA
ATOM      4  C   UNL     1       7.186   7.707  17.347  0.00  0.00    +0.000 C 
BRANCH   4   5
ATOM      5  C   UNL     1       8.340   8.424  18.001  0.00  0.00    +0.000 C 
BRANCH   5   6
ATOM      6  C   UNL     1       8.356   9.891  17.580  0.00  0.00    +0.000 C 
BRANCH   6   7
ATOM      7  C   UNL     1       9.349  10.705  18.372  0.00  0.00    +0.000 A 
ATOM      8  C   UNL     1       9.324  10.686  19.773  0.00  0.00    +0.000 A 
ATOM      9  C   UNL     1      10.233  11.450  20.508  0.00  0.00    +0.000 A 
ATOM     10  C   UNL     1      11.174  12.240  19.849  0.00  0.00    +0.000 A 
ATOM     11  C   UNL     1      11.208  12.264  18.456  0.00  0.00    +0.000 A 
ATOM     12  C   UNL     1      10.301  11.501  17.720  0.00  0.00    +0.000 A 
ENDBRANCH   6   7
ENDBRANCH   5   6
ENDBRANCH   4   5
ENDBRANCH   2   4
ENDBRANCH   1   2
BRANCH   1  13
ATOM     13  C   UNL     1       6.788   4.530  16.155  0.00  0.00    +0.000 C 
BRANCH  13  14
ATOM     14  O   UNL     1       5.937   4.182  17.265  0.00  0.00    +0.000 OA
BRANCH  14  15
ATOM     15  C   UNL     1       6.344   4.635  18.482  0.00  0.00    +0.000 C 
ATOM     16  O   UNL     1       7.503   4.634  18.875  0.00  0.00    +0.000 OA
BRANCH  15  17
ATOM     17  C   UNL     1       5.160   5.125  19.278  0.00  0.00    +0.000 C 
BRANCH  17  18
ATOM     18  C   UNL     1       3.944   5.283  18.370  0.00  0.00    +0.000 C 
BRANCH  18  19
ATOM     19  C   UNL     1       2.776   4.445  18.826  0.00  0.00    +0.000 A 
ATOM     20  C   UNL     1       2.404   3.295  18.116  0.00  0.00    +0.000 A 
ATOM     21  C   UNL     1       1.324   2.518  18.544  0.00  0.00    +0.000 A 
ATOM     22  C   UNL     1       0.605   2.885  19.677  0.00  0.00    +0.000 A 
ATOM     23  C   UNL     1       0.963   4.031  20.387  0.00  0.00    +0.000 A 
ATOM     24  C   UNL     1       2.041   4.808  19.962  0.00  0.00    +0.000 A 
ENDBRANCH  18  19
ENDBRANCH  17  18
ENDBRANCH  15  17
ENDBRANCH  14  15
ENDBRANCH  13  14
ENDBRANCH   1  13
TORSDOF 11
ENDMDL
MODEL 6
REMARK VINA RESULT:      -6.8      1.297      1.726
REMARK  Name = 
REMARK  11 active torsions:
REMARK  status: ('A' for Active; 'I' for Inactive)
REMARK    1  A    between atoms: C_2  and  C_3
REMARK    2  A    between atoms: C_2  and  O_11
REMARK    3  A    between atoms: C_3  and  C_4
REMARK    4  A    between atoms: C_4  and  C_5
REMARK    5  A    between atoms: O_11  and  C_12
REMARK    6  A    between atoms: C_12  and  C_13
REMARK    7  A    between atoms: C_13  and  O_14
REMARK    8  A    between atoms: O_14  and  C_15
REMARK    9  A    between atoms: C_15  and  C_17
REMARK   10  A    between atoms: C_17  and  C_18
REMARK   11  A    between atoms: C_18  and  C_19
REMARK                            x       y       z     vdW  Elec       q    Type
REMARK                         _______ _______ _______ _____ _____    ______ ____
ROOT
ATOM      1  C   UNL     1       5.179   6.280  16.204  0.00  0.00    +0.000 C 
ENDROOT
BRANCH   1   2
ATOM      2  O   UNL     1       4.825   5.147  17.023  0.00  0.00    +0.000 OA
BRANCH   2   4
ATOM      3  O   UNL     1       5.852   3.692  15.583  0.00  0.00    +0.000 OA
ATOM      4  C   UNL     1       5.019   3.928  16.448  0.00  0.00    +0.000 C 
BRANCH   4   5
ATOM      5  C   UNL     1       4.049   2.921  17.010  0.00  0.00    +0.000 C 
BRANCH   5   6
ATOM      6  C   UNL     1       2.761   3.616  17.446  0.00  0.00    +0.000 C 
BRANCH   6   7
ATOM      7  C   UNL     1       2.403   3.313  18.879  0.00  0.00    +0.000 A 
ATOM      8  C   UNL     1       1.096   3.520  19.342  0.00  0.00    +0.000 A 
ATOM      9  C   UNL     1       0.766   3.254  20.672  0.00  0.00    +0.000 A 
ATOM     10  C   UNL     1       1.738   2.781  21.552  0.00  0.00    +0.000 A 
ATOM     11  C   UNL     1       3.039   2.569  21.101  0.00  0.00    +0.000 A 
ATOM     12  C   UNL     1       3.372   2.834  19.771  0.00  0.00    +0.000 A 
ENDBRANCH   6   7
ENDBRANCH   5   6
ENDBRANCH   4   5
ENDBRANCH   2   4
ENDBRANCH   1   2
BRANCH   1  13
ATOM     13  C   UNL     1       5.634   7.463  17.064  0.00  0.00    +0.000 C 
BRANCH  13  14
ATOM     14  O   UNL     1       7.068   7.603  17.028  0.00  0.00    +0.000 OA
BRANCH  14  15
ATOM     15  C   UNL     1       7.741   7.036  18.067  0.00  0.00    +0.000 C 
ATOM     16  O   UNL     1       7.663   5.857  18.386  0.00  0.00    +0.000 OA
BRANCH  15  17
ATOM     17  C   UNL     1       8.580   8.071  18.771  0.00  0.00    +0.000 C 
BRANCH  17  18
ATOM     18  C   UNL     1       8.376   9.441  18.130  0.00  0.00    +0.000 C 
BRANCH  18  19
ATOM     19  C   UNL     1       9.315  10.481  18.687  0.00  0.00    +0.000 A 
ATOM     20  C   UNL     1      10.122  11.244  17.832  0.00  0.00    +0.000 A 
ATOM     21  C   UNL     1      10.987  12.210  18.351  0.00  0.00    +0.000 A 
ATOM     22  C   UNL     1      11.059  12.419  19.726  0.00  0.00    +0.000 A 
ATOM     23  C   UNL     1      10.264  11.660  20.586  0.00  0.00    +0.000 A 
ATOM     24  C   UNL     1       9.399  10.695  20.069  0.00  0.00    +0.000 A 
ENDBRANCH  18  19
ENDBRANCH  17  18
ENDBRANCH  15  17
ENDBRANCH  14  15
ENDBRANCH  13  14
ENDBRANCH   1  13
TORSDOF 11
ENDMDL
MODEL 7
REMARK VINA RESULT:      -6.8      1.226      1.374
REMARK  Name = 
REMARK  11 active torsions:
REMARK  status: ('A' for Active; 'I' for Inactive)
REMARK    1  A    between atoms: C_2  and  C_3
REMARK    2  A    between atoms: C_2  and  O_11
REMARK    3  A    between atoms: C_3  and  C_4
REMARK    4  A    between atoms: C_4  and  C_5
REMARK    5  A    between atoms: O_11  and  C_12
REMARK    6  A    between atoms: C_12  and  C_13
REMARK    7  A    between atoms: C_13  and  O_14
REMARK    8  A    between atoms: O_14  and  C_15
REMARK    9  A    between atoms: C_15  and  C_17
REMARK   10  A    between atoms: C_17  and  C_18
REMARK   11  A    between atoms: C_18  and  C_19
REMARK                            x       y       z     vdW  Elec       q    Type
REMARK                         _______ _______ _______ _____ _____    ______ ____
ROOT
ATOM      1  C   UNL     1       7.182   5.071  17.749  0.00  0.00    +0.000 C 
ENDROOT
BRANCH   1   2
ATOM      2  O   UNL     1       5.970   4.320  17.962  0.00  0.00    +0.000 OA
BRANCH   2   4
ATOM      3  O   UNL     1       5.803   3.662  15.774  0.00  0.00    +0.000 OA
ATOM      4  C   UNL     1       5.283   3.988  16.833  0.00  0.00    +0.000 C 
BRANCH   4   5
ATOM      5  C   UNL     1       3.799   4.104  17.067  0.00  0.00    +0.000 C 
BRANCH   5   6
ATOM      6  C   UNL     1       3.232   2.764  17.529  0.00  0.00    +0.000 C 
BRANCH   6   7
ATOM      7  C   UNL     1       2.609   2.847  18.900  0.00  0.00    +0.000 A 
ATOM      8  C   UNL     1       1.242   3.119  19.043  0.00  0.00    +0.000 A 
ATOM      9  C   UNL     1       0.667   3.210  20.312  0.00  0.00    +0.000 A 
ATOM     10  C   UNL     1       1.453   3.032  21.449  0.00  0.00    +0.000 A 
ATOM     11  C   UNL     1       2.813   2.759  21.318  0.00  0.00    +0.000 A 
ATOM     12  C   UNL     1       3.390   2.667  20.050  0.00  0.00    +0.000 A 
ENDBRANCH   6   7
ENDBRANCH   5   6
ENDBRANCH   4   5
ENDBRANCH   2   4
ENDBRANCH   1   2
BRANCH   1  13
ATOM     13  C   UNL     1       7.447   6.033  18.911  0.00  0.00    +0.000 C 
BRANCH  13  14
ATOM     14  O   UNL     1       8.285   7.128  18.491  0.00  0.00    +0.000 OA
BRANCH  14  15
ATOM     15  C   UNL     1       7.690   8.046  17.682  0.00  0.00    +0.000 C 
ATOM     16  O   UNL     1       6.875   7.782  16.808  0.00  0.00    +0.000 OA
BRANCH  15  17
ATOM     17  C   UNL     1       8.189   9.431  18.010  0.00  0.00    +0.000 C 
BRANCH  17  18
ATOM     18  C   UNL     1       9.216   9.367  19.137  0.00  0.00    +0.000 C 
BRANCH  18  19
ATOM     19  C   UNL     1       9.672  10.736  19.576  0.00  0.00    +0.000 A 
ATOM     20  C   UNL     1      10.482  11.519  18.742  0.00  0.00    +0.000 A 
ATOM     21  C   UNL     1      10.898  12.789  19.150  0.00  0.00    +0.000 A 
ATOM     22  C   UNL     1      10.515  13.284  20.393  0.00  0.00    +0.000 A 
ATOM     23  C   UNL     1       9.715  12.510  21.233  0.00  0.00    +0.000 A 
ATOM     24  C   UNL     1       9.298  11.242  20.828  0.00  0.00    +0.000 A 
ENDBRANCH  18  19
ENDBRANCH  17  18
ENDBRANCH  15  17
ENDBRANCH  14  15
ENDBRANCH  13  14
ENDBRANCH   1  13
TORSDOF 11
ENDMDL
MODEL 8
REMARK VINA RESULT:      -6.8      1.320      9.445
REMARK  Name = 
REMARK  11 active torsions:
REMARK  status: ('A' for Active; 'I' for Inactive)
REMARK    1  A    between atoms: C_2  and  C_3
REMARK    2  A    between atoms: C_2  and  O_11
REMARK    3  A    between atoms: C_3  and  C_4
REMARK    4  A    between atoms: C_4  and  C_5
REMARK    5  A    between atoms: O_11  and  C_12
REMARK    6  A    between atoms: C_12  and  C_13
REMARK    7  A    between atoms: C_13  and  O_14
REMARK    8  A    between atoms: O_14  and  C_15
REMARK    9  A    between atoms: C_15  and  C_17
REMARK   10  A    between atoms: C_17  and  C_18
REMARK   11  A    between atoms: C_18  and  C_19
REMARK                            x       y       z     vdW  Elec       q    Type
REMARK                         _______ _______ _______ _____ _____    ______ ____
ROOT
ATOM      1  C   UNL     1       7.122   6.426  16.618  0.00  0.00    +0.000 C 
ENDROOT
BRANCH   1   2
ATOM      2  O   UNL     1       7.074   7.761  17.161  0.00  0.00    +0.000 OA
BRANCH   2   4
ATOM      3  O   UNL     1       8.559   7.241  18.825  0.00  0.00    +0.000 OA
ATOM      4  C   UNL     1       8.041   8.055  18.074  0.00  0.00    +0.000 C 
BRANCH   4   5
ATOM      5  C   UNL     1       8.362   9.528  18.043  0.00  0.00    +0.000 C 
BRANCH   5   6
ATOM      6  C   UNL     1       9.183   9.915  19.270  0.00  0.00    +0.000 C 
BRANCH   6   7
ATOM      7  C   UNL     1      10.024  11.144  19.034  0.00  0.00    +0.000 A 
ATOM      8  C   UNL     1      10.519  11.430  17.755  0.00  0.00    +0.000 A 
ATOM      9  C   UNL     1      11.310  12.559  17.537  0.00  0.00    +0.000 A 
ATOM     10  C   UNL     1      11.615  13.412  18.596  0.00  0.00    +0.000 A 
ATOM     11  C   UNL     1      11.127  13.138  19.872  0.00  0.00    +0.000 A 
ATOM     12  C   UNL     1      10.336  12.009  20.092  0.00  0.00    +0.000 A 
ENDBRANCH   6   7
ENDBRANCH   5   6
ENDBRANCH   4   5
ENDBRANCH   2   4
ENDBRANCH   1   2
BRANCH   1  13
ATOM     13  C   UNL     1       6.662   5.393  17.651  0.00  0.00    +0.000 C 
BRANCH  13  14
ATOM     14  O   UNL     1       5.445   5.817  18.295  0.00  0.00    +0.000 OA
BRANCH  14  15
ATOM     15  C   UNL     1       4.301   5.602  17.589  0.00  0.00    +0.000 C 
ATOM     16  O   UNL     1       3.407   6.425  17.442  0.00  0.00    +0.000 OA
BRANCH  15  17
ATOM     17  C   UNL     1       4.291   4.202  17.028  0.00  0.00    +0.000 C 
BRANCH  17  18
ATOM     18  C   UNL     1       2.914   3.571  17.213  0.00  0.00    +0.000 C 
BRANCH  18  19
ATOM     19  C   UNL     1       2.541   3.425  18.667  0.00  0.00    +0.000 A 
ATOM     20  C   UNL     1       3.399   2.770  19.561  0.00  0.00    +0.000 A 
ATOM     21  C   UNL     1       3.052   2.641  20.908  0.00  0.00    +0.000 A 
ATOM     22  C   UNL     1       1.847   3.159  21.373  0.00  0.00    +0.000 A 
ATOM     23  C   UNL     1       0.983   3.807  20.490  0.00  0.00    +0.000 A 
ATOM     24  C   UNL     1       1.327   3.937  19.144  0.00  0.00    +0.000 A 
ENDBRANCH  18  19
ENDBRANCH  17  18
ENDBRANCH  15  17
ENDBRANCH  14  15
ENDBRANCH  13  14
ENDBRANCH   1  13
TORSDOF 11
ENDMDL
MODEL 9
REMARK VINA RESULT:      -6.8      3.613      7.025
REMARK  Name = 
REMARK  11 active torsions:
REMARK  status: ('A' for Active; 'I' for Inactive)
REMARK    1  A    between atoms: C_2  and  C_3
REMARK    2  A    between atoms: C_2  and  O_11
REMARK    3  A    between atoms: C_3  and  C_4
REMARK    4  A    between atoms: C_4  and  C_5
REMARK    5  A    between atoms: O_11  and  C_12
REMARK    6  A    between atoms: C_12  and  C_13
REMARK    7  A    between atoms: C_13  and  O_14
REMARK    8  A    between atoms: O_14  and  C_15
REMARK    9  A    between atoms: C_15  and  C_17
REMARK   10  A    between atoms: C_17  and  C_18
REMARK   11  A    between atoms: C_18  and  C_19
REMARK                            x       y       z     vdW  Elec       q    Type
REMARK                         _______ _______ _______ _____ _____    ______ ____
ROOT
ATOM      1  C   UNL     1       7.086   6.993  16.898  0.00  0.00    +0.000 C 
ENDROOT
BRANCH   1   2
ATOM      2  O   UNL     1       6.597   6.105  15.873  0.00  0.00    +0.000 OA
BRANCH   2   4
ATOM      3  O   UNL     1       7.984   4.412  16.546  0.00  0.00    +0.000 OA
ATOM      4  C   UNL     1       6.952   4.798  16.014  0.00  0.00    +0.000 C 
BRANCH   4   5
ATOM      5  C   UNL     1       5.908   3.900  15.401  0.00  0.00    +0.000 C 
BRANCH   5   6
ATOM      6  C   UNL     1       4.566   4.097  16.102  0.00  0.00    +0.000 C 
BRANCH   6   7
ATOM      7  C   UNL     1       4.470   3.316  17.388  0.00  0.00    +0.000 A 
ATOM      8  C   UNL     1       5.076   3.795  18.557  0.00  0.00    +0.000 A 
ATOM      9  C   UNL     1       5.001   3.066  19.745  0.00  0.00    +0.000 A 
ATOM     10  C   UNL     1       4.321   1.850  19.775  0.00  0.00    +0.000 A 
ATOM     11  C   UNL     1       3.713   1.364  18.618  0.00  0.00    +0.000 A 
ATOM     12  C   UNL     1       3.787   2.092  17.430  0.00  0.00    +0.000 A 
ENDBRANCH   6   7
ENDBRANCH   5   6
ENDBRANCH   4   5
ENDBRANCH   2   4
ENDBRANCH   1   2
BRANCH   1  13
ATOM     13  C   UNL     1       5.932   7.711  17.604  0.00  0.00    +0.000 C 
BRANCH  13  14
ATOM     14  O   UNL     1       4.801   6.832  17.765  0.00  0.00    +0.000 OA
BRANCH  14  15
ATOM     15  C   UNL     1       3.580   7.414  17.614  0.00  0.00    +0.000 C 
ATOM     16  O   UNL     1       3.395   8.545  17.185  0.00  0.00    +0.000 OA
BRANCH  15  17
ATOM     17  C   UNL     1       2.494   6.469  18.064  0.00  0.00    +0.000 C 
BRANCH  17  18
ATOM     18  C   UNL     1       2.481   6.369  19.586  0.00  0.00    +0.000 C 
BRANCH  18  19
ATOM     19  C   UNL     1       2.001   5.023  20.068  0.00  0.00    +0.000 A 
ATOM     20  C   UNL     1       1.236   4.197  19.232  0.00  0.00    +0.000 A 
ATOM     21  C   UNL     1       0.798   2.949  19.681  0.00  0.00    +0.000 A 
ATOM     22  C   UNL     1       1.113   2.517  20.966  0.00  0.00    +0.000 A 
ATOM     23  C   UNL     1       1.869   3.334  21.808  0.00  0.00    +0.000 A 
ATOM     24  C   UNL     1       2.308   4.581  21.362  0.00  0.00    +0.000 A 
ENDBRANCH  18  19
ENDBRANCH  17  18
ENDBRANCH  15  17
ENDBRANCH  14  15
ENDBRANCH  13  14
ENDBRANCH   1  13
TORSDOF 11
ENDMDL
