MODEL 1
REMARK VINA RESULT:      -8.3      0.000      0.000
REMARK  Name = 
REMARK  10 active torsions:
REMARK  status: ('A' for Active; 'I' for Inactive)
REMARK    1  A    between atoms: C_1  and  O_2
REMARK    2  A    between atoms: O_2  and  C_3
REMARK    3  A    between atoms: C_5  and  C_6
REMARK    4  A    between atoms: C_6  and  O_7
REMARK    5  A    between atoms: C_10  and  O_11
REMARK    6  A    between atoms: O_11  and  C_12
REMARK    7  A    between atoms: C_19  and  C_20
REMARK    8  A    between atoms: N_22  and  C_23
REMARK    9  A    between atoms: CA_26  and  C_27
REMARK   10  A    between atoms: C_27  and  OXT_29
REMARK                            x       y       z     vdW  Elec       q    Type
REMARK                         _______ _______ _______ _____ _____    ______ ____
ROOT
ATOM      1  C   UNL     1       4.167   5.035  19.268  0.00  0.00    +0.000 A 
ATOM      2  C   UNL     1       4.523   3.686  19.450  0.00  0.00    +0.000 A 
ATOM      3  C   UNL     1       3.763   2.848  20.267  0.00  0.00    +0.000 A 
ATOM      4 CL   UNL     1       4.356   1.252  20.554  0.00  0.00    +0.000 Cl
ATOM      5  C   UNL     1       2.588   3.327  20.842  0.00  0.00    +0.000 A 
ATOM      6 CL   UNL     1       1.610   2.366  21.893  0.00  0.00    +0.000 Cl
ATOM      7  C   UNL     1       2.169   4.630  20.570  0.00  0.00    +0.000 A 
ATOM      8  C   UNL     1       2.943   5.507  19.778  0.00  0.00    +0.000 A 
ENDROOT
BRANCH   8   9
ATOM      9  C   UNL     1       2.347   6.876  19.563  0.00  0.00    +0.000 C 
ATOM     10  O   UNL     1       2.377   7.327  18.419  0.00  0.00    +0.000 OA
ATOM     11  N   UNL     1       1.842   7.564  20.654  0.00  0.00    +0.000 N 
ATOM     12  H   UNL     1       1.872   7.085  21.548  0.00  0.00    +0.000 HD
BRANCH  11  13
ATOM     13  C   UNL     1       1.298   8.881  20.648  0.00  0.00    +0.000 A 
ATOM     14  C   UNL     1       0.949   9.590  19.496  0.00  0.00    +0.000 A 
ATOM     15  C   UNL     1       0.450  10.893  19.579  0.00  0.00    +0.000 A 
ATOM     16  CA  UNL     1       0.311  11.452  20.837  0.00  0.00    +0.000 A 
ATOM     17  N   UNL     1       0.619  10.808  22.001  0.00  0.00    +0.000 NA
ATOM     18  C   UNL     1       1.102   9.542  21.864  0.00  0.00    +0.000 A 
BRANCH  16  19
ATOM     19  C   UNL     1      -0.190  12.851  20.979  0.00  0.00    +0.000 C 
ATOM     20  O   UNL     1      -0.902  13.427  20.178  0.00  0.00    +0.000 OA
BRANCH  19  21
ATOM     21  OXT UNL     1       0.268  13.403  22.129  0.00  0.00    +0.000 OA
ATOM     22  HXT UNL     1       0.659  12.689  22.686  0.00  0.00    +0.000 HD
ENDBRANCH  19  21
ENDBRANCH  16  19
ENDBRANCH  11  13
ENDBRANCH   8   9
BRANCH   1  23
ATOM     23  O   UNL     1       4.978   5.893  18.560  0.00  0.00    +0.000 OA
BRANCH  23  29
ATOM     24  C   UNL     1       6.916   4.928  17.305  0.00  0.00    +0.000 A 
ATOM     25  C   UNL     1       7.461   4.712  16.031  0.00  0.00    +0.000 A 
ATOM     26  C   UNL     1       6.764   5.056  14.862  0.00  0.00    +0.000 A 
ATOM     27  C   UNL     1       5.470   5.563  14.972  0.00  0.00    +0.000 A 
ATOM     28  C   UNL     1       4.907   5.774  16.233  0.00  0.00    +0.000 A 
ATOM     29  C   UNL     1       5.624   5.483  17.404  0.00  0.00    +0.000 A 
BRANCH  24  31
ATOM     30  C   UNL     1       8.055   5.819  19.197  0.00  0.00    +0.000 C 
ATOM     31  O   UNL     1       7.626   4.677  18.452  0.00  0.00    +0.000 OA
ENDBRANCH  24  31
BRANCH  26  32
ATOM     32  C   UNL     1       7.453   4.924  13.529  0.00  0.00    +0.000 C 
BRANCH  32  33
ATOM     33  O   UNL     1       8.522   5.860  13.451  0.00  0.00    +0.000 OA
ATOM     34  H   UNL     1       8.331   6.457  12.708  0.00  0.00    +0.000 HD
ENDBRANCH  32  33
ENDBRANCH  26  32
ENDBRANCH  23  29
ENDBRANCH   1  23
TORSDOF 9
ENDMDL
MODEL 2
REMARK VINA RESULT:      -8.0      1.404      1.670
REMARK  Name = 
REMARK  10 active torsions:
REMARK  status: ('A' for Active; 'I' for Inactive)
REMARK    1  A    between atoms: C_1  and  O_2
REMARK    2  A    between atoms: O_2  and  C_3
REMARK    3  A    between atoms: C_5  and  C_6
REMARK    4  A    between atoms: C_6  and  O_7
REMARK    5  A    between atoms: C_10  and  O_11
REMARK    6  A    between atoms: O_11  and  C_12
REMARK    7  A    between atoms: C_19  and  C_20
REMARK    8  A    between atoms: N_22  and  C_23
REMARK    9  A    between atoms: CA_26  and  C_27
REMARK   10  A    between atoms: C_27  and  OXT_29
REMARK                            x       y       z     vdW  Elec       q    Type
REMARK                         _______ _______ _______ _____ _____    ______ ____
ROOT
ATOM      1  C   UNL     1       4.141   5.209  18.966  0.00  0.00    +0.000 A 
ATOM      2  C   UNL     1       4.578   3.930  19.356  0.00  0.00    +0.000 A 
ATOM      3  C   UNL     1       3.841   3.165  20.261  0.00  0.00    +0.000 A 
ATOM      4 CL   UNL     1       4.527   1.674  20.799  0.00  0.00    +0.000 Cl
ATOM      5  C   UNL     1       2.612   3.634  20.719  0.00  0.00    +0.000 A 
ATOM      6 CL   UNL     1       1.656   2.766  21.865  0.00  0.00    +0.000 Cl
ATOM      7  C   UNL     1       2.118   4.851  20.244  0.00  0.00    +0.000 A 
ATOM      8  C   UNL     1       2.866   5.658  19.359  0.00  0.00    +0.000 A 
ENDROOT
BRANCH   8   9
ATOM      9  C   UNL     1       2.190   6.935  18.925  0.00  0.00    +0.000 C 
ATOM     10  O   UNL     1       2.022   7.098  17.718  0.00  0.00    +0.000 OA
ATOM     11  N   UNL     1       1.833   7.863  19.889  0.00  0.00    +0.000 N 
ATOM     12  H   UNL     1       2.021   7.613  20.854  0.00  0.00    +0.000 HD
BRANCH  11  13
ATOM     13  C   UNL     1       1.242   9.140  19.660  0.00  0.00    +0.000 A 
ATOM     14  C   UNL     1       0.094   9.609  20.303  0.00  0.00    +0.000 A 
ATOM     15  C   UNL     1      -0.438  10.864  19.995  0.00  0.00    +0.000 A 
ATOM     16  CA  UNL     1       0.211  11.624  19.038  0.00  0.00    +0.000 A 
ATOM     17  N   UNL     1       1.344  11.230  18.385  0.00  0.00    +0.000 NA
ATOM     18  C   UNL     1       1.820   9.999  18.721  0.00  0.00    +0.000 A 
BRANCH  16  19
ATOM     19  C   UNL     1      -0.332  12.960  18.652  0.00  0.00    +0.000 C 
ATOM     20  O   UNL     1      -0.211  13.981  19.300  0.00  0.00    +0.000 OA
BRANCH  19  21
ATOM     21  OXT UNL     1      -0.997  12.876  17.474  0.00  0.00    +0.000 OA
ATOM     22  HXT UNL     1      -1.864  12.433  17.633  0.00  0.00    +0.000 HD
ENDBRANCH  19  21
ENDBRANCH  16  19
ENDBRANCH  11  13
ENDBRANCH   8   9
BRANCH   1  23
ATOM     23  O   UNL     1       4.922   6.013  18.168  0.00  0.00    +0.000 OA
BRANCH  23  29
ATOM     24  C   UNL     1       6.931   5.676  16.714  0.00  0.00    +0.000 A 
ATOM     25  C   UNL     1       7.377   5.212  15.467  0.00  0.00    +0.000 A 
ATOM     26  C   UNL     1       6.503   4.611  14.548  0.00  0.00    +0.000 A 
ATOM     27  C   UNL     1       5.172   4.409  14.914  0.00  0.00    +0.000 A 
ATOM     28  C   UNL     1       4.714   4.854  16.156  0.00  0.00    +0.000 A 
ATOM     29  C   UNL     1       5.574   5.506  17.053  0.00  0.00    +0.000 A 
BRANCH  24  31
ATOM     30  C   UNL     1       7.957   5.742  18.862  0.00  0.00    +0.000 C 
ATOM     31  O   UNL     1       7.759   6.343  17.580  0.00  0.00    +0.000 OA
ENDBRANCH  24  31
BRANCH  26  32
ATOM     32  C   UNL     1       7.011   4.255  13.176  0.00  0.00    +0.000 C 
BRANCH  32  33
ATOM     33  O   UNL     1       6.303   3.123  12.685  0.00  0.00    +0.000 OA
ATOM     34  H   UNL     1       6.033   2.594  13.455  0.00  0.00    +0.000 HD
ENDBRANCH  32  33
ENDBRANCH  26  32
ENDBRANCH  23  29
ENDBRANCH   1  23
TORSDOF 9
ENDMDL
MODEL 3
REMARK VINA RESULT:      -8.0      1.016      1.134
REMARK  Name = 
REMARK  10 active torsions:
REMARK  status: ('A' for Active; 'I' for Inactive)
REMARK    1  A    between atoms: C_1  and  O_2
REMARK    2  A    between atoms: O_2  and  C_3
REMARK    3  A    between atoms: C_5  and  C_6
REMARK    4  A    between atoms: C_6  and  O_7
REMARK    5  A    between atoms: C_10  and  O_11
REMARK    6  A    between atoms: O_11  and  C_12
REMARK    7  A    between atoms: C_19  and  C_20
REMARK    8  A    between atoms: N_22  and  C_23
REMARK    9  A    between atoms: CA_26  and  C_27
REMARK   10  A    between atoms: C_27  and  OXT_29
REMARK                            x       y       z     vdW  Elec       q    Type
REMARK                         _______ _______ _______ _____ _____    ______ ____
ROOT
ATOM      1  C   UNL     1       4.196   4.972  18.936  0.00  0.00    +0.000 A 
ATOM      2  C   UNL     1       4.548   3.613  19.025  0.00  0.00    +0.000 A 
ATOM      3  C   UNL     1       3.918   2.768  19.939  0.00  0.00    +0.000 A 
ATOM      4 CL   UNL     1       4.517   1.155  20.086  0.00  0.00    +0.000 Cl
ATOM      5  C   UNL     1       2.867   3.252  20.715  0.00  0.00    +0.000 A 
ATOM      6 CL   UNL     1       2.059   2.282  21.893  0.00  0.00    +0.000 Cl
ATOM      7  C   UNL     1       2.436   4.569  20.546  0.00  0.00    +0.000 A 
ATOM      8  C   UNL     1       3.085   5.452  19.655  0.00  0.00    +0.000 A 
ENDROOT
BRANCH   8   9
ATOM      9  C   UNL     1       2.492   6.837  19.574  0.00  0.00    +0.000 C 
ATOM     10  O   UNL     1       2.646   7.452  18.521  0.00  0.00    +0.000 OA
ATOM     11  N   UNL     1       1.847   7.354  20.686  0.00  0.00    +0.000 N 
ATOM     12  H   UNL     1       1.782   6.748  21.497  0.00  0.00    +0.000 HD
BRANCH  11  13
ATOM     13  C   UNL     1       1.282   8.656  20.809  0.00  0.00    +0.000 A 
ATOM     14  C   UNL     1       0.828   9.428  19.738  0.00  0.00    +0.000 A 
ATOM     15  C   UNL     1       0.314  10.711  19.945  0.00  0.00    +0.000 A 
ATOM     16  CA  UNL     1       0.269  11.187  21.243  0.00  0.00    +0.000 A 
ATOM     17  N   UNL     1       0.682  10.478  22.334  0.00  0.00    +0.000 NA
ATOM     18  C   UNL     1       1.175   9.234  22.078  0.00  0.00    +0.000 A 
BRANCH  16  19
ATOM     19  C   UNL     1      -0.244  12.562  21.515  0.00  0.00    +0.000 C 
ATOM     20  O   UNL     1       0.403  13.470  22.002  0.00  0.00    +0.000 OA
BRANCH  19  21
ATOM     21  OXT UNL     1      -1.546  12.661  21.151  0.00  0.00    +0.000 OA
ATOM     22  HXT UNL     1      -1.656  12.248  20.262  0.00  0.00    +0.000 HD
ENDBRANCH  19  21
ENDBRANCH  16  19
ENDBRANCH  11  13
ENDBRANCH   8   9
BRANCH   1  23
ATOM     23  O   UNL     1       4.895   5.834  18.121  0.00  0.00    +0.000 OA
BRANCH  23  29
ATOM     24  C   UNL     1       6.897   5.556  16.647  0.00  0.00    +0.000 A 
ATOM     25  C   UNL     1       7.336   5.156  15.375  0.00  0.00    +0.000 A 
ATOM     26  C   UNL     1       6.455   4.615  14.427  0.00  0.00    +0.000 A 
ATOM     27  C   UNL     1       5.123   4.407  14.784  0.00  0.00    +0.000 A 
ATOM     28  C   UNL     1       4.671   4.788  16.049  0.00  0.00    +0.000 A 
ATOM     29  C   UNL     1       5.539   5.382  16.979  0.00  0.00    +0.000 A 
BRANCH  24  31
ATOM     30  C   UNL     1       7.680   7.596  17.594  0.00  0.00    +0.000 C 
ATOM     31  O   UNL     1       7.734   6.167  17.546  0.00  0.00    +0.000 OA
ENDBRANCH  24  31
BRANCH  26  32
ATOM     32  C   UNL     1       6.957   4.329  13.036  0.00  0.00    +0.000 C 
BRANCH  32  33
ATOM     33  O   UNL     1       6.481   3.058  12.610  0.00  0.00    +0.000 OA
ATOM     34  H   UNL     1       7.154   2.399  12.855  0.00  0.00    +0.000 HD
ENDBRANCH  32  33
ENDBRANCH  26  32
ENDBRANCH  23  29
ENDBRANCH   1  23
TORSDOF 9
ENDMDL
MODEL 4
REMARK VINA RESULT:      -7.8      1.759      1.928
REMARK  Name = 
REMARK  10 active torsions:
REMARK  status: ('A' for Active; 'I' for Inactive)
REMARK    1  A    between atoms: C_1  and  O_2
REMARK    2  A    between atoms: O_2  and  C_3
REMARK    3  A    between atoms: C_5  and  C_6
REMARK    4  A    between atoms: C_6  and  O_7
REMARK    5  A    between atoms: C_10  and  O_11
REMARK    6  A    between atoms: O_11  and  C_12
REMARK    7  A    between atoms: C_19  and  C_20
REMARK    8  A    between atoms: N_22  and  C_23
REMARK    9  A    between atoms: CA_26  and  C_27
REMARK   10  A    between atoms: C_27  and  OXT_29
REMARK                            x       y       z     vdW  Elec       q    Type
REMARK                         _______ _______ _______ _____ _____    ______ ____
ROOT
ATOM      1  C   UNL     1       3.550   5.450  18.784  0.00  0.00    +0.000 A 
ATOM      2  C   UNL     1       3.740   4.063  18.642  0.00  0.00    +0.000 A 
ATOM      3  C   UNL     1       3.090   3.161  19.485  0.00  0.00    +0.000 A 
ATOM      4 CL   UNL     1       3.499   1.489  19.340  0.00  0.00    +0.000 Cl
ATOM      5  C   UNL     1       2.174   3.630  20.424  0.00  0.00    +0.000 A 
ATOM      6 CL   UNL     1       1.356   2.584  21.527  0.00  0.00    +0.000 Cl
ATOM      7  C   UNL     1       1.894   4.997  20.489  0.00  0.00    +0.000 A 
ATOM      8  C   UNL     1       2.569   5.931  19.672  0.00  0.00    +0.000 A 
ENDROOT
BRANCH   8   9
ATOM      9  C   UNL     1       2.144   7.367  19.850  0.00  0.00    +0.000 C 
ATOM     10  O   UNL     1       1.973   7.762  21.002  0.00  0.00    +0.000 OA
ATOM     11  N   UNL     1       1.931   8.146  18.724  0.00  0.00    +0.000 N 
ATOM     12  H   UNL     1       2.107   7.706  17.827  0.00  0.00    +0.000 HD
BRANCH  11  13
ATOM     13  C   UNL     1       1.474   9.495  18.701  0.00  0.00    +0.000 A 
ATOM     14  C   UNL     1       0.174   9.898  19.012  0.00  0.00    +0.000 A 
ATOM     15  C   UNL     1      -0.199  11.243  18.933  0.00  0.00    +0.000 A 
ATOM     16  CA  UNL     1       0.762  12.158  18.539  0.00  0.00    +0.000 A 
ATOM     17  N   UNL     1       2.053  11.831  18.236  0.00  0.00    +0.000 NA
ATOM     18  C   UNL     1       2.364  10.508  18.328  0.00  0.00    +0.000 A 
BRANCH  16  19
ATOM     19  C   UNL     1       0.408  13.602  18.411  0.00  0.00    +0.000 C 
ATOM     20  O   UNL     1       1.171  14.531  18.592  0.00  0.00    +0.000 OA
BRANCH  19  21
ATOM     21  OXT UNL     1      -0.898  13.739  18.073  0.00  0.00    +0.000 OA
ATOM     22  HXT UNL     1      -1.062  13.232  17.243  0.00  0.00    +0.000 HD
ENDBRANCH  19  21
ENDBRANCH  16  19
ENDBRANCH  11  13
ENDBRANCH   8   9
BRANCH   1  23
ATOM     23  O   UNL     1       4.277   6.346  18.034  0.00  0.00    +0.000 OA
BRANCH  23  29
ATOM     24  C   UNL     1       6.566   6.210  17.032  0.00  0.00    +0.000 A 
ATOM     25  C   UNL     1       7.301   5.806  15.907  0.00  0.00    +0.000 A 
ATOM     26  C   UNL     1       6.696   5.141  14.830  0.00  0.00    +0.000 A 
ATOM     27  C   UNL     1       5.342   4.816  14.912  0.00  0.00    +0.000 A 
ATOM     28  C   UNL     1       4.597   5.201  16.029  0.00  0.00    +0.000 A 
ATOM     29  C   UNL     1       5.189   5.915  17.082  0.00  0.00    +0.000 A 
BRANCH  24  31
ATOM     30  C   UNL     1       7.731   8.183  17.681  0.00  0.00    +0.000 C 
ATOM     31  O   UNL     1       7.132   6.937  18.048  0.00  0.00    +0.000 OA
ENDBRANCH  24  31
BRANCH  26  32
ATOM     32  C   UNL     1       7.508   4.852  13.595  0.00  0.00    +0.000 C 
BRANCH  32  33
ATOM     33  O   UNL     1       8.505   5.854  13.435  0.00  0.00    +0.000 OA
ATOM     34  H   UNL     1       9.310   5.413  13.115  0.00  0.00    +0.000 HD
ENDBRANCH  32  33
ENDBRANCH  26  32
ENDBRANCH  23  29
ENDBRANCH   1  23
TORSDOF 9
ENDMDL
MODEL 5
REMARK VINA RESULT:      -7.8      1.380      1.639
REMARK  Name = 
REMARK  10 active torsions:
REMARK  status: ('A' for Active; 'I' for Inactive)
REMARK    1  A    between atoms: C_1  and  O_2
REMARK    2  A    between atoms: O_2  and  C_3
REMARK    3  A    between atoms: C_5  and  C_6
REMARK    4  A    between atoms: C_6  and  O_7
REMARK    5  A    between atoms: C_10  and  O_11
REMARK    6  A    between atoms: O_11  and  C_12
REMARK    7  A    between atoms: C_19  and  C_20
REMARK    8  A    between atoms: N_22  and  C_23
REMARK    9  A    between atoms: CA_26  and  C_27
REMARK   10  A    between atoms: C_27  and  OXT_29
REMARK                            x       y       z     vdW  Elec       q    Type
REMARK                         _______ _______ _______ _____ _____    ______ ____
ROOT
ATOM      1  C   UNL     1       3.653   5.274  18.890  0.00  0.00    +0.000 A 
ATOM      2  C   UNL     1       3.936   3.898  18.810  0.00  0.00    +0.000 A 
ATOM      3  C   UNL     1       3.381   2.998  19.721  0.00  0.00    +0.000 A 
ATOM      4 CL   UNL     1       3.902   1.353  19.644  0.00  0.00    +0.000 Cl
ATOM      5  C   UNL     1       2.466   3.452  20.669  0.00  0.00    +0.000 A 
ATOM      6 CL   UNL     1       1.763   2.411  21.853  0.00  0.00    +0.000 Cl
ATOM      7  C   UNL     1       2.093   4.797  20.676  0.00  0.00    +0.000 A 
ATOM      8  C   UNL     1       2.671   5.732  19.789  0.00  0.00    +0.000 A 
ENDROOT
BRANCH   8   9
ATOM      9  C   UNL     1       2.152   7.143  19.911  0.00  0.00    +0.000 C 
ATOM     10  O   UNL     1       1.726   7.490  21.011  0.00  0.00    +0.000 OA
ATOM     11  N   UNL     1       2.142   7.951  18.787  0.00  0.00    +0.000 N 
ATOM     12  H   UNL     1       2.523   7.552  17.935  0.00  0.00    +0.000 HD
BRANCH  11  13
ATOM     13  C   UNL     1       1.639   9.282  18.703  0.00  0.00    +0.000 A 
ATOM     14  C   UNL     1       2.303  10.344  18.085  0.00  0.00    +0.000 A 
ATOM     15  C   UNL     1       1.750  11.627  18.076  0.00  0.00    +0.000 A 
ATOM     16  CA  UNL     1       0.525  11.808  18.694  0.00  0.00    +0.000 A 
ATOM     17  N   UNL     1      -0.181  10.810  19.301  0.00  0.00    +0.000 NA
ATOM     18  C   UNL     1       0.402   9.579  19.284  0.00  0.00    +0.000 A 
BRANCH  16  19
ATOM     19  C   UNL     1      -0.095  13.165  18.737  0.00  0.00    +0.000 C 
ATOM     20  O   UNL     1       0.108  14.003  19.594  0.00  0.00    +0.000 OA
BRANCH  19  21
ATOM     21  OXT UNL     1      -0.932  13.335  17.684  0.00  0.00    +0.000 OA
ATOM     22  HXT UNL     1      -0.594  12.803  16.926  0.00  0.00    +0.000 HD
ENDBRANCH  19  21
ENDBRANCH  16  19
ENDBRANCH  11  13
ENDBRANCH   8   9
BRANCH   1  23
ATOM     23  O   UNL     1       4.289   6.178  18.069  0.00  0.00    +0.000 OA
BRANCH  23  29
ATOM     24  C   UNL     1       6.601   5.978  17.133  0.00  0.00    +0.000 A 
ATOM     25  C   UNL     1       7.352   5.613  16.006  0.00  0.00    +0.000 A 
ATOM     26  C   UNL     1       6.749   5.066  14.863  0.00  0.00    +0.000 A 
ATOM     27  C   UNL     1       5.376   4.818  14.876  0.00  0.00    +0.000 A 
ATOM     28  C   UNL     1       4.615   5.164  15.995  0.00  0.00    +0.000 A 
ATOM     29  C   UNL     1       5.208   5.763  17.117  0.00  0.00    +0.000 A 
BRANCH  24  31
ATOM     30  C   UNL     1       7.776   5.737  19.191  0.00  0.00    +0.000 C 
ATOM     31  O   UNL     1       7.171   6.594  18.218  0.00  0.00    +0.000 OA
ENDBRANCH  24  31
BRANCH  26  32
ATOM     32  C   UNL     1       7.587   4.818  13.636  0.00  0.00    +0.000 C 
BRANCH  32  33
ATOM     33  O   UNL     1       8.531   5.872  13.485  0.00  0.00    +0.000 OA
ATOM     34  H   UNL     1       9.393   5.534  13.782  0.00  0.00    +0.000 HD
ENDBRANCH  32  33
ENDBRANCH  26  32
ENDBRANCH  23  29
ENDBRANCH   1  23
TORSDOF 9
ENDMDL
MODEL 6
REMARK VINA RESULT:      -7.8      0.828      1.160
REMARK  Name = 
REMARK  10 active torsions:
REMARK  status: ('A' for Active; 'I' for Inactive)
REMARK    1  A    between atoms: C_1  and  O_2
REMARK    2  A    between atoms: O_2  and  C_3
REMARK    3  A    between atoms: C_5  and  C_6
REMARK    4  A    between atoms: C_6  and  O_7
REMARK    5  A    between atoms: C_10  and  O_11
REMARK    6  A    between atoms: O_11  and  C_12
REMARK    7  A    between atoms: C_19  and  C_20
REMARK    8  A    between atoms: N_22  and  C_23
REMARK    9  A    between atoms: CA_26  and  C_27
REMARK   10  A    between atoms: C_27  and  OXT_29
REMARK                            x       y       z     vdW  Elec       q    Type
REMARK                         _______ _______ _______ _____ _____    ______ ____
ROOT
ATOM      1  C   UNL     1       4.079   5.172  19.177  0.00  0.00    +0.000 A 
ATOM      2  C   UNL     1       4.516   3.838  19.263  0.00  0.00    +0.000 A 
ATOM      3  C   UNL     1       3.891   2.933  20.122  0.00  0.00    +0.000 A 
ATOM      4 CL   UNL     1       4.587   1.360  20.277  0.00  0.00    +0.000 Cl
ATOM      5  C   UNL     1       2.765   3.329  20.841  0.00  0.00    +0.000 A 
ATOM      6 CL   UNL     1       1.956   2.282  21.950  0.00  0.00    +0.000 Cl
ATOM      7  C   UNL     1       2.257   4.618  20.669  0.00  0.00    +0.000 A 
ATOM      8  C   UNL     1       2.897   5.562  19.835  0.00  0.00    +0.000 A 
ENDROOT
BRANCH   8   9
ATOM      9  C   UNL     1       2.218   6.905  19.743  0.00  0.00    +0.000 C 
ATOM     10  O   UNL     1       2.236   7.469  18.650  0.00  0.00    +0.000 OA
ATOM     11  N   UNL     1       1.651   7.448  20.885  0.00  0.00    +0.000 N 
ATOM     12  H   UNL     1       1.698   6.885  21.728  0.00  0.00    +0.000 HD
BRANCH  11  13
ATOM     13  C   UNL     1       1.023   8.722  20.997  0.00  0.00    +0.000 A 
ATOM     14  C   UNL     1       0.475   9.235  22.174  0.00  0.00    +0.000 A 
ATOM     15  C   UNL     1      -0.153  10.484  22.189  0.00  0.00    +0.000 A 
ATOM     16  CA  UNL     1      -0.209  11.193  21.002  0.00  0.00    +0.000 A 
ATOM     17  N   UNL     1       0.320  10.755  19.822  0.00  0.00    +0.000 NA
ATOM     18  C   UNL     1       0.919   9.532  19.862  0.00  0.00    +0.000 A 
BRANCH  16  19
ATOM     19  C   UNL     1      -0.893  12.519  20.958  0.00  0.00    +0.000 C 
ATOM     20  O   UNL     1      -0.334  13.595  20.862  0.00  0.00    +0.000 OA
BRANCH  19  21
ATOM     21  OXT UNL     1      -2.236  12.360  21.051  0.00  0.00    +0.000 OA
ATOM     22  HXT UNL     1      -2.541  12.761  21.899  0.00  0.00    +0.000 HD
ENDBRANCH  19  21
ENDBRANCH  16  19
ENDBRANCH  11  13
ENDBRANCH   8   9
BRANCH   1  23
ATOM     23  O   UNL     1       4.765   6.096  18.422  0.00  0.00    +0.000 OA
BRANCH  23  29
ATOM     24  C   UNL     1       6.906   5.940  17.136  0.00  0.00    +0.000 A 
ATOM     25  C   UNL     1       7.477   5.604  15.899  0.00  0.00    +0.000 A 
ATOM     26  C   UNL     1       6.709   5.071  14.853  0.00  0.00    +0.000 A 
ATOM     27  C   UNL     1       5.358   4.807  15.073  0.00  0.00    +0.000 A 
ATOM     28  C   UNL     1       4.775   5.124  16.303  0.00  0.00    +0.000 A 
ATOM     29  C   UNL     1       5.530   5.709  17.331  0.00  0.00    +0.000 A 
BRANCH  24  31
ATOM     30  C   UNL     1       7.922   5.743  19.282  0.00  0.00    +0.000 C 
ATOM     31  O   UNL     1       7.632   6.543  18.132  0.00  0.00    +0.000 OA
ENDBRANCH  24  31
BRANCH  26  32
ATOM     32  C   UNL     1       7.350   4.855  13.507  0.00  0.00    +0.000 C 
BRANCH  32  33
ATOM     33  O   UNL     1       8.427   5.770  13.341  0.00  0.00    +0.000 OA
ATOM     34  H   UNL     1       8.926   5.785  14.175  0.00  0.00    +0.000 HD
ENDBRANCH  32  33
ENDBRANCH  26  32
ENDBRANCH  23  29
ENDBRANCH   1  23
TORSDOF 9
ENDMDL
MODEL 7
REMARK VINA RESULT:      -7.6      3.859      9.435
REMARK  Name = 
REMARK  10 active torsions:
REMARK  status: ('A' for Active; 'I' for Inactive)
REMARK    1  A    between atoms: C_1  and  O_2
REMARK    2  A    between atoms: O_2  and  C_3
REMARK    3  A    between atoms: C_5  and  C_6
REMARK    4  A    between atoms: C_6  and  O_7
REMARK    5  A    between atoms: C_10  and  O_11
REMARK    6  A    between atoms: O_11  and  C_12
REMARK    7  A    between atoms: C_19  and  C_20
REMARK    8  A    between atoms: N_22  and  C_23
REMARK    9  A    between atoms: CA_26  and  C_27
REMARK   10  A    between atoms: C_27  and  OXT_29
REMARK                            x       y       z     vdW  Elec       q    Type
REMARK                         _______ _______ _______ _____ _____    ______ ____
ROOT
ATOM      1  C   UNL     1      -0.014  11.249  19.438  0.00  0.00    +0.000 A 
ATOM      2  C   UNL     1      -1.305  11.760  19.658  0.00  0.00    +0.000 A 
ATOM      3  C   UNL     1      -2.371  11.395  18.834  0.00  0.00    +0.000 A 
ATOM      4 CL   UNL     1      -3.886  12.187  19.080  0.00  0.00    +0.000 Cl
ATOM      5  C   UNL     1      -2.175  10.445  17.833  0.00  0.00    +0.000 A 
ATOM      6 CL   UNL     1      -3.430   9.966  16.749  0.00  0.00    +0.000 Cl
ATOM      7  C   UNL     1      -0.921   9.848  17.687  0.00  0.00    +0.000 A 
ATOM      8  C   UNL     1       0.180  10.231  18.485  0.00  0.00    +0.000 A 
ENDROOT
BRANCH   8   9
ATOM      9  C   UNL     1       1.461   9.482  18.217  0.00  0.00    +0.000 C 
ATOM     10  O   UNL     1       2.303  10.044  17.519  0.00  0.00    +0.000 OA
ATOM     11  N   UNL     1       1.607   8.203  18.728  0.00  0.00    +0.000 N 
ATOM     12  H   UNL     1       0.842   7.847  19.291  0.00  0.00    +0.000 HD
BRANCH  11  13
ATOM     13  C   UNL     1       2.717   7.331  18.528  0.00  0.00    +0.000 A 
ATOM     14  C   UNL     1       3.537   7.338  17.398  0.00  0.00    +0.000 A 
ATOM     15  C   UNL     1       4.588   6.426  17.269  0.00  0.00    +0.000 A 
ATOM     16  CA  UNL     1       4.788   5.521  18.296  0.00  0.00    +0.000 A 
ATOM     17  N   UNL     1       4.033   5.472  19.432  0.00  0.00    +0.000 NA
ATOM     18  C   UNL     1       3.022   6.382  19.508  0.00  0.00    +0.000 A 
BRANCH  16  19
ATOM     19  C   UNL     1       5.879   4.507  18.194  0.00  0.00    +0.000 C 
ATOM     20  O   UNL     1       6.882   4.483  18.881  0.00  0.00    +0.000 OA
BRANCH  19  21
ATOM     21  OXT UNL     1       5.602   3.613  17.214  0.00  0.00    +0.000 OA
ATOM     22  HXT UNL     1       4.962   2.950  17.565  0.00  0.00    +0.000 HD
ENDBRANCH  19  21
ENDBRANCH  16  19
ENDBRANCH  11  13
ENDBRANCH   8   9
BRANCH   1  23
ATOM     23  O   UNL     1       1.061  11.696  20.174  0.00  0.00    +0.000 OA
BRANCH  23  29
ATOM     24  C   UNL     1       1.462  14.043  20.940  0.00  0.00    +0.000 A 
ATOM     25  C   UNL     1       1.891  15.320  20.545  0.00  0.00    +0.000 A 
ATOM     26  C   UNL     1       2.382  15.566  19.254  0.00  0.00    +0.000 A 
ATOM     27  C   UNL     1       2.509  14.498  18.365  0.00  0.00    +0.000 A 
ATOM     28  C   UNL     1       2.097  13.219  18.746  0.00  0.00    +0.000 A 
ATOM     29  C   UNL     1       1.554  12.983  20.018  0.00  0.00    +0.000 A 
BRANCH  24  31
ATOM     30  C   UNL     1      -0.479  14.169  22.315  0.00  0.00    +0.000 C 
ATOM     31  O   UNL     1       0.899  13.815  22.170  0.00  0.00    +0.000 OA
ENDBRANCH  24  31
BRANCH  26  32
ATOM     32  C   UNL     1       2.702  16.980  18.846  0.00  0.00    +0.000 C 
BRANCH  32  33
ATOM     33  O   UNL     1       4.085  17.235  19.059  0.00  0.00    +0.000 OA
ATOM     34  H   UNL     1       4.550  16.383  18.997  0.00  0.00    +0.000 HD
ENDBRANCH  32  33
ENDBRANCH  26  32
ENDBRANCH  23  29
ENDBRANCH   1  23
TORSDOF 9
ENDMDL
MODEL 8
REMARK VINA RESULT:      -7.6      4.755     10.453
REMARK  Name = 
REMARK  10 active torsions:
REMARK  status: ('A' for Active; 'I' for Inactive)
REMARK    1  A    between atoms: C_1  and  O_2
REMARK    2  A    between atoms: O_2  and  C_3
REMARK    3  A    between atoms: C_5  and  C_6
REMARK    4  A    between atoms: C_6  and  O_7
REMARK    5  A    between atoms: C_10  and  O_11
REMARK    6  A    between atoms: O_11  and  C_12
REMARK    7  A    between atoms: C_19  and  C_20
REMARK    8  A    between atoms: N_22  and  C_23
REMARK    9  A    between atoms: CA_26  and  C_27
REMARK   10  A    between atoms: C_27  and  OXT_29
REMARK                            x       y       z     vdW  Elec       q    Type
REMARK                         _______ _______ _______ _____ _____    ______ ____
ROOT
ATOM      1  C   UNL     1      -0.014  12.184  19.445  0.00  0.00    +0.000 A 
ATOM      2  C   UNL     1       0.047  13.589  19.469  0.00  0.00    +0.000 A 
ATOM      3  C   UNL     1       1.206  14.263  19.082  0.00  0.00    +0.000 A 
ATOM      4 CL   UNL     1       1.245  15.977  19.287  0.00  0.00    +0.000 Cl
ATOM      5  C   UNL     1       2.288  13.542  18.582  0.00  0.00    +0.000 A 
ATOM      6 CL   UNL     1       3.769  14.296  18.114  0.00  0.00    +0.000 Cl
ATOM      7  C   UNL     1       2.188  12.156  18.446  0.00  0.00    +0.000 A 
ATOM      8  C   UNL     1       1.040  11.451  18.868  0.00  0.00    +0.000 A 
ENDROOT
BRANCH   8   9
ATOM      9  C   UNL     1       1.079   9.960  18.641  0.00  0.00    +0.000 C 
ATOM     10  O   UNL     1       0.324   9.504  17.784  0.00  0.00    +0.000 OA
ATOM     11  N   UNL     1       1.921   9.186  19.422  0.00  0.00    +0.000 N 
ATOM     12  H   UNL     1       2.499   9.679  20.095  0.00  0.00    +0.000 HD
BRANCH  11  13
ATOM     13  C   UNL     1       2.046   7.767  19.386  0.00  0.00    +0.000 A 
ATOM     14  C   UNL     1       2.496   7.039  18.282  0.00  0.00    +0.000 A 
ATOM     15  C   UNL     1       2.558   5.643  18.321  0.00  0.00    +0.000 A 
ATOM     16  CA  UNL     1       2.163   5.011  19.487  0.00  0.00    +0.000 A 
ATOM     17  N   UNL     1       1.729   5.665  20.604  0.00  0.00    +0.000 NA
ATOM     18  C   UNL     1       1.687   7.023  20.514  0.00  0.00    +0.000 A 
BRANCH  16  19
ATOM     19  C   UNL     1       2.183   3.521  19.570  0.00  0.00    +0.000 C 
ATOM     20  O   UNL     1       1.383   2.840  20.182  0.00  0.00    +0.000 OA
BRANCH  19  21
ATOM     21  OXT UNL     1       3.233   3.023  18.871  0.00  0.00    +0.000 OA
ATOM     22  HXT UNL     1       2.905   2.306  18.279  0.00  0.00    +0.000 HD
ENDBRANCH  19  21
ENDBRANCH  16  19
ENDBRANCH  11  13
ENDBRANCH   8   9
BRANCH   1  23
ATOM     23  O   UNL     1      -1.111  11.513  19.937  0.00  0.00    +0.000 OA
BRANCH  23  29
ATOM     24  C   UNL     1      -1.389  11.759  22.412  0.00  0.00    +0.000 A 
ATOM     25  C   UNL     1      -2.270  12.152  23.431  0.00  0.00    +0.000 A 
ATOM     26  C   UNL     1      -3.527  12.708  23.148  0.00  0.00    +0.000 A 
ATOM     27  C   UNL     1      -3.879  12.937  21.818  0.00  0.00    +0.000 A 
ATOM     28  C   UNL     1      -3.010  12.562  20.790  0.00  0.00    +0.000 A 
ATOM     29  C   UNL     1      -1.776  11.955  21.071  0.00  0.00    +0.000 A 
BRANCH  24  31
ATOM     30  C   UNL     1      -0.263   9.733  22.959  0.00  0.00    +0.000 C 
ATOM     31  O   UNL     1      -0.198  11.134  22.681  0.00  0.00    +0.000 OA
ENDBRANCH  24  31
BRANCH  26  32
ATOM     32  C   UNL     1      -4.480  12.985  24.280  0.00  0.00    +0.000 C 
BRANCH  32  33
ATOM     33  O   UNL     1      -4.803  11.767  24.940  0.00  0.00    +0.000 OA
ATOM     34  H   UNL     1      -4.953  11.096  24.252  0.00  0.00    +0.000 HD
ENDBRANCH  32  33
ENDBRANCH  26  32
ENDBRANCH  23  29
ENDBRANCH   1  23
TORSDOF 9
ENDMDL
MODEL 9
REMARK VINA RESULT:      -7.5      3.879      9.375
REMARK  Name = 
REMARK  10 active torsions:
REMARK  status: ('A' for Active; 'I' for Inactive)
REMARK    1  A    between atoms: C_1  and  O_2
REMARK    2  A    between atoms: O_2  and  C_3
REMARK    3  A    between atoms: C_5  and  C_6
REMARK    4  A    between atoms: C_6  and  O_7
REMARK    5  A    between atoms: C_10  and  O_11
REMARK    6  A    between atoms: O_11  and  C_12
REMARK    7  A    between atoms: C_19  and  C_20
REMARK    8  A    between atoms: N_22  and  C_23
REMARK    9  A    between atoms: CA_26  and  C_27
REMARK   10  A    between atoms: C_27  and  OXT_29
REMARK                            x       y       z     vdW  Elec       q    Type
REMARK                         _______ _______ _______ _____ _____    ______ ____
ROOT
ATOM      1  C   UNL     1       0.271  11.255  19.507  0.00  0.00    +0.000 A 
ATOM      2  C   UNL     1      -0.972  11.835  19.816  0.00  0.00    +0.000 A 
ATOM      3  C   UNL     1      -2.126  11.472  19.121  0.00  0.00    +0.000 A 
ATOM      4 CL   UNL     1      -3.578  12.343  19.461  0.00  0.00    +0.000 Cl
ATOM      5  C   UNL     1      -2.066  10.458  18.166  0.00  0.00    +0.000 A 
ATOM      6 CL   UNL     1      -3.439   9.975  17.238  0.00  0.00    +0.000 Cl
ATOM      7  C   UNL     1      -0.857   9.798  17.939  0.00  0.00    +0.000 A 
ATOM      8  C   UNL     1       0.331  10.176  18.604  0.00  0.00    +0.000 A 
ENDROOT
BRANCH   8   9
ATOM      9  C   UNL     1       1.549   9.356  18.262  0.00  0.00    +0.000 C 
ATOM     10  O   UNL     1       2.330   9.829  17.437  0.00  0.00    +0.000 OA
ATOM     11  N   UNL     1       1.707   8.114  18.853  0.00  0.00    +0.000 N 
ATOM     12  H   UNL     1       0.996   7.833  19.520  0.00  0.00    +0.000 HD
BRANCH  11  13
ATOM     13  C   UNL     1       2.759   7.184  18.606  0.00  0.00    +0.000 A 
ATOM     14  C   UNL     1       3.075   6.107  19.437  0.00  0.00    +0.000 A 
ATOM     15  C   UNL     1       4.146   5.260  19.136  0.00  0.00    +0.000 A 
ATOM     16  CA  UNL     1       4.876   5.523  17.990  0.00  0.00    +0.000 A 
ATOM     17  N   UNL     1       4.608   6.548  17.130  0.00  0.00    +0.000 NA
ATOM     18  C   UNL     1       3.556   7.344  17.469  0.00  0.00    +0.000 A 
BRANCH  16  19
ATOM     19  C   UNL     1       6.046   4.666  17.639  0.00  0.00    +0.000 C 
ATOM     20  O   UNL     1       6.438   4.440  16.510  0.00  0.00    +0.000 OA
BRANCH  19  21
ATOM     21  OXT UNL     1       6.613   4.158  18.761  0.00  0.00    +0.000 OA
ATOM     22  HXT UNL     1       7.337   4.762  19.048  0.00  0.00    +0.000 HD
ENDBRANCH  19  21
ENDBRANCH  16  19
ENDBRANCH  11  13
ENDBRANCH   8   9
BRANCH   1  23
ATOM     23  O   UNL     1       1.429  11.695  20.108  0.00  0.00    +0.000 OA
BRANCH  23  29
ATOM     24  C   UNL     1       1.748  14.061  20.855  0.00  0.00    +0.000 A 
ATOM     25  C   UNL     1       2.132  15.348  20.448  0.00  0.00    +0.000 A 
ATOM     26  C   UNL     1       2.613  15.600  19.154  0.00  0.00    +0.000 A 
ATOM     27  C   UNL     1       2.777  14.531  18.274  0.00  0.00    +0.000 A 
ATOM     28  C   UNL     1       2.410  13.241  18.666  0.00  0.00    +0.000 A 
ATOM     29  C   UNL     1       1.877  12.997  19.941  0.00  0.00    +0.000 A 
BRANCH  24  31
ATOM     30  C   UNL     1      -0.109  14.366  22.314  0.00  0.00    +0.000 C 
ATOM     31  O   UNL     1       1.195  13.823  22.087  0.00  0.00    +0.000 OA
ENDBRANCH  24  31
BRANCH  26  32
ATOM     32  C   UNL     1       2.883  17.021  18.734  0.00  0.00    +0.000 C 
BRANCH  32  33
ATOM     33  O   UNL     1       3.133  17.064  17.334  0.00  0.00    +0.000 OA
ATOM     34  H   UNL     1       2.350  17.456  16.911  0.00  0.00    +0.000 HD
ENDBRANCH  32  33
ENDBRANCH  26  32
ENDBRANCH  23  29
ENDBRANCH   1  23
TORSDOF 9
ENDMDL
