MODEL 1
REMARK VINA RESULT:      -9.1      0.000      0.000
REMARK  Name = 
REMARK  5 active torsions:
REMARK  status: ('A' for Active; 'I' for Inactive)
REMARK    1  A    between atoms: N_1  and  C_2
REMARK    2  A    between atoms: C_7  and  C_8
REMARK    3  A    between atoms: N_10  and  N_11
REMARK    4  A    between atoms: C_21  and  C_22
REMARK    5  A    between atoms: C_22  and  C_23
REMARK                            x       y       z     vdW  Elec       q    Type
REMARK                         _______ _______ _______ _____ _____    ______ ____
ROOT
ATOM      1  N   UNL     1       5.548   4.448  19.257  0.00  0.00    +0.000 NA
ATOM      2  C   UNL     1       4.260   4.259  19.252  0.00  0.00    +0.000 C 
ATOM      3  C   UNL     1       3.808   2.806  19.376  0.00  0.00    +0.000 C 
ATOM      4  C   UNL     1       3.041   2.492  18.101  0.00  0.00    +0.000 C 
ATOM      5  N   UNL     1       1.880   3.359  17.877  0.00  0.00    +0.000 NA
ATOM      6  C   UNL     1       0.719   2.946  18.675  0.00  0.00    +0.000 C 
ATOM      7  C   UNL     1       0.662   3.362  20.159  0.00  0.00    +0.000 C 
ATOM      8  N   UNL     1       1.920   3.645  20.861  0.00  0.00    +0.000 NA
ATOM      9  C   UNL     1       2.970   2.643  20.651  0.00  0.00    +0.000 C 
ATOM     10  C   UNL     1       2.393   5.008  20.592  0.00  0.00    +0.000 C 
ATOM     11  C   UNL     1       3.077   5.238  19.223  0.00  0.00    +0.000 C 
ATOM     12  C   UNL     1       2.202   4.791  18.014  0.00  0.00    +0.000 C 
ENDROOT
BRANCH   1  15
ATOM     13  C   UNL     1       6.346   6.337  17.948  0.00  0.00    +0.000 C 
ATOM     14  O   UNL     1       6.711   7.514  17.983  0.00  0.00    +0.000 OA
ATOM     15  N   UNL     1       6.111   5.676  19.161  0.00  0.00    +0.000 N 
ATOM     16  H   UNL     1       6.095   6.295  19.955  0.00  0.00    +0.000 HD
BRANCH  13  22
ATOM     17  C   UNL     1       7.070   4.541  16.302  0.00  0.00    +0.000 A 
ATOM     18  C   UNL     1       6.998   4.002  15.007  0.00  0.00    +0.000 A 
ATOM     19  C   UNL     1       6.031   4.427  14.097  0.00  0.00    +0.000 A 
ATOM     20  C   UNL     1       5.124   5.407  14.466  0.00  0.00    +0.000 A 
ATOM     21  C   UNL     1       5.206   5.987  15.730  0.00  0.00    +0.000 A 
ATOM     22  C   UNL     1       6.215   5.621  16.637  0.00  0.00    +0.000 A 
BRANCH  17  23
ATOM     23  N   UNL     1       8.113   4.094  17.136  0.00  0.00    +0.000 N 
ATOM     24  H   UNL     1       8.849   4.772  17.299  0.00  0.00    +0.000 HD
ATOM     25  H   UNL     1       8.474   3.190  16.814  0.00  0.00    +0.000 HD
ENDBRANCH  17  23
ENDBRANCH  13  22
ENDBRANCH   1  15
BRANCH  11  26
ATOM     26  C   UNL     1       3.452   6.731  19.082  0.00  0.00    +0.000 C 
BRANCH  26  27
ATOM     27  C   UNL     1       2.334   7.752  19.098  0.00  0.00    +0.000 A 
ATOM     28  C   UNL     1       1.701   8.089  20.304  0.00  0.00    +0.000 A 
ATOM     29  C   UNL     1       0.704   9.063  20.334  0.00  0.00    +0.000 A 
ATOM     30  C   UNL     1       0.335   9.717  19.161  0.00  0.00    +0.000 A 
ATOM     31  C   UNL     1       0.957   9.392  17.957  0.00  0.00    +0.000 A 
ATOM     32  C   UNL     1       1.954   8.416  17.925  0.00  0.00    +0.000 A 
ENDBRANCH  26  27
ENDBRANCH  11  26
TORSDOF 5
ENDMDL
MODEL 2
REMARK VINA RESULT:      -9.1      1.360      1.653
REMARK  Name = 
REMARK  5 active torsions:
REMARK  status: ('A' for Active; 'I' for Inactive)
REMARK    1  A    between atoms: N_1  and  C_2
REMARK    2  A    between atoms: C_7  and  C_8
REMARK    3  A    between atoms: N_10  and  N_11
REMARK    4  A    between atoms: C_21  and  C_22
REMARK    5  A    between atoms: C_22  and  C_23
REMARK                            x       y       z     vdW  Elec       q    Type
REMARK                         _______ _______ _______ _____ _____    ______ ____
ROOT
ATOM      1  N   UNL     1       5.343   4.067  17.309  0.00  0.00    +0.000 NA
ATOM      2  C   UNL     1       4.202   3.917  17.920  0.00  0.00    +0.000 C 
ATOM      3  C   UNL     1       3.726   2.475  18.078  0.00  0.00    +0.000 C 
ATOM      4  C   UNL     1       2.410   2.380  17.322  0.00  0.00    +0.000 C 
ATOM      5  N   UNL     1       1.379   3.302  17.807  0.00  0.00    +0.000 NA
ATOM      6  C   UNL     1       0.717   2.805  19.019  0.00  0.00    +0.000 C 
ATOM      7  C   UNL     1       1.428   2.992  20.374  0.00  0.00    +0.000 C 
ATOM      8  N   UNL     1       2.890   3.130  20.390  0.00  0.00    +0.000 NA
ATOM      9  C   UNL     1       3.601   2.142  19.571  0.00  0.00    +0.000 C 
ATOM     10  C   UNL     1       3.305   4.504  20.086  0.00  0.00    +0.000 C 
ATOM     11  C   UNL     1       3.258   4.921  18.596  0.00  0.00    +0.000 C 
ATOM     12  C   UNL     1       1.866   4.687  17.935  0.00  0.00    +0.000 C 
ENDROOT
BRANCH   1  15
ATOM     13  C   UNL     1       6.197   5.793  15.824  0.00  0.00    +0.000 C 
ATOM     14  O   UNL     1       6.558   6.969  15.736  0.00  0.00    +0.000 OA
ATOM     15  N   UNL     1       5.906   5.279  17.094  0.00  0.00    +0.000 N 
ATOM     16  H   UNL     1       5.852   5.987  17.807  0.00  0.00    +0.000 HD
BRANCH  13  22
ATOM     17  C   UNL     1       7.203   4.877  13.677  0.00  0.00    +0.000 A 
ATOM     18  C   UNL     1       7.028   4.162  12.481  0.00  0.00    +0.000 A 
ATOM     19  C   UNL     1       5.879   3.408  12.248  0.00  0.00    +0.000 A 
ATOM     20  C   UNL     1       4.878   3.368  13.205  0.00  0.00    +0.000 A 
ATOM     21  C   UNL     1       5.011   4.107  14.378  0.00  0.00    +0.000 A 
ATOM     22  C   UNL     1       6.131   4.925  14.603  0.00  0.00    +0.000 A 
BRANCH  17  23
ATOM     23  N   UNL     1       8.370   5.656  13.804  0.00  0.00    +0.000 N 
ATOM     24  H   UNL     1       9.029   5.566  13.039  0.00  0.00    +0.000 HD
ATOM     25  H   UNL     1       8.807   5.508  14.721  0.00  0.00    +0.000 HD
ENDBRANCH  17  23
ENDBRANCH  13  22
ENDBRANCH   1  15
BRANCH  11  26
ATOM     26  C   UNL     1       3.663   6.407  18.467  0.00  0.00    +0.000 C 
BRANCH  26  27
ATOM     27  C   UNL     1       2.613   7.460  18.752  0.00  0.00    +0.000 A 
ATOM     28  C   UNL     1       2.077   7.593  20.042  0.00  0.00    +0.000 A 
ATOM     29  C   UNL     1       1.146   8.592  20.324  0.00  0.00    +0.000 A 
ATOM     30  C   UNL     1       0.747   9.473  19.322  0.00  0.00    +0.000 A 
ATOM     31  C   UNL     1       1.273   9.352  18.037  0.00  0.00    +0.000 A 
ATOM     32  C   UNL     1       2.205   8.353  17.753  0.00  0.00    +0.000 A 
ENDBRANCH  26  27
ENDBRANCH  11  26
TORSDOF 5
ENDMDL
MODEL 3
REMARK VINA RESULT:      -8.8      0.787      1.282
REMARK  Name = 
REMARK  5 active torsions:
REMARK  status: ('A' for Active; 'I' for Inactive)
REMARK    1  A    between atoms: N_1  and  C_2
REMARK    2  A    between atoms: C_7  and  C_8
REMARK    3  A    between atoms: N_10  and  N_11
REMARK    4  A    between atoms: C_21  and  C_22
REMARK    5  A    between atoms: C_22  and  C_23
REMARK                            x       y       z     vdW  Elec       q    Type
REMARK                         _______ _______ _______ _____ _____    ______ ____
ROOT
ATOM      1  N   UNL     1       5.655   4.262  19.156  0.00  0.00    +0.000 NA
ATOM      2  C   UNL     1       4.363   4.098  19.165  0.00  0.00    +0.000 C 
ATOM      3  C   UNL     1       3.885   2.652  19.274  0.00  0.00    +0.000 C 
ATOM      4  C   UNL     1       3.095   2.372  18.005  0.00  0.00    +0.000 C 
ATOM      5  N   UNL     1       1.949   3.264  17.809  0.00  0.00    +0.000 NA
ATOM      6  C   UNL     1       0.790   2.862  18.616  0.00  0.00    +0.000 C 
ATOM      7  C   UNL     1       0.760   3.257  20.106  0.00  0.00    +0.000 C 
ATOM      8  N   UNL     1       2.032   3.506  20.796  0.00  0.00    +0.000 NA
ATOM      9  C   UNL     1       3.060   2.486  20.558  0.00  0.00    +0.000 C 
ATOM     10  C   UNL     1       2.528   4.863  20.540  0.00  0.00    +0.000 C 
ATOM     11  C   UNL     1       3.199   5.100  19.166  0.00  0.00    +0.000 C 
ATOM     12  C   UNL     1       2.300   4.687  17.962  0.00  0.00    +0.000 C 
ENDROOT
BRANCH   1  15
ATOM     13  C   UNL     1       6.458   6.161  17.866  0.00  0.00    +0.000 C 
ATOM     14  O   UNL     1       6.848   7.329  17.915  0.00  0.00    +0.000 OA
ATOM     15  N   UNL     1       6.240   5.480  19.070  0.00  0.00    +0.000 N 
ATOM     16  H   UNL     1       6.257   6.082  19.877  0.00  0.00    +0.000 HD
BRANCH  13  22
ATOM     17  C   UNL     1       5.471   6.040  15.526  0.00  0.00    +0.000 A 
ATOM     18  C   UNL     1       5.224   5.287  14.367  0.00  0.00    +0.000 A 
ATOM     19  C   UNL     1       5.850   4.060  14.152  0.00  0.00    +0.000 A 
ATOM     20  C   UNL     1       6.727   3.560  15.100  0.00  0.00    +0.000 A 
ATOM     21  C   UNL     1       6.952   4.269  16.278  0.00  0.00    +0.000 A 
ATOM     22  C   UNL     1       6.280   5.474  16.544  0.00  0.00    +0.000 A 
BRANCH  17  23
ATOM     23  N   UNL     1       4.754   7.241  15.687  0.00  0.00    +0.000 N 
ATOM     24  H   UNL     1       5.230   7.953  16.230  0.00  0.00    +0.000 HD
ATOM     25  H   UNL     1       3.804   7.054  16.028  0.00  0.00    +0.000 HD
ENDBRANCH  17  23
ENDBRANCH  13  22
ENDBRANCH   1  15
BRANCH  11  26
ATOM     26  C   UNL     1       3.601   6.587  19.042  0.00  0.00    +0.000 C 
BRANCH  26  27
ATOM     27  C   UNL     1       2.501   7.627  19.061  0.00  0.00    +0.000 A 
ATOM     28  C   UNL     1       1.849   7.945  20.263  0.00  0.00    +0.000 A 
ATOM     29  C   UNL     1       0.870   8.937  20.298  0.00  0.00    +0.000 A 
ATOM     30  C   UNL     1       0.536   9.626  19.135  0.00  0.00    +0.000 A 
ATOM     31  C   UNL     1       1.177   9.320  17.935  0.00  0.00    +0.000 A 
ATOM     32  C   UNL     1       2.158   8.328  17.898  0.00  0.00    +0.000 A 
ENDBRANCH  26  27
ENDBRANCH  11  26
TORSDOF 5
ENDMDL
MODEL 4
REMARK VINA RESULT:      -8.8      1.098      1.546
REMARK  Name = 
REMARK  5 active torsions:
REMARK  status: ('A' for Active; 'I' for Inactive)
REMARK    1  A    between atoms: N_1  and  C_2
REMARK    2  A    between atoms: C_7  and  C_8
REMARK    3  A    between atoms: N_10  and  N_11
REMARK    4  A    between atoms: C_21  and  C_22
REMARK    5  A    between atoms: C_22  and  C_23
REMARK                            x       y       z     vdW  Elec       q    Type
REMARK                         _______ _______ _______ _____ _____    ______ ____
ROOT
ATOM      1  N   UNL     1       5.504   4.181  17.940  0.00  0.00    +0.000 NA
ATOM      2  C   UNL     1       4.269   4.050  18.332  0.00  0.00    +0.000 C 
ATOM      3  C   UNL     1       3.801   2.615  18.559  0.00  0.00    +0.000 C 
ATOM      4  C   UNL     1       2.661   2.383  17.580  0.00  0.00    +0.000 C 
ATOM      5  N   UNL     1       1.536   3.307  17.749  0.00  0.00    +0.000 NA
ATOM      6  C   UNL     1       0.660   2.916  18.859  0.00  0.00    +0.000 C 
ATOM      7  C   UNL     1       1.087   3.277  20.295  0.00  0.00    +0.000 C 
ATOM      8  N   UNL     1       2.514   3.479  20.577  0.00  0.00    +0.000 NA
ATOM      9  C   UNL     1       3.392   2.439  20.028  0.00  0.00    +0.000 C 
ATOM     10  C   UNL     1       2.953   4.828  20.204  0.00  0.00    +0.000 C 
ATOM     11  C   UNL     1       3.190   5.080  18.696  0.00  0.00    +0.000 C 
ATOM     12  C   UNL     1       1.960   4.718  17.810  0.00  0.00    +0.000 C 
ENDROOT
BRANCH   1  15
ATOM     13  C   UNL     1       6.302   5.904  16.420  0.00  0.00    +0.000 C 
ATOM     14  O   UNL     1       6.676   7.075  16.318  0.00  0.00    +0.000 OA
ATOM     15  N   UNL     1       6.074   5.387  17.701  0.00  0.00    +0.000 N 
ATOM     16  H   UNL     1       6.069   6.091  18.420  0.00  0.00    +0.000 HD
BRANCH  13  22
ATOM     17  C   UNL     1       7.188   4.961  14.231  0.00  0.00    +0.000 A 
ATOM     18  C   UNL     1       6.940   4.258  13.042  0.00  0.00    +0.000 A 
ATOM     19  C   UNL     1       5.754   3.550  12.851  0.00  0.00    +0.000 A 
ATOM     20  C   UNL     1       4.791   3.543  13.846  0.00  0.00    +0.000 A 
ATOM     21  C   UNL     1       4.997   4.271  15.016  0.00  0.00    +0.000 A 
ATOM     22  C   UNL     1       6.155   5.045  15.199  0.00  0.00    +0.000 A 
BRANCH  17  23
ATOM     23  N   UNL     1       8.387   5.695  14.316  0.00  0.00    +0.000 N 
ATOM     24  H   UNL     1       8.375   6.590  13.840  0.00  0.00    +0.000 HD
ATOM     25  H   UNL     1       9.188   5.115  14.044  0.00  0.00    +0.000 HD
ENDBRANCH  17  23
ENDBRANCH  13  22
ENDBRANCH   1  15
BRANCH  11  26
ATOM     26  C   UNL     1       3.582   6.560  18.479  0.00  0.00    +0.000 C 
BRANCH  26  27
ATOM     27  C   UNL     1       2.554   7.624  18.798  0.00  0.00    +0.000 A 
ATOM     28  C   UNL     1       2.094   8.488  17.792  0.00  0.00    +0.000 A 
ATOM     29  C   UNL     1       1.112   9.438  18.066  0.00  0.00    +0.000 A 
ATOM     30  C   UNL     1       0.572   9.529  19.346  0.00  0.00    +0.000 A 
ATOM     31  C   UNL     1       1.019   8.677  20.355  0.00  0.00    +0.000 A 
ATOM     32  C   UNL     1       2.003   7.725  20.081  0.00  0.00    +0.000 A 
ENDBRANCH  26  27
ENDBRANCH  11  26
TORSDOF 5
ENDMDL
MODEL 5
REMARK VINA RESULT:      -8.3      2.207      6.449
REMARK  Name = 
REMARK  5 active torsions:
REMARK  status: ('A' for Active; 'I' for Inactive)
REMARK    1  A    between atoms: N_1  and  C_2
REMARK    2  A    between atoms: C_7  and  C_8
REMARK    3  A    between atoms: N_10  and  N_11
REMARK    4  A    between atoms: C_21  and  C_22
REMARK    5  A    between atoms: C_22  and  C_23
REMARK                            x       y       z     vdW  Elec       q    Type
REMARK                         _______ _______ _______ _____ _____    ______ ____
ROOT
ATOM      1  N   UNL     1       1.794   6.388  18.721  0.00  0.00    +0.000 NA
ATOM      2  C   UNL     1       2.420   5.246  18.727  0.00  0.00    +0.000 C 
ATOM      3  C   UNL     1       1.835   4.181  19.650  0.00  0.00    +0.000 C 
ATOM      4  C   UNL     1       2.922   3.858  20.664  0.00  0.00    +0.000 C 
ATOM      5  N   UNL     1       4.167   3.371  20.065  0.00  0.00    +0.000 NA
ATOM      6  C   UNL     1       4.088   1.951  19.701  0.00  0.00    +0.000 C 
ATOM      7  C   UNL     1       3.382   1.568  18.385  0.00  0.00    +0.000 C 
ATOM      8  N   UNL     1       2.374   2.482  17.834  0.00  0.00    +0.000 NA
ATOM      9  C   UNL     1       1.398   2.970  18.815  0.00  0.00    +0.000 C 
ATOM     10  C   UNL     1       2.993   3.575  17.077  0.00  0.00    +0.000 C 
ATOM     11  C   UNL     1       3.611   4.723  17.911  0.00  0.00    +0.000 C 
ATOM     12  C   UNL     1       4.646   4.228  18.966  0.00  0.00    +0.000 C 
ENDROOT
BRANCH   1  15
ATOM     13  C   UNL     1       2.012   8.777  18.316  0.00  0.00    +0.000 C 
ATOM     14  O   UNL     1       2.545   9.644  17.620  0.00  0.00    +0.000 OA
ATOM     15  N   UNL     1       2.182   7.435  17.953  0.00  0.00    +0.000 N 
ATOM     16  H   UNL     1       2.883   7.299  17.244  0.00  0.00    +0.000 HD
BRANCH  13  22
ATOM     17  C   UNL     1       0.077  10.070  19.339  0.00  0.00    +0.000 A 
ATOM     18  C   UNL     1      -0.599  10.504  20.490  0.00  0.00    +0.000 A 
ATOM     19  C   UNL     1      -0.308   9.973  21.746  0.00  0.00    +0.000 A 
ATOM     20  C   UNL     1       0.674   9.004  21.871  0.00  0.00    +0.000 A 
ATOM     21  C   UNL     1       1.387   8.591  20.748  0.00  0.00    +0.000 A 
ATOM     22  C   UNL     1       1.156   9.162  19.485  0.00  0.00    +0.000 A 
BRANCH  17  23
ATOM     23  N   UNL     1      -0.242  10.700  18.120  0.00  0.00    +0.000 N 
ATOM     24  H   UNL     1      -0.641  10.090  17.415  0.00  0.00    +0.000 HD
ATOM     25  H   UNL     1       0.558  11.238  17.769  0.00  0.00    +0.000 HD
ENDBRANCH  17  23
ENDBRANCH  13  22
ENDBRANCH   1  15
BRANCH  11  26
ATOM     26  C   UNL     1       4.271   5.749  16.962  0.00  0.00    +0.000 C 
BRANCH  26  27
ATOM     27  C   UNL     1       5.301   5.246  15.973  0.00  0.00    +0.000 A 
ATOM     28  C   UNL     1       4.895   4.589  14.801  0.00  0.00    +0.000 A 
ATOM     29  C   UNL     1       5.836   4.167  13.862  0.00  0.00    +0.000 A 
ATOM     30  C   UNL     1       7.191   4.404  14.081  0.00  0.00    +0.000 A 
ATOM     31  C   UNL     1       7.607   5.056  15.241  0.00  0.00    +0.000 A 
ATOM     32  C   UNL     1       6.667   5.479  16.181  0.00  0.00    +0.000 A 
ENDBRANCH  26  27
ENDBRANCH  11  26
TORSDOF 5
ENDMDL
MODEL 6
REMARK VINA RESULT:      -8.2      2.220      5.996
REMARK  Name = 
REMARK  5 active torsions:
REMARK  status: ('A' for Active; 'I' for Inactive)
REMARK    1  A    between atoms: N_1  and  C_2
REMARK    2  A    between atoms: C_7  and  C_8
REMARK    3  A    between atoms: N_10  and  N_11
REMARK    4  A    between atoms: C_21  and  C_22
REMARK    5  A    between atoms: C_22  and  C_23
REMARK                            x       y       z     vdW  Elec       q    Type
REMARK                         _______ _______ _______ _____ _____    ______ ____
ROOT
ATOM      1  N   UNL     1       1.847   6.219  18.526  0.00  0.00    +0.000 NA
ATOM      2  C   UNL     1       2.475   5.080  18.593  0.00  0.00    +0.000 C 
ATOM      3  C   UNL     1       1.804   4.010  19.450  0.00  0.00    +0.000 C 
ATOM      4  C   UNL     1       2.783   3.690  20.568  0.00  0.00    +0.000 C 
ATOM      5  N   UNL     1       4.086   3.210  20.098  0.00  0.00    +0.000 NA
ATOM      6  C   UNL     1       4.051   1.790  19.726  0.00  0.00    +0.000 C 
ATOM      7  C   UNL     1       3.485   1.408  18.343  0.00  0.00    +0.000 C 
ATOM      8  N   UNL     1       2.534   2.318  17.694  0.00  0.00    +0.000 NA
ATOM      9  C   UNL     1       1.460   2.798  18.571  0.00  0.00    +0.000 C 
ATOM     10  C   UNL     1       3.222   3.416  17.007  0.00  0.00    +0.000 C 
ATOM     11  C   UNL     1       3.745   4.565  17.902  0.00  0.00    +0.000 C 
ATOM     12  C   UNL     1       4.670   4.072  19.056  0.00  0.00    +0.000 C 
ENDROOT
BRANCH   1  15
ATOM     13  C   UNL     1       2.179   8.607  18.200  0.00  0.00    +0.000 C 
ATOM     14  O   UNL     1       2.773   9.470  17.550  0.00  0.00    +0.000 OA
ATOM     15  N   UNL     1       2.305   7.269  17.804  0.00  0.00    +0.000 N 
ATOM     16  H   UNL     1       3.026   7.124  17.116  0.00  0.00    +0.000 HD
BRANCH  13  22
ATOM     17  C   UNL     1       0.223   9.903  19.177  0.00  0.00    +0.000 A 
ATOM     18  C   UNL     1      -0.477  10.341  20.313  0.00  0.00    +0.000 A 
ATOM     19  C   UNL     1      -0.215   9.811  21.576  0.00  0.00    +0.000 A 
ATOM     20  C   UNL     1       0.762   8.841  21.725  0.00  0.00    +0.000 A 
ATOM     21  C   UNL     1       1.500   8.425  20.618  0.00  0.00    +0.000 A 
ATOM     22  C   UNL     1       1.297   8.995  19.350  0.00  0.00    +0.000 A 
BRANCH  17  23
ATOM     23  N   UNL     1      -0.068  10.532  17.951  0.00  0.00    +0.000 N 
ATOM     24  H   UNL     1      -0.876  11.144  17.966  0.00  0.00    +0.000 HD
ATOM     25  H   UNL     1      -0.107   9.845  17.190  0.00  0.00    +0.000 HD
ENDBRANCH  17  23
ENDBRANCH  13  22
ENDBRANCH   1  15
BRANCH  11  26
ATOM     26  C   UNL     1       4.493   5.597  17.027  0.00  0.00    +0.000 C 
BRANCH  26  27
ATOM     27  C   UNL     1       5.781   6.186  17.563  0.00  0.00    +0.000 A 
ATOM     28  C   UNL     1       6.570   5.457  18.466  0.00  0.00    +0.000 A 
ATOM     29  C   UNL     1       7.781   5.973  18.926  0.00  0.00    +0.000 A 
ATOM     30  C   UNL     1       8.221   7.217  18.483  0.00  0.00    +0.000 A 
ATOM     31  C   UNL     1       7.446   7.951  17.585  0.00  0.00    +0.000 A 
ATOM     32  C   UNL     1       6.233   7.437  17.124  0.00  0.00    +0.000 A 
ENDBRANCH  26  27
ENDBRANCH  11  26
TORSDOF 5
ENDMDL
MODEL 7
REMARK VINA RESULT:      -8.1      2.324      6.417
REMARK  Name = 
REMARK  5 active torsions:
REMARK  status: ('A' for Active; 'I' for Inactive)
REMARK    1  A    between atoms: N_1  and  C_2
REMARK    2  A    between atoms: C_7  and  C_8
REMARK    3  A    between atoms: N_10  and  N_11
REMARK    4  A    between atoms: C_21  and  C_22
REMARK    5  A    between atoms: C_22  and  C_23
REMARK                            x       y       z     vdW  Elec       q    Type
REMARK                         _______ _______ _______ _____ _____    ______ ____
ROOT
ATOM      1  N   UNL     1       1.855   7.063  19.475  0.00  0.00    +0.000 NA
ATOM      2  C   UNL     1       2.124   5.790  19.429  0.00  0.00    +0.000 C 
ATOM      3  C   UNL     1       1.597   4.964  20.599  0.00  0.00    +0.000 C 
ATOM      4  C   UNL     1       2.819   4.370  21.282  0.00  0.00    +0.000 C 
ATOM      5  N   UNL     1       3.638   3.528  20.405  0.00  0.00    +0.000 NA
ATOM      6  C   UNL     1       3.075   2.182  20.246  0.00  0.00    +0.000 C 
ATOM      7  C   UNL     1       1.918   1.982  19.247  0.00  0.00    +0.000 C 
ATOM      8  N   UNL     1       1.069   3.132  18.913  0.00  0.00    +0.000 NA
ATOM      9  C   UNL     1       0.615   3.907  20.073  0.00  0.00    +0.000 C 
ATOM     10  C   UNL     1       1.687   3.980  17.887  0.00  0.00    +0.000 C 
ATOM     11  C   UNL     1       2.816   4.923  18.367  0.00  0.00    +0.000 C 
ATOM     12  C   UNL     1       3.959   4.181  19.123  0.00  0.00    +0.000 C 
ENDROOT
BRANCH   1  15
ATOM     13  C   UNL     1       1.900   9.289  18.494  0.00  0.00    +0.000 C 
ATOM     14  O   UNL     1       2.441  10.021  17.663  0.00  0.00    +0.000 OA
ATOM     15  N   UNL     1       2.246   7.932  18.512  0.00  0.00    +0.000 N 
ATOM     16  H   UNL     1       3.050   7.718  17.945  0.00  0.00    +0.000 HD
BRANCH  13  22
ATOM     17  C   UNL     1      -0.382  10.323  18.928  0.00  0.00    +0.000 A 
ATOM     18  C   UNL     1      -1.261  10.953  19.823  0.00  0.00    +0.000 A 
ATOM     19  C   UNL     1      -0.996  10.998  21.191  0.00  0.00    +0.000 A 
ATOM     20  C   UNL     1       0.163  10.422  21.685  0.00  0.00    +0.000 A 
ATOM     21  C   UNL     1       1.071   9.831  20.810  0.00  0.00    +0.000 A 
ATOM     22  C   UNL     1       0.855   9.835  19.422  0.00  0.00    +0.000 A 
BRANCH  17  23
ATOM     23  N   UNL     1      -0.701  10.373  17.558  0.00  0.00    +0.000 N 
ATOM     24  H   UNL     1      -1.576   9.926  17.307  0.00  0.00    +0.000 HD
ATOM     25  H   UNL     1       0.087  10.045  16.988  0.00  0.00    +0.000 HD
ENDBRANCH  17  23
ENDBRANCH  13  22
ENDBRANCH   1  15
BRANCH  11  26
ATOM     26  C   UNL     1       3.393   5.689  17.154  0.00  0.00    +0.000 C 
BRANCH  26  27
ATOM     27  C   UNL     1       4.799   5.355  16.703  0.00  0.00    +0.000 A 
ATOM     28  C   UNL     1       5.021   4.308  15.795  0.00  0.00    +0.000 A 
ATOM     29  C   UNL     1       6.307   4.026  15.337  0.00  0.00    +0.000 A 
ATOM     30  C   UNL     1       7.384   4.792  15.775  0.00  0.00    +0.000 A 
ATOM     31  C   UNL     1       7.178   5.835  16.676  0.00  0.00    +0.000 A 
ATOM     32  C   UNL     1       5.891   6.118  17.136  0.00  0.00    +0.000 A 
ENDBRANCH  26  27
ENDBRANCH  11  26
TORSDOF 5
ENDMDL
MODEL 8
REMARK VINA RESULT:      -8.0      2.446      6.523
REMARK  Name = 
REMARK  5 active torsions:
REMARK  status: ('A' for Active; 'I' for Inactive)
REMARK    1  A    between atoms: N_1  and  C_2
REMARK    2  A    between atoms: C_7  and  C_8
REMARK    3  A    between atoms: N_10  and  N_11
REMARK    4  A    between atoms: C_21  and  C_22
REMARK    5  A    between atoms: C_22  and  C_23
REMARK                            x       y       z     vdW  Elec       q    Type
REMARK                         _______ _______ _______ _____ _____    ______ ____
ROOT
ATOM      1  N   UNL     1       1.607   6.723  19.835  0.00  0.00    +0.000 NA
ATOM      2  C   UNL     1       2.012   5.501  19.634  0.00  0.00    +0.000 C 
ATOM      3  C   UNL     1       1.521   4.471  20.647  0.00  0.00    +0.000 C 
ATOM      4  C   UNL     1       2.765   3.910  21.317  0.00  0.00    +0.000 C 
ATOM      5  N   UNL     1       3.710   3.285  20.386  0.00  0.00    +0.000 NA
ATOM      6  C   UNL     1       3.301   1.926  20.012  0.00  0.00    +0.000 C 
ATOM      7  C   UNL     1       2.220   1.756  18.926  0.00  0.00    +0.000 C 
ATOM      8  N   UNL     1       1.270   2.852  18.699  0.00  0.00    +0.000 NA
ATOM      9  C   UNL     1       0.682   3.407  19.923  0.00  0.00    +0.000 C 
ATOM     10  C   UNL     1       1.843   3.893  17.838  0.00  0.00    +0.000 C 
ATOM     11  C   UNL     1       2.842   4.866  18.509  0.00  0.00    +0.000 C 
ATOM     12  C   UNL     1       4.020   4.140  19.226  0.00  0.00    +0.000 C 
ENDROOT
BRANCH   1  15
ATOM     13  C   UNL     1       1.713   9.100  19.329  0.00  0.00    +0.000 C 
ATOM     14  O   UNL     1       2.208   9.961  18.599  0.00  0.00    +0.000 OA
ATOM     15  N   UNL     1       1.948   7.753  19.025  0.00  0.00    +0.000 N 
ATOM     16  H   UNL     1       2.659   7.621  18.325  0.00  0.00    +0.000 HD
BRANCH  13  22
ATOM     17  C   UNL     1      -0.271  10.361  20.295  0.00  0.00    +0.000 A 
ATOM     18  C   UNL     1      -0.971  10.809  21.426  0.00  0.00    +0.000 A 
ATOM     19  C   UNL     1      -0.677  10.325  22.700  0.00  0.00    +0.000 A 
ATOM     20  C   UNL     1       0.334   9.392  22.864  0.00  0.00    +0.000 A 
ATOM     21  C   UNL     1       1.070   8.967  21.761  0.00  0.00    +0.000 A 
ATOM     22  C   UNL     1       0.834   9.492  20.479  0.00  0.00    +0.000 A 
BRANCH  17  23
ATOM     23  N   UNL     1      -0.597  10.944  19.055  0.00  0.00    +0.000 N 
ATOM     24  H   UNL     1      -1.372  10.507  18.568  0.00  0.00    +0.000 HD
ATOM     25  H   UNL     1       0.237  11.035  18.465  0.00  0.00    +0.000 HD
ENDBRANCH  17  23
ENDBRANCH  13  22
ENDBRANCH   1  15
BRANCH  11  26
ATOM     26  C   UNL     1       3.391   5.848  17.450  0.00  0.00    +0.000 C 
BRANCH  26  27
ATOM     27  C   UNL     1       4.718   5.524  16.797  0.00  0.00    +0.000 A 
ATOM     28  C   UNL     1       5.867   6.258  17.128  0.00  0.00    +0.000 A 
ATOM     29  C   UNL     1       7.102   5.934  16.568  0.00  0.00    +0.000 A 
ATOM     30  C   UNL     1       7.204   4.869  15.678  0.00  0.00    +0.000 A 
ATOM     31  C   UNL     1       6.069   4.132  15.340  0.00  0.00    +0.000 A 
ATOM     32  C   UNL     1       4.832   4.455  15.900  0.00  0.00    +0.000 A 
ENDBRANCH  26  27
ENDBRANCH  11  26
TORSDOF 5
ENDMDL
MODEL 9
REMARK VINA RESULT:      -7.8      1.504      2.450
REMARK  Name = 
REMARK  5 active torsions:
REMARK  status: ('A' for Active; 'I' for Inactive)
REMARK    1  A    between atoms: N_1  and  C_2
REMARK    2  A    between atoms: C_7  and  C_8
REMARK    3  A    between atoms: N_10  and  N_11
REMARK    4  A    between atoms: C_21  and  C_22
REMARK    5  A    between atoms: C_22  and  C_23
REMARK                            x       y       z     vdW  Elec       q    Type
REMARK                         _______ _______ _______ _____ _____    ______ ____
ROOT
ATOM      1  N   UNL     1       4.057   4.016  16.426  0.00  0.00    +0.000 NA
ATOM      2  C   UNL     1       3.459   3.917  17.579  0.00  0.00    +0.000 C 
ATOM      3  C   UNL     1       3.437   2.518  18.190  0.00  0.00    +0.000 C 
ATOM      4  C   UNL     1       1.971   2.134  18.312  0.00  0.00    +0.000 C 
ATOM      5  N   UNL     1       1.183   3.053  19.139  0.00  0.00    +0.000 NA
ATOM      6  C   UNL     1       1.366   2.802  20.573  0.00  0.00    +0.000 C 
ATOM      7  C   UNL     1       2.625   3.365  21.263  0.00  0.00    +0.000 C 
ATOM      8  N   UNL     1       3.817   3.628  20.448  0.00  0.00    +0.000 NA
ATOM      9  C   UNL     1       4.179   2.539  19.534  0.00  0.00    +0.000 C 
ATOM     10  C   UNL     1       3.726   4.922  19.762  0.00  0.00    +0.000 C 
ATOM     11  C   UNL     1       2.827   4.968  18.503  0.00  0.00    +0.000 C 
ATOM     12  C   UNL     1       1.375   4.466  18.765  0.00  0.00    +0.000 C 
ENDROOT
BRANCH   1  15
ATOM     13  C   UNL     1       5.289   6.024  15.822  0.00  0.00    +0.000 C 
ATOM     14  O   UNL     1       5.353   6.982  15.048  0.00  0.00    +0.000 OA
ATOM     15  N   UNL     1       4.168   5.187  15.755  0.00  0.00    +0.000 N 
ATOM     16  H   UNL     1       3.595   5.353  14.944  0.00  0.00    +0.000 HD
BRANCH  13  22
ATOM     17  C   UNL     1       7.126   4.608  16.863  0.00  0.00    +0.000 A 
ATOM     18  C   UNL     1       8.014   4.392  17.928  0.00  0.00    +0.000 A 
ATOM     19  C   UNL     1       8.244   5.373  18.892  0.00  0.00    +0.000 A 
ATOM     20  C   UNL     1       7.577   6.585  18.812  0.00  0.00    +0.000 A 
ATOM     21  C   UNL     1       6.657   6.803  17.788  0.00  0.00    +0.000 A 
ATOM     22  C   UNL     1       6.362   5.802  16.846  0.00  0.00    +0.000 A 
BRANCH  17  23
ATOM     23  N   UNL     1       6.913   3.543  15.967  0.00  0.00    +0.000 N 
ATOM     24  H   UNL     1       6.154   3.683  15.309  0.00  0.00    +0.000 HD
ATOM     25  H   UNL     1       6.838   2.653  16.471  0.00  0.00    +0.000 HD
ENDBRANCH  17  23
ENDBRANCH  13  22
ENDBRANCH   1  15
BRANCH  11  26
ATOM     26  C   UNL     1       2.797   6.411  17.948  0.00  0.00    +0.000 C 
BRANCH  26  27
ATOM     27  C   UNL     1       2.163   7.490  18.801  0.00  0.00    +0.000 A 
ATOM     28  C   UNL     1       1.746   8.697  18.219  0.00  0.00    +0.000 A 
ATOM     29  C   UNL     1       1.117   9.675  18.989  0.00  0.00    +0.000 A 
ATOM     30  C   UNL     1       0.891   9.454  20.345  0.00  0.00    +0.000 A 
ATOM     31  C   UNL     1       1.301   8.259  20.934  0.00  0.00    +0.000 A 
ATOM     32  C   UNL     1       1.930   7.279  20.166  0.00  0.00    +0.000 A 
ENDBRANCH  26  27
ENDBRANCH  11  26
TORSDOF 5
ENDMDL
