MODEL 1
REMARK VINA RESULT:      -7.4      0.000      0.000
REMARK  Name = 
REMARK  9 active torsions:
REMARK  status: ('A' for Active; 'I' for Inactive)
REMARK    1  A    between atoms: C_1  and  C_2
REMARK    2  A    between atoms: C_2  and  N_3
REMARK    3  A    between atoms: C_5  and  C_6
REMARK    4  A    between atoms: C_6  and  O_8
REMARK    5  A    between atoms: C_14  and  C_15
REMARK    6  A    between atoms: C_16  and  C_17
REMARK    7  A    between atoms: C_19  and  C_20
REMARK    8  A    between atoms: C_20  and  C_21
REMARK    9  A    between atoms: C_20  and  C_22
REMARK                            x       y       z     vdW  Elec       q    Type
REMARK                         _______ _______ _______ _____ _____    ______ ____
ROOT
ATOM      1  N   UNL     1       9.369  13.040  21.750  0.00  0.00    +0.000 N 
ATOM      2  C   UNL     1       9.885  14.318  21.950  0.00  0.00    +0.000 A 
ATOM      3  C   UNL     1      10.517  15.078  21.043  0.00  0.00    +0.000 A 
ATOM      4  C   UNL     1      10.669  14.506  19.695  0.00  0.00    +0.000 A 
ATOM      5  O   UNL     1      11.163  15.183  18.793  0.00  0.00    +0.000 OA
ATOM      6  C   UNL     1      10.225  13.113  19.470  0.00  0.00    +0.000 A 
ATOM      7  C   UNL     1      10.486  12.536  18.222  0.00  0.00    +0.000 A 
ATOM      8  C   UNL     1      10.081  11.232  17.966  0.00  0.00    +0.000 A 
ATOM      9  C   UNL     1       9.403  10.497  18.943  0.00  0.00    +0.000 A 
ATOM     10  C   UNL     1       9.128  11.103  20.188  0.00  0.00    +0.000 A 
ATOM     11  C   UNL     1       9.554  12.412  20.495  0.00  0.00    +0.000 A 
ENDROOT
BRANCH   1  13
ATOM     12  C   UNL     1       7.246  13.024  23.008  0.00  0.00    +0.000 C 
ATOM     13  C   UNL     1       8.610  12.371  22.824  0.00  0.00    +0.000 C 
ENDBRANCH   1  13
BRANCH   3  14
ATOM     14  C   UNL     1      11.015  16.417  21.418  0.00  0.00    +0.000 C 
ATOM     15  O   UNL     1      11.597  16.647  22.467  0.00  0.00    +0.000 OA
BRANCH  14  16
ATOM     16  O   UNL     1      10.782  17.380  20.500  0.00  0.00    +0.000 OA
ATOM     17  H   UNL     1       9.821  17.560  20.341  0.00  0.00    +0.000 HD
ENDBRANCH  14  16
ENDBRANCH   3  14
BRANCH   9  18
ATOM     18  C   UNL     1       8.909   9.134  18.668  0.00  0.00    +0.000 C 
ATOM     19  C   UNL     1       7.943   8.851  17.777  0.00  0.00    +0.000 C 
BRANCH  19  20
ATOM     20  C   UNL     1       7.452   7.523  17.611  0.00  0.00    +0.000 A 
ATOM     21  N   UNL     1       6.673   7.069  16.647  0.00  0.00    +0.000 NA
ATOM     22  C   UNL     1       6.446   5.706  16.782  0.00  0.00    +0.000 A 
ATOM     23  C   UNL     1       7.055   5.130  17.880  0.00  0.00    +0.000 A 
ATOM     24  S   UNL     1       7.928   6.308  18.756  0.00  0.00    +0.000 S 
BRANCH  22  25
ATOM     25  C   UNL     1       5.604   4.991  15.761  0.00  0.00    +0.000 C 
ATOM     26  C   UNL     1       6.464   4.304  14.702  0.00  0.00    +0.000 C 
ATOM     27  C   UNL     1       4.658   3.987  16.422  0.00  0.00    +0.000 C 
ENDBRANCH  22  25
ENDBRANCH  19  20
ENDBRANCH   9  18
TORSDOF 6
ENDMDL
MODEL 2
REMARK VINA RESULT:      -7.3      8.434     11.630
REMARK  Name = 
REMARK  9 active torsions:
REMARK  status: ('A' for Active; 'I' for Inactive)
REMARK    1  A    between atoms: C_1  and  C_2
REMARK    2  A    between atoms: C_2  and  N_3
REMARK    3  A    between atoms: C_5  and  C_6
REMARK    4  A    between atoms: C_6  and  O_8
REMARK    5  A    between atoms: C_14  and  C_15
REMARK    6  A    between atoms: C_16  and  C_17
REMARK    7  A    between atoms: C_19  and  C_20
REMARK    8  A    between atoms: C_20  and  C_21
REMARK    9  A    between atoms: C_20  and  C_22
REMARK                            x       y       z     vdW  Elec       q    Type
REMARK                         _______ _______ _______ _____ _____    ______ ____
ROOT
ATOM      1  N   UNL     1       4.200   5.033  17.856  0.00  0.00    +0.000 N 
ATOM      2  C   UNL     1       4.572   3.754  18.264  0.00  0.00    +0.000 A 
ATOM      3  C   UNL     1       4.106   3.085  19.328  0.00  0.00    +0.000 A 
ATOM      4  C   UNL     1       3.087   3.767  20.141  0.00  0.00    +0.000 A 
ATOM      5  O   UNL     1       2.555   3.178  21.082  0.00  0.00    +0.000 OA
ATOM      6  C   UNL     1       2.738   5.165  19.802  0.00  0.00    +0.000 A 
ATOM      7  C   UNL     1       1.863   5.847  20.654  0.00  0.00    +0.000 A 
ATOM      8  C   UNL     1       1.505   7.159  20.369  0.00  0.00    +0.000 A 
ATOM      9  C   UNL     1       2.004   7.797  19.229  0.00  0.00    +0.000 A 
ATOM     10  C   UNL     1       2.868   7.085  18.369  0.00  0.00    +0.000 A 
ATOM     11  C   UNL     1       3.280   5.765  18.645  0.00  0.00    +0.000 A 
ENDROOT
BRANCH   1  13
ATOM     12  C   UNL     1       5.298   4.495  15.713  0.00  0.00    +0.000 C 
ATOM     13  C   UNL     1       4.733   5.596  16.601  0.00  0.00    +0.000 C 
ENDBRANCH   1  13
BRANCH   3  14
ATOM     14  C   UNL     1       4.612   1.730  19.629  0.00  0.00    +0.000 C 
ATOM     15  O   UNL     1       5.267   1.465  20.626  0.00  0.00    +0.000 OA
BRANCH  14  16
ATOM     16  O   UNL     1       4.288   0.792  18.713  0.00  0.00    +0.000 OA
ATOM     17  H   UNL     1       3.782   1.145  17.937  0.00  0.00    +0.000 HD
ENDBRANCH  14  16
ENDBRANCH   3  14
BRANCH   9  18
ATOM     18  C   UNL     1       1.585   9.167  18.875  0.00  0.00    +0.000 C 
ATOM     19  C   UNL     1       0.979  10.010  19.729  0.00  0.00    +0.000 C 
BRANCH  19  20
ATOM     20  C   UNL     1       0.526  11.295  19.306  0.00  0.00    +0.000 A 
ATOM     21  N   UNL     1       1.150  12.450  19.440  0.00  0.00    +0.000 NA
ATOM     22  C   UNL     1       0.429  13.484  18.857  0.00  0.00    +0.000 A 
ATOM     23  C   UNL     1      -0.769  13.095  18.289  0.00  0.00    +0.000 A 
ATOM     24  S   UNL     1      -0.997  11.414  18.483  0.00  0.00    +0.000 S 
BRANCH  22  25
ATOM     25  C   UNL     1       0.987  14.880  18.877  0.00  0.00    +0.000 C 
ATOM     26  C   UNL     1      -0.112  15.928  18.707  0.00  0.00    +0.000 C 
ATOM     27  C   UNL     1       1.789  15.143  20.152  0.00  0.00    +0.000 C 
ENDBRANCH  22  25
ENDBRANCH  19  20
ENDBRANCH   9  18
TORSDOF 6
ENDMDL
MODEL 3
REMARK VINA RESULT:      -7.2      8.012      8.901
REMARK  Name = 
REMARK  9 active torsions:
REMARK  status: ('A' for Active; 'I' for Inactive)
REMARK    1  A    between atoms: C_1  and  C_2
REMARK    2  A    between atoms: C_2  and  N_3
REMARK    3  A    between atoms: C_5  and  C_6
REMARK    4  A    between atoms: C_6  and  O_8
REMARK    5  A    between atoms: C_14  and  C_15
REMARK    6  A    between atoms: C_16  and  C_17
REMARK    7  A    between atoms: C_19  and  C_20
REMARK    8  A    between atoms: C_20  and  C_21
REMARK    9  A    between atoms: C_20  and  C_22
REMARK                            x       y       z     vdW  Elec       q    Type
REMARK                         _______ _______ _______ _____ _____    ______ ____
ROOT
ATOM      1  N   UNL     1       0.265  11.553  19.884  0.00  0.00    +0.000 N 
ATOM      2  C   UNL     1      -0.398  12.280  20.870  0.00  0.00    +0.000 A 
ATOM      3  C   UNL     1      -0.608  11.902  22.139  0.00  0.00    +0.000 A 
ATOM      4  C   UNL     1      -0.073  10.589  22.534  0.00  0.00    +0.000 A 
ATOM      5  O   UNL     1      -0.156  10.218  23.705  0.00  0.00    +0.000 OA
ATOM      6  C   UNL     1       0.549   9.743  21.491  0.00  0.00    +0.000 A 
ATOM      7  C   UNL     1       0.942   8.448  21.846  0.00  0.00    +0.000 A 
ATOM      8  C   UNL     1       1.535   7.622  20.900  0.00  0.00    +0.000 A 
ATOM      9  C   UNL     1       1.752   8.081  19.597  0.00  0.00    +0.000 A 
ATOM     10  C   UNL     1       1.369   9.399  19.262  0.00  0.00    +0.000 A 
ATOM     11  C   UNL     1       0.734  10.253  20.188  0.00  0.00    +0.000 A 
ENDROOT
BRANCH   1  13
ATOM     12  C   UNL     1      -0.543  13.214  18.247  0.00  0.00    +0.000 C 
ATOM     13  C   UNL     1       0.503  12.151  18.556  0.00  0.00    +0.000 C 
ENDBRANCH   1  13
BRANCH   3  14
ATOM     14  C   UNL     1      -1.341  12.791  23.064  0.00  0.00    +0.000 C 
ATOM     15  O   UNL     1      -0.897  13.857  23.464  0.00  0.00    +0.000 OA
BRANCH  14  16
ATOM     16  O   UNL     1      -2.557  12.336  23.435  0.00  0.00    +0.000 OA
ATOM     17  H   UNL     1      -2.530  11.659  24.159  0.00  0.00    +0.000 HD
ENDBRANCH  14  16
ENDBRANCH   3  14
BRANCH   9  18
ATOM     18  C   UNL     1       2.437   7.242  18.596  0.00  0.00    +0.000 C 
ATOM     19  C   UNL     1       2.864   5.989  18.831  0.00  0.00    +0.000 C 
BRANCH  19  20
ATOM     20  C   UNL     1       3.591   5.255  17.848  0.00  0.00    +0.000 A 
ATOM     21  N   UNL     1       4.393   5.736  16.917  0.00  0.00    +0.000 NA
ATOM     22  C   UNL     1       4.972   4.716  16.174  0.00  0.00    +0.000 A 
ATOM     23  C   UNL     1       4.581   3.444  16.547  0.00  0.00    +0.000 A 
ATOM     24  S   UNL     1       3.477   3.523  17.847  0.00  0.00    +0.000 S 
BRANCH  22  25
ATOM     25  C   UNL     1       5.944   5.057  15.079  0.00  0.00    +0.000 C 
ATOM     26  C   UNL     1       7.379   5.121  15.600  0.00  0.00    +0.000 C 
ATOM     27  C   UNL     1       5.839   4.075  13.911  0.00  0.00    +0.000 C 
ENDBRANCH  22  25
ENDBRANCH  19  20
ENDBRANCH   9  18
TORSDOF 6
ENDMDL
MODEL 4
REMARK VINA RESULT:      -7.2      8.067     11.022
REMARK  Name = 
REMARK  9 active torsions:
REMARK  status: ('A' for Active; 'I' for Inactive)
REMARK    1  A    between atoms: C_1  and  C_2
REMARK    2  A    between atoms: C_2  and  N_3
REMARK    3  A    between atoms: C_5  and  C_6
REMARK    4  A    between atoms: C_6  and  O_8
REMARK    5  A    between atoms: C_14  and  C_15
REMARK    6  A    between atoms: C_16  and  C_17
REMARK    7  A    between atoms: C_19  and  C_20
REMARK    8  A    between atoms: C_20  and  C_21
REMARK    9  A    between atoms: C_20  and  C_22
REMARK                            x       y       z     vdW  Elec       q    Type
REMARK                         _______ _______ _______ _____ _____    ______ ____
ROOT
ATOM      1  N   UNL     1       4.274   4.788  18.715  0.00  0.00    +0.000 N 
ATOM      2  C   UNL     1       5.110   4.298  17.715  0.00  0.00    +0.000 A 
ATOM      3  C   UNL     1       5.478   4.936  16.595  0.00  0.00    +0.000 A 
ATOM      4  C   UNL     1       4.954   6.299  16.410  0.00  0.00    +0.000 A 
ATOM      5  O   UNL     1       5.320   6.973  15.446  0.00  0.00    +0.000 OA
ATOM      6  C   UNL     1       3.984   6.818  17.399  0.00  0.00    +0.000 A 
ATOM      7  C   UNL     1       3.396   8.063  17.150  0.00  0.00    +0.000 A 
ATOM      8  C   UNL     1       2.484   8.590  18.055  0.00  0.00    +0.000 A 
ATOM      9  C   UNL     1       2.158   7.889  19.220  0.00  0.00    +0.000 A 
ATOM     10  C   UNL     1       2.778   6.644  19.466  0.00  0.00    +0.000 A 
ATOM     11  C   UNL     1       3.682   6.063  18.553  0.00  0.00    +0.000 A 
ENDROOT
BRANCH   1  13
ATOM     12  C   UNL     1       4.113   2.507  19.642  0.00  0.00    +0.000 C 
ATOM     13  C   UNL     1       4.042   3.999  19.940  0.00  0.00    +0.000 C 
ENDBRANCH   1  13
BRANCH   3  14
ATOM     14  C   UNL     1       6.370   4.270  15.623  0.00  0.00    +0.000 C 
ATOM     15  O   UNL     1       7.565   4.102  15.814  0.00  0.00    +0.000 OA
BRANCH  14  16
ATOM     16  O   UNL     1       5.758   3.850  14.495  0.00  0.00    +0.000 OA
ATOM     17  H   UNL     1       5.403   4.584  13.932  0.00  0.00    +0.000 HD
ENDBRANCH  14  16
ENDBRANCH   3  14
BRANCH   9  18
ATOM     18  C   UNL     1       1.241   8.460  20.224  0.00  0.00    +0.000 C 
ATOM     19  C   UNL     1       0.877   9.754  20.258  0.00  0.00    +0.000 C 
BRANCH  19  20
ATOM     20  C   UNL     1       0.048  10.265  21.300  0.00  0.00    +0.000 A 
ATOM     21  N   UNL     1      -0.566  11.432  21.339  0.00  0.00    +0.000 NA
ATOM     22  C   UNL     1      -1.332  11.561  22.490  0.00  0.00    +0.000 A 
ATOM     23  C   UNL     1      -1.276  10.473  23.339  0.00  0.00    +0.000 A 
ATOM     24  S   UNL     1      -0.255   9.269  22.689  0.00  0.00    +0.000 S 
BRANCH  22  25
ATOM     25  C   UNL     1      -2.137  12.813  22.707  0.00  0.00    +0.000 C 
ATOM     26  C   UNL     1      -3.425  12.527  23.479  0.00  0.00    +0.000 C 
ATOM     27  C   UNL     1      -1.314  13.891  23.413  0.00  0.00    +0.000 C 
ENDBRANCH  22  25
ENDBRANCH  19  20
ENDBRANCH   9  18
TORSDOF 6
ENDMDL
MODEL 5
REMARK VINA RESULT:      -7.1      8.211      9.431
REMARK  Name = 
REMARK  9 active torsions:
REMARK  status: ('A' for Active; 'I' for Inactive)
REMARK    1  A    between atoms: C_1  and  C_2
REMARK    2  A    between atoms: C_2  and  N_3
REMARK    3  A    between atoms: C_5  and  C_6
REMARK    4  A    between atoms: C_6  and  O_8
REMARK    5  A    between atoms: C_14  and  C_15
REMARK    6  A    between atoms: C_16  and  C_17
REMARK    7  A    between atoms: C_19  and  C_20
REMARK    8  A    between atoms: C_20  and  C_21
REMARK    9  A    between atoms: C_20  and  C_22
REMARK                            x       y       z     vdW  Elec       q    Type
REMARK                         _______ _______ _______ _____ _____    ______ ____
ROOT
ATOM      1  N   UNL     1      -0.772  11.163  19.621  0.00  0.00    +0.000 N 
ATOM      2  C   UNL     1      -1.515  11.874  20.561  0.00  0.00    +0.000 A 
ATOM      3  C   UNL     1      -1.489  11.711  21.891  0.00  0.00    +0.000 A 
ATOM      4  C   UNL     1      -0.574  10.684  22.413  0.00  0.00    +0.000 A 
ATOM      5  O   UNL     1      -0.438  10.540  23.628  0.00  0.00    +0.000 OA
ATOM      6  C   UNL     1       0.157   9.838  21.443  0.00  0.00    +0.000 A 
ATOM      7  C   UNL     1       0.928   8.783  21.944  0.00  0.00    +0.000 A 
ATOM      8  C   UNL     1       1.635   7.969  21.068  0.00  0.00    +0.000 A 
ATOM      9  C   UNL     1       1.590   8.204  19.691  0.00  0.00    +0.000 A 
ATOM     10  C   UNL     1       0.825   9.286  19.205  0.00  0.00    +0.000 A 
ATOM     11  C   UNL     1       0.068  10.113  20.061  0.00  0.00    +0.000 A 
ENDROOT
BRANCH   1  13
ATOM     12  C   UNL     1      -2.137  11.037  17.569  0.00  0.00    +0.000 C 
ATOM     13  C   UNL     1      -0.838  11.529  18.193  0.00  0.00    +0.000 C 
ENDBRANCH   1  13
BRANCH   3  14
ATOM     14  C   UNL     1      -2.350  12.545  22.755  0.00  0.00    +0.000 C 
ATOM     15  O   UNL     1      -3.388  12.143  23.259  0.00  0.00    +0.000 OA
BRANCH  14  16
ATOM     16  O   UNL     1      -1.895  13.801  22.955  0.00  0.00    +0.000 OA
ATOM     17  H   UNL     1      -2.270  14.470  22.327  0.00  0.00    +0.000 HD
ENDBRANCH  14  16
ENDBRANCH   3  14
BRANCH   9  18
ATOM     18  C   UNL     1       2.384   7.389  18.751  0.00  0.00    +0.000 C 
ATOM     19  C   UNL     1       2.540   6.058  18.857  0.00  0.00    +0.000 C 
BRANCH  19  20
ATOM     20  C   UNL     1       3.384   5.336  17.963  0.00  0.00    +0.000 A 
ATOM     21  N   UNL     1       4.194   5.832  17.046  0.00  0.00    +0.000 NA
ATOM     22  C   UNL     1       4.902   4.826  16.402  0.00  0.00    +0.000 A 
ATOM     23  C   UNL     1       4.604   3.549  16.835  0.00  0.00    +0.000 A 
ATOM     24  S   UNL     1       3.423   3.604  18.068  0.00  0.00    +0.000 S 
BRANCH  22  25
ATOM     25  C   UNL     1       5.904   5.188  15.340  0.00  0.00    +0.000 C 
ATOM     26  C   UNL     1       7.327   5.218  15.895  0.00  0.00    +0.000 C 
ATOM     27  C   UNL     1       5.813   4.244  14.141  0.00  0.00    +0.000 C 
ENDBRANCH  22  25
ENDBRANCH  19  20
ENDBRANCH   9  18
TORSDOF 6
ENDMDL
MODEL 6
REMARK VINA RESULT:      -7.1      7.876      9.419
REMARK  Name = 
REMARK  9 active torsions:
REMARK  status: ('A' for Active; 'I' for Inactive)
REMARK    1  A    between atoms: C_1  and  C_2
REMARK    2  A    between atoms: C_2  and  N_3
REMARK    3  A    between atoms: C_5  and  C_6
REMARK    4  A    between atoms: C_6  and  O_8
REMARK    5  A    between atoms: C_14  and  C_15
REMARK    6  A    between atoms: C_16  and  C_17
REMARK    7  A    between atoms: C_19  and  C_20
REMARK    8  A    between atoms: C_20  and  C_21
REMARK    9  A    between atoms: C_20  and  C_22
REMARK                            x       y       z     vdW  Elec       q    Type
REMARK                         _______ _______ _______ _____ _____    ______ ____
ROOT
ATOM      1  N   UNL     1      -0.570  11.470  19.670  0.00  0.00    +0.000 N 
ATOM      2  C   UNL     1      -1.406  12.168  20.538  0.00  0.00    +0.000 A 
ATOM      3  C   UNL     1      -1.590  11.924  21.844  0.00  0.00    +0.000 A 
ATOM      4  C   UNL     1      -0.819  10.811  22.421  0.00  0.00    +0.000 A 
ATOM      5  O   UNL     1      -0.875  10.587  23.631  0.00  0.00    +0.000 OA
ATOM      6  C   UNL     1       0.003   9.981  21.513  0.00  0.00    +0.000 A 
ATOM      7  C   UNL     1       0.632   8.852  22.047  0.00  0.00    +0.000 A 
ATOM      8  C   UNL     1       1.418   8.048  21.231  0.00  0.00    +0.000 A 
ATOM      9  C   UNL     1       1.593   8.368  19.881  0.00  0.00    +0.000 A 
ATOM     10  C   UNL     1       0.968   9.524  19.364  0.00  0.00    +0.000 A 
ATOM     11  C   UNL     1       0.137  10.344  20.155  0.00  0.00    +0.000 A 
ENDROOT
BRANCH   1  13
ATOM     12  C   UNL     1      -0.395  13.447  18.204  0.00  0.00    +0.000 C 
ATOM     13  C   UNL     1      -0.401  11.925  18.277  0.00  0.00    +0.000 C 
ENDBRANCH   1  13
BRANCH   3  14
ATOM     14  C   UNL     1      -2.524  12.757  22.628  0.00  0.00    +0.000 C 
ATOM     15  O   UNL     1      -2.495  13.979  22.631  0.00  0.00    +0.000 OA
BRANCH  14  16
ATOM     16  O   UNL     1      -3.430  12.061  23.347  0.00  0.00    +0.000 OA
ATOM     17  H   UNL     1      -4.279  12.548  23.506  0.00  0.00    +0.000 HD
ENDBRANCH  14  16
ENDBRANCH   3  14
BRANCH   9  18
ATOM     18  C   UNL     1       2.474   7.564  19.013  0.00  0.00    +0.000 C 
ATOM     19  C   UNL     1       2.354   6.235  18.846  0.00  0.00    +0.000 C 
BRANCH  19  20
ATOM     20  C   UNL     1       3.284   5.499  18.055  0.00  0.00    +0.000 A 
ATOM     21  N   UNL     1       4.498   5.868  17.692  0.00  0.00    +0.000 NA
ATOM     22  C   UNL     1       5.135   4.867  16.971  0.00  0.00    +0.000 A 
ATOM     23  C   UNL     1       4.375   3.730  16.777  0.00  0.00    +0.000 A 
ATOM     24  S   UNL     1       2.843   3.912  17.508  0.00  0.00    +0.000 S 
BRANCH  22  25
ATOM     25  C   UNL     1       6.544   5.083  16.490  0.00  0.00    +0.000 C 
ATOM     26  C   UNL     1       6.628   5.056  14.964  0.00  0.00    +0.000 C 
ATOM     27  C   UNL     1       7.129   6.384  17.039  0.00  0.00    +0.000 C 
ENDBRANCH  22  25
ENDBRANCH  19  20
ENDBRANCH   9  18
TORSDOF 6
ENDMDL
MODEL 7
REMARK VINA RESULT:      -7.1      9.277     11.205
REMARK  Name = 
REMARK  9 active torsions:
REMARK  status: ('A' for Active; 'I' for Inactive)
REMARK    1  A    between atoms: C_1  and  C_2
REMARK    2  A    between atoms: C_2  and  N_3
REMARK    3  A    between atoms: C_5  and  C_6
REMARK    4  A    between atoms: C_6  and  O_8
REMARK    5  A    between atoms: C_14  and  C_15
REMARK    6  A    between atoms: C_16  and  C_17
REMARK    7  A    between atoms: C_19  and  C_20
REMARK    8  A    between atoms: C_20  and  C_21
REMARK    9  A    between atoms: C_20  and  C_22
REMARK                            x       y       z     vdW  Elec       q    Type
REMARK                         _______ _______ _______ _____ _____    ______ ____
ROOT
ATOM      1  N   UNL     1      -2.775  10.330  16.849  0.00  0.00    +0.000 N 
ATOM      2  C   UNL     1      -3.950  11.028  17.116  0.00  0.00    +0.000 A 
ATOM      3  C   UNL     1      -4.189  11.822  18.170  0.00  0.00    +0.000 A 
ATOM      4  C   UNL     1      -3.092  11.981  19.138  0.00  0.00    +0.000 A 
ATOM      5  O   UNL     1      -3.214  12.761  20.082  0.00  0.00    +0.000 OA
ATOM      6  C   UNL     1      -1.864  11.178  18.945  0.00  0.00    +0.000 A 
ATOM      7  C   UNL     1      -0.878  11.241  19.935  0.00  0.00    +0.000 A 
ATOM      8  C   UNL     1       0.293  10.507  19.791  0.00  0.00    +0.000 A 
ATOM      9  C   UNL     1       0.497   9.716  18.656  0.00  0.00    +0.000 A 
ATOM     10  C   UNL     1      -0.500   9.683  17.657  0.00  0.00    +0.000 A 
ATOM     11  C   UNL     1      -1.715  10.387  17.785  0.00  0.00    +0.000 A 
ENDROOT
BRANCH   1  13
ATOM     12  C   UNL     1      -3.409  10.244  14.466  0.00  0.00    +0.000 C 
ATOM     13  C   UNL     1      -2.631   9.574  15.591  0.00  0.00    +0.000 C 
ENDBRANCH   1  13
BRANCH   3  14
ATOM     14  C   UNL     1      -5.500  12.488  18.312  0.00  0.00    +0.000 C 
ATOM     15  O   UNL     1      -6.101  12.994  17.376  0.00  0.00    +0.000 OA
BRANCH  14  16
ATOM     16  O   UNL     1      -5.995  12.492  19.568  0.00  0.00    +0.000 OA
ATOM     17  H   UNL     1      -6.844  11.990  19.668  0.00  0.00    +0.000 HD
ENDBRANCH  14  16
ENDBRANCH   3  14
BRANCH   9  18
ATOM     18  C   UNL     1       1.760   8.981  18.455  0.00  0.00    +0.000 C 
ATOM     19  C   UNL     1       1.839   7.644  18.335  0.00  0.00    +0.000 C 
BRANCH  19  20
ATOM     20  C   UNL     1       3.098   6.983  18.220  0.00  0.00    +0.000 A 
ATOM     21  N   UNL     1       4.075   7.256  17.376  0.00  0.00    +0.000 NA
ATOM     22  C   UNL     1       5.174   6.436  17.596  0.00  0.00    +0.000 A 
ATOM     23  C   UNL     1       5.010   5.519  18.615  0.00  0.00    +0.000 A 
ATOM     24  S   UNL     1       3.460   5.684  19.314  0.00  0.00    +0.000 S 
BRANCH  22  25
ATOM     25  C   UNL     1       6.407   6.611  16.753  0.00  0.00    +0.000 C 
ATOM     26  C   UNL     1       7.540   7.267  17.541  0.00  0.00    +0.000 C 
ATOM     27  C   UNL     1       6.868   5.281  16.154  0.00  0.00    +0.000 C 
ENDBRANCH  22  25
ENDBRANCH  19  20
ENDBRANCH   9  18
TORSDOF 6
ENDMDL
MODEL 8
REMARK VINA RESULT:      -7.1      8.195      9.681
REMARK  Name = 
REMARK  9 active torsions:
REMARK  status: ('A' for Active; 'I' for Inactive)
REMARK    1  A    between atoms: C_1  and  C_2
REMARK    2  A    between atoms: C_2  and  N_3
REMARK    3  A    between atoms: C_5  and  C_6
REMARK    4  A    between atoms: C_6  and  O_8
REMARK    5  A    between atoms: C_14  and  C_15
REMARK    6  A    between atoms: C_16  and  C_17
REMARK    7  A    between atoms: C_19  and  C_20
REMARK    8  A    between atoms: C_20  and  C_21
REMARK    9  A    between atoms: C_20  and  C_22
REMARK                            x       y       z     vdW  Elec       q    Type
REMARK                         _______ _______ _______ _____ _____    ______ ____
ROOT
ATOM      1  N   UNL     1      -1.169  11.133  19.400  0.00  0.00    +0.000 N 
ATOM      2  C   UNL     1      -1.979  12.050  20.064  0.00  0.00    +0.000 A 
ATOM      3  C   UNL     1      -2.010  12.285  21.383  0.00  0.00    +0.000 A 
ATOM      4  C   UNL     1      -1.081  11.502  22.214  0.00  0.00    +0.000 A 
ATOM      5  O   UNL     1      -0.996  11.727  23.421  0.00  0.00    +0.000 OA
ATOM      6  C   UNL     1      -0.275  10.447  21.561  0.00  0.00    +0.000 A 
ATOM      7  C   UNL     1       0.511   9.624  22.375  0.00  0.00    +0.000 A 
ATOM      8  C   UNL     1       1.288   8.624  21.802  0.00  0.00    +0.000 A 
ATOM      9  C   UNL     1       1.297   8.444  20.416  0.00  0.00    +0.000 A 
ATOM     10  C   UNL     1       0.515   9.298  19.608  0.00  0.00    +0.000 A 
ATOM     11  C   UNL     1      -0.311  10.300  20.157  0.00  0.00    +0.000 A 
ENDROOT
BRANCH   1  13
ATOM     12  C   UNL     1      -2.302  10.151  17.440  0.00  0.00    +0.000 C 
ATOM     13  C   UNL     1      -1.182  11.062  17.926  0.00  0.00    +0.000 C 
ENDBRANCH   1  13
BRANCH   3  14
ATOM     14  C   UNL     1      -2.939  13.292  21.934  0.00  0.00    +0.000 C 
ATOM     15  O   UNL     1      -2.589  14.408  22.288  0.00  0.00    +0.000 OA
BRANCH  14  16
ATOM     16  O   UNL     1      -4.225  12.886  22.014  0.00  0.00    +0.000 OA
ATOM     17  H   UNL     1      -4.331  11.928  22.245  0.00  0.00    +0.000 HD
ENDBRANCH  14  16
ENDBRANCH   3  14
BRANCH   9  18
ATOM     18  C   UNL     1       2.164   7.430  19.784  0.00  0.00    +0.000 C 
ATOM     19  C   UNL     1       2.488   7.427  18.479  0.00  0.00    +0.000 C 
BRANCH  19  20
ATOM     20  C   UNL     1       3.266   6.376  17.910  0.00  0.00    +0.000 A 
ATOM     21  N   UNL     1       4.374   6.491  17.202  0.00  0.00    +0.000 NA
ATOM     22  C   UNL     1       4.885   5.245  16.862  0.00  0.00    +0.000 A 
ATOM     23  C   UNL     1       4.135   4.176  17.311  0.00  0.00    +0.000 A 
ATOM     24  S   UNL     1       2.771   4.734  18.175  0.00  0.00    +0.000 S 
BRANCH  22  25
ATOM     25  C   UNL     1       6.165   5.160  16.077  0.00  0.00    +0.000 C 
ATOM     26  C   UNL     1       7.316   4.631  16.932  0.00  0.00    +0.000 C 
ATOM     27  C   UNL     1       5.993   4.308  14.819  0.00  0.00    +0.000 C 
ENDBRANCH  22  25
ENDBRANCH  19  20
ENDBRANCH   9  18
TORSDOF 6
ENDMDL
MODEL 9
REMARK VINA RESULT:      -7.0      8.276     11.494
REMARK  Name = 
REMARK  9 active torsions:
REMARK  status: ('A' for Active; 'I' for Inactive)
REMARK    1  A    between atoms: C_1  and  C_2
REMARK    2  A    between atoms: C_2  and  N_3
REMARK    3  A    between atoms: C_5  and  C_6
REMARK    4  A    between atoms: C_6  and  O_8
REMARK    5  A    between atoms: C_14  and  C_15
REMARK    6  A    between atoms: C_16  and  C_17
REMARK    7  A    between atoms: C_19  and  C_20
REMARK    8  A    between atoms: C_20  and  C_21
REMARK    9  A    between atoms: C_20  and  C_22
REMARK                            x       y       z     vdW  Elec       q    Type
REMARK                         _______ _______ _______ _____ _____    ______ ____
ROOT
ATOM      1  N   UNL     1       2.835   5.489  19.804  0.00  0.00    +0.000 N 
ATOM      2  C   UNL     1       3.745   4.714  19.088  0.00  0.00    +0.000 A 
ATOM      3  C   UNL     1       4.432   5.086  17.999  0.00  0.00    +0.000 A 
ATOM      4  C   UNL     1       4.211   6.458  17.516  0.00  0.00    +0.000 A 
ATOM      5  O   UNL     1       4.872   6.892  16.573  0.00  0.00    +0.000 OA
ATOM      6  C   UNL     1       3.179   7.280  18.187  0.00  0.00    +0.000 A 
ATOM      7  C   UNL     1       2.888   8.537  17.644  0.00  0.00    +0.000 A 
ATOM      8  C   UNL     1       1.930   9.343  18.246  0.00  0.00    +0.000 A 
ATOM      9  C   UNL     1       1.263   8.912  19.397  0.00  0.00    +0.000 A 
ATOM     10  C   UNL     1       1.586   7.650  19.943  0.00  0.00    +0.000 A 
ATOM     11  C   UNL     1       2.528   6.791  19.340  0.00  0.00    +0.000 A 
ENDROOT
BRANCH   1  13
ATOM     12  C   UNL     1       1.271   3.826  20.741  0.00  0.00    +0.000 C 
ATOM     13  C   UNL     1       2.232   4.969  21.045  0.00  0.00    +0.000 C 
ENDBRANCH   1  13
BRANCH   3  14
ATOM     14  C   UNL     1       5.358   4.136  17.349  0.00  0.00    +0.000 C 
ATOM     15  O   UNL     1       5.126   3.599  16.276  0.00  0.00    +0.000 OA
BRANCH  14  16
ATOM     16  O   UNL     1       6.499   3.905  18.034  0.00  0.00    +0.000 OA
ATOM     17  H   UNL     1       7.073   3.203  17.634  0.00  0.00    +0.000 HD
ENDBRANCH  14  16
ENDBRANCH   3  14
BRANCH   9  18
ATOM     18  C   UNL     1       0.290   9.779  20.086  0.00  0.00    +0.000 C 
ATOM     19  C   UNL     1      -0.614  10.546  19.451  0.00  0.00    +0.000 C 
BRANCH  19  20
ATOM     20  C   UNL     1      -1.478  11.424  20.169  0.00  0.00    +0.000 A 
ATOM     21  N   UNL     1      -1.435  11.719  21.455  0.00  0.00    +0.000 NA
ATOM     22  C   UNL     1      -2.402  12.658  21.789  0.00  0.00    +0.000 A 
ATOM     23  C   UNL     1      -3.197  13.062  20.734  0.00  0.00    +0.000 A 
ATOM     24  S   UNL     1      -2.728  12.260  19.301  0.00  0.00    +0.000 S 
BRANCH  22  25
ATOM     25  C   UNL     1      -2.498  13.150  23.207  0.00  0.00    +0.000 C 
ATOM     26  C   UNL     1      -2.771  14.652  23.265  0.00  0.00    +0.000 C 
ATOM     27  C   UNL     1      -3.557  12.379  23.996  0.00  0.00    +0.000 C 
ENDBRANCH  22  25
ENDBRANCH  19  20
ENDBRANCH   9  18
TORSDOF 6
ENDMDL
