MODEL 1
REMARK VINA RESULT:      -7.3      0.000      0.000
REMARK  Name = 
REMARK  10 active torsions:
REMARK  status: ('A' for Active; 'I' for Inactive)
REMARK    1  A    between atoms: C_1  and  O_2
REMARK    2  A    between atoms: O_2  and  C_3
REMARK    3  A    between atoms: C_6  and  C_7
REMARK    4  A    between atoms: C_8  and  O_9
REMARK    5  A    between atoms: C_11  and  C_12
REMARK    6  A    between atoms: C_11  and  C_13
REMARK    7  A    between atoms: C_13  and  O_15
REMARK    8  A    between atoms: O_15  and  C_16
REMARK    9  A    between atoms: C_16  and  C_17
REMARK   10  A    between atoms: C_16  and  C_18
REMARK                            x       y       z     vdW  Elec       q    Type
REMARK                         _______ _______ _______ _____ _____    ______ ____
ROOT
ATOM      1  C   UNL     1       1.871   8.329  19.469  0.00  0.00    +0.000 C 
ATOM      2  C   UNL     1       2.318   7.075  19.513  0.00  0.00    +0.000 C 
ATOM      3  C   UNL     1       3.070   6.765  18.339  0.00  0.00    +0.000 C 
ATOM      4  C   UNL     1       3.961   5.784  18.087  0.00  0.00    +0.000 C 
ATOM      5  C   UNL     1       4.619   5.604  16.749  0.00  0.00    +0.000 C 
ATOM      6  O   UNL     1       2.858   7.793  17.416  0.00  0.00    +0.000 OA
ATOM      7  C   UNL     1       2.250   8.800  18.129  0.00  0.00    +0.000 C 
ATOM      8  O   UNL     1       2.015   9.914  17.686  0.00  0.00    +0.000 OA
ENDROOT
BRANCH   1  12
ATOM      9  C   UNL     1      -0.429  10.433  22.374  0.00  0.00    +0.000 A 
ATOM     10  C   UNL     1       0.521   9.490  22.772  0.00  0.00    +0.000 A 
ATOM     11  C   UNL     1       1.283   8.807  21.820  0.00  0.00    +0.000 A 
ATOM     12  C   UNL     1       1.092   9.054  20.457  0.00  0.00    +0.000 A 
ATOM     13  C   UNL     1       0.119   9.975  20.059  0.00  0.00    +0.000 A 
ATOM     14  C   UNL     1      -0.641  10.660  21.015  0.00  0.00    +0.000 A 
BRANCH   9  16
ATOM     15  C   UNL     1      -2.178  11.897  22.987  0.00  0.00    +0.000 C 
ATOM     16  O   UNL     1      -1.120  11.034  23.391  0.00  0.00    +0.000 OA
ENDBRANCH   9  16
ENDBRANCH   1  12
BRANCH   2  17
ATOM     17  O   UNL     1       2.037   6.121  20.445  0.00  0.00    +0.000 OA
ATOM     18  H   UNL     1       1.155   5.752  20.262  0.00  0.00    +0.000 HD
ENDBRANCH   2  17
BRANCH   4  19
ATOM     19  C   UNL     1       4.493   4.948  19.199  0.00  0.00    +0.000 C 
ATOM     20  O   UNL     1       5.629   5.037  19.642  0.00  0.00    +0.000 OA
BRANCH  19  21
ATOM     21  O   UNL     1       3.599   3.986  19.554  0.00  0.00    +0.000 OA
BRANCH  21  22
ATOM     22  C   UNL     1       3.084   3.206  18.455  0.00  0.00    +0.000 C 
ATOM     23  C   UNL     1       3.641   1.792  18.555  0.00  0.00    +0.000 C 
ATOM     24  C   UNL     1       1.562   3.199  18.521  0.00  0.00    +0.000 C 
ENDBRANCH  21  22
ENDBRANCH  19  21
ENDBRANCH   4  19
TORSDOF 6
ENDMDL
MODEL 2
REMARK VINA RESULT:      -7.3      0.388      1.077
REMARK  Name = 
REMARK  10 active torsions:
REMARK  status: ('A' for Active; 'I' for Inactive)
REMARK    1  A    between atoms: C_1  and  O_2
REMARK    2  A    between atoms: O_2  and  C_3
REMARK    3  A    between atoms: C_6  and  C_7
REMARK    4  A    between atoms: C_8  and  O_9
REMARK    5  A    between atoms: C_11  and  C_12
REMARK    6  A    between atoms: C_11  and  C_13
REMARK    7  A    between atoms: C_13  and  O_15
REMARK    8  A    between atoms: O_15  and  C_16
REMARK    9  A    between atoms: C_16  and  C_17
REMARK   10  A    between atoms: C_16  and  C_18
REMARK                            x       y       z     vdW  Elec       q    Type
REMARK                         _______ _______ _______ _____ _____    ______ ____
ROOT
ATOM      1  C   UNL     1       1.939   8.102  19.445  0.00  0.00    +0.000 C 
ATOM      2  C   UNL     1       2.305   6.821  19.440  0.00  0.00    +0.000 C 
ATOM      3  C   UNL     1       3.064   6.516  18.268  0.00  0.00    +0.000 C 
ATOM      4  C   UNL     1       3.896   5.494  17.990  0.00  0.00    +0.000 C 
ATOM      5  C   UNL     1       4.573   5.331  16.659  0.00  0.00    +0.000 C 
ATOM      6  O   UNL     1       2.938   7.597  17.391  0.00  0.00    +0.000 OA
ATOM      7  C   UNL     1       2.378   8.608  18.136  0.00  0.00    +0.000 C 
ATOM      8  O   UNL     1       2.223   9.752  17.740  0.00  0.00    +0.000 OA
ENDROOT
BRANCH   1  12
ATOM      9  C   UNL     1      -0.263  10.263  22.384  0.00  0.00    +0.000 A 
ATOM     10  C   UNL     1      -0.532  10.442  21.026  0.00  0.00    +0.000 A 
ATOM     11  C   UNL     1       0.183   9.726  20.062  0.00  0.00    +0.000 A 
ATOM     12  C   UNL     1       1.184   8.830  20.450  0.00  0.00    +0.000 A 
ATOM     13  C   UNL     1       1.474   8.675  21.808  0.00  0.00    +0.000 A 
ATOM     14  C   UNL     1       0.754   9.392  22.772  0.00  0.00    +0.000 A 
BRANCH   9  16
ATOM     15  C   UNL     1      -1.167  12.389  22.873  0.00  0.00    +0.000 C 
ATOM     16  O   UNL     1      -1.019  11.021  23.236  0.00  0.00    +0.000 OA
ENDBRANCH   9  16
ENDBRANCH   1  12
BRANCH   2  17
ATOM     17  O   UNL     1       1.943   5.847  20.321  0.00  0.00    +0.000 OA
ATOM     18  H   UNL     1       1.983   6.208  21.225  0.00  0.00    +0.000 HD
ENDBRANCH   2  17
BRANCH   4  19
ATOM     19  C   UNL     1       4.349   4.576  19.073  0.00  0.00    +0.000 C 
ATOM     20  O   UNL     1       5.498   4.516  19.486  0.00  0.00    +0.000 OA
BRANCH  19  21
ATOM     21  O   UNL     1       3.352   3.724  19.436  0.00  0.00    +0.000 OA
BRANCH  21  22
ATOM     22  C   UNL     1       2.833   2.912  18.362  0.00  0.00    +0.000 C 
ATOM     23  C   UNL     1       3.550   1.568  18.374  0.00  0.00    +0.000 C 
ATOM     24  C   UNL     1       1.333   2.731  18.557  0.00  0.00    +0.000 C 
ENDBRANCH  21  22
ENDBRANCH  19  21
ENDBRANCH   4  19
TORSDOF 6
ENDMDL
MODEL 3
REMARK VINA RESULT:      -7.0      2.714      4.527
REMARK  Name = 
REMARK  10 active torsions:
REMARK  status: ('A' for Active; 'I' for Inactive)
REMARK    1  A    between atoms: C_1  and  O_2
REMARK    2  A    between atoms: O_2  and  C_3
REMARK    3  A    between atoms: C_6  and  C_7
REMARK    4  A    between atoms: C_8  and  O_9
REMARK    5  A    between atoms: C_11  and  C_12
REMARK    6  A    between atoms: C_11  and  C_13
REMARK    7  A    between atoms: C_13  and  O_15
REMARK    8  A    between atoms: O_15  and  C_16
REMARK    9  A    between atoms: C_16  and  C_17
REMARK   10  A    between atoms: C_16  and  C_18
REMARK                            x       y       z     vdW  Elec       q    Type
REMARK                         _______ _______ _______ _____ _____    ______ ____
ROOT
ATOM      1  C   UNL     1       3.096   6.297  17.976  0.00  0.00    +0.000 C 
ATOM      2  C   UNL     1       4.369   6.204  17.599  0.00  0.00    +0.000 C 
ATOM      3  C   UNL     1       4.655   4.896  17.101  0.00  0.00    +0.000 C 
ATOM      4  C   UNL     1       5.662   4.440  16.330  0.00  0.00    +0.000 C 
ATOM      5  C   UNL     1       5.805   2.994  15.947  0.00  0.00    +0.000 C 
ATOM      6  O   UNL     1       3.573   4.074  17.427  0.00  0.00    +0.000 OA
ATOM      7  C   UNL     1       2.576   4.930  17.833  0.00  0.00    +0.000 C 
ATOM      8  O   UNL     1       1.432   4.585  18.086  0.00  0.00    +0.000 OA
ENDROOT
BRANCH   1  12
ATOM      9  C   UNL     1       1.035   9.680  19.549  0.00  0.00    +0.000 A 
ATOM     10  C   UNL     1       1.396   9.636  18.201  0.00  0.00    +0.000 A 
ATOM     11  C   UNL     1       2.064   8.522  17.682  0.00  0.00    +0.000 A 
ATOM     12  C   UNL     1       2.385   7.445  18.513  0.00  0.00    +0.000 A 
ATOM     13  C   UNL     1       2.051   7.504  19.869  0.00  0.00    +0.000 A 
ATOM     14  C   UNL     1       1.380   8.619  20.386  0.00  0.00    +0.000 A 
BRANCH   9  16
ATOM     15  C   UNL     1      -0.756  11.175  19.185  0.00  0.00    +0.000 C 
ATOM     16  O   UNL     1       0.393  10.820  19.947  0.00  0.00    +0.000 OA
ENDBRANCH   9  16
ENDBRANCH   1  12
BRANCH   2  17
ATOM     17  O   UNL     1       5.354   7.134  17.751  0.00  0.00    +0.000 OA
ATOM     18  H   UNL     1       6.205   6.737  17.491  0.00  0.00    +0.000 HD
ENDBRANCH   2  17
BRANCH   4  19
ATOM     19  C   UNL     1       6.576   5.394  15.643  0.00  0.00    +0.000 C 
ATOM     20  O   UNL     1       7.369   6.122  16.222  0.00  0.00    +0.000 OA
BRANCH  19  21
ATOM     21  O   UNL     1       6.312   5.445  14.309  0.00  0.00    +0.000 OA
BRANCH  21  22
ATOM     22  C   UNL     1       7.221   4.684  13.486  0.00  0.00    +0.000 C 
ATOM     23  C   UNL     1       6.410   3.832  12.519  0.00  0.00    +0.000 C 
ATOM     24  C   UNL     1       8.131   5.647  12.732  0.00  0.00    +0.000 C 
ENDBRANCH  21  22
ENDBRANCH  19  21
ENDBRANCH   4  19
TORSDOF 6
ENDMDL
MODEL 4
REMARK VINA RESULT:      -7.0      2.715      4.400
REMARK  Name = 
REMARK  10 active torsions:
REMARK  status: ('A' for Active; 'I' for Inactive)
REMARK    1  A    between atoms: C_1  and  O_2
REMARK    2  A    between atoms: O_2  and  C_3
REMARK    3  A    between atoms: C_6  and  C_7
REMARK    4  A    between atoms: C_8  and  O_9
REMARK    5  A    between atoms: C_11  and  C_12
REMARK    6  A    between atoms: C_11  and  C_13
REMARK    7  A    between atoms: C_13  and  O_15
REMARK    8  A    between atoms: O_15  and  C_16
REMARK    9  A    between atoms: C_16  and  C_17
REMARK   10  A    between atoms: C_16  and  C_18
REMARK                            x       y       z     vdW  Elec       q    Type
REMARK                         _______ _______ _______ _____ _____    ______ ____
ROOT
ATOM      1  C   UNL     1       3.119   6.330  17.980  0.00  0.00    +0.000 C 
ATOM      2  C   UNL     1       4.389   6.223  17.598  0.00  0.00    +0.000 C 
ATOM      3  C   UNL     1       4.661   4.908  17.109  0.00  0.00    +0.000 C 
ATOM      4  C   UNL     1       5.659   4.436  16.336  0.00  0.00    +0.000 C 
ATOM      5  C   UNL     1       5.788   2.986  15.965  0.00  0.00    +0.000 C 
ATOM      6  O   UNL     1       3.573   4.098  17.448  0.00  0.00    +0.000 OA
ATOM      7  C   UNL     1       2.586   4.966  17.851  0.00  0.00    +0.000 C 
ATOM      8  O   UNL     1       1.440   4.634  18.114  0.00  0.00    +0.000 OA
ENDROOT
BRANCH   1  12
ATOM      9  C   UNL     1       1.049   9.713  19.540  0.00  0.00    +0.000 A 
ATOM     10  C   UNL     1       1.363   8.633  20.368  0.00  0.00    +0.000 A 
ATOM     11  C   UNL     1       2.051   7.527  19.859  0.00  0.00    +0.000 A 
ATOM     12  C   UNL     1       2.421   7.489  18.511  0.00  0.00    +0.000 A 
ATOM     13  C   UNL     1       2.079   8.556  17.677  0.00  0.00    +0.000 A 
ATOM     14  C   UNL     1       1.392   9.664  18.190  0.00  0.00    +0.000 A 
BRANCH   9  16
ATOM     15  C   UNL     1      -0.939  10.984  19.640  0.00  0.00    +0.000 C 
ATOM     16  O   UNL     1       0.369  10.735  20.144  0.00  0.00    +0.000 OA
ENDBRANCH   9  16
ENDBRANCH   1  12
BRANCH   2  17
ATOM     17  O   UNL     1       5.383   7.145  17.736  0.00  0.00    +0.000 OA
ATOM     18  H   UNL     1       6.145   6.870  17.195  0.00  0.00    +0.000 HD
ENDBRANCH   2  17
BRANCH   4  19
ATOM     19  C   UNL     1       6.579   5.376  15.637  0.00  0.00    +0.000 C 
ATOM     20  O   UNL     1       7.385   6.099  16.205  0.00  0.00    +0.000 OA
BRANCH  19  21
ATOM     21  O   UNL     1       6.303   5.424  14.305  0.00  0.00    +0.000 OA
BRANCH  21  22
ATOM     22  C   UNL     1       7.209   4.665  13.476  0.00  0.00    +0.000 C 
ATOM     23  C   UNL     1       6.393   3.796  12.528  0.00  0.00    +0.000 C 
ATOM     24  C   UNL     1       8.098   5.630  12.701  0.00  0.00    +0.000 C 
ENDBRANCH  21  22
ENDBRANCH  19  21
ENDBRANCH   4  19
TORSDOF 6
ENDMDL
MODEL 5
REMARK VINA RESULT:      -6.8      3.747      8.362
REMARK  Name = 
REMARK  10 active torsions:
REMARK  status: ('A' for Active; 'I' for Inactive)
REMARK    1  A    between atoms: C_1  and  O_2
REMARK    2  A    between atoms: O_2  and  C_3
REMARK    3  A    between atoms: C_6  and  C_7
REMARK    4  A    between atoms: C_8  and  O_9
REMARK    5  A    between atoms: C_11  and  C_12
REMARK    6  A    between atoms: C_11  and  C_13
REMARK    7  A    between atoms: C_13  and  O_15
REMARK    8  A    between atoms: O_15  and  C_16
REMARK    9  A    between atoms: C_16  and  C_17
REMARK   10  A    between atoms: C_16  and  C_18
REMARK                            x       y       z     vdW  Elec       q    Type
REMARK                         _______ _______ _______ _____ _____    ______ ____
ROOT
ATOM      1  C   UNL     1       5.054   5.237  16.009  0.00  0.00    +0.000 C 
ATOM      2  C   UNL     1       4.183   4.623  16.807  0.00  0.00    +0.000 C 
ATOM      3  C   UNL     1       3.787   5.480  17.880  0.00  0.00    +0.000 C 
ATOM      4  C   UNL     1       2.725   5.432  18.709  0.00  0.00    +0.000 C 
ATOM      5  C   UNL     1       2.511   6.423  19.818  0.00  0.00    +0.000 C 
ATOM      6  O   UNL     1       4.650   6.579  17.883  0.00  0.00    +0.000 OA
ATOM      7  C   UNL     1       5.328   6.513  16.688  0.00  0.00    +0.000 C 
ATOM      8  O   UNL     1       6.090   7.374  16.279  0.00  0.00    +0.000 OA
ENDROOT
BRANCH   1  12
ATOM      9  C   UNL     1       6.914   3.763  12.471  0.00  0.00    +0.000 A 
ATOM     10  C   UNL     1       5.584   3.446  12.755  0.00  0.00    +0.000 A 
ATOM     11  C   UNL     1       4.971   3.937  13.911  0.00  0.00    +0.000 A 
ATOM     12  C   UNL     1       5.688   4.744  14.800  0.00  0.00    +0.000 A 
ATOM     13  C   UNL     1       7.028   5.035  14.530  0.00  0.00    +0.000 A 
ATOM     14  C   UNL     1       7.640   4.543  13.369  0.00  0.00    +0.000 A 
BRANCH   9  16
ATOM     15  C   UNL     1       7.157   1.833  11.131  0.00  0.00    +0.000 C 
ATOM     16  O   UNL     1       7.412   3.221  11.317  0.00  0.00    +0.000 OA
ENDBRANCH   9  16
ENDBRANCH   1  12
BRANCH   2  17
ATOM     17  O   UNL     1       3.774   3.324  16.752  0.00  0.00    +0.000 OA
ATOM     18  H   UNL     1       4.515   2.773  16.444  0.00  0.00    +0.000 HD
ENDBRANCH   2  17
BRANCH   4  19
ATOM     19  C   UNL     1       1.595   4.504  18.432  0.00  0.00    +0.000 C 
ATOM     20  O   UNL     1       1.072   4.365  17.336  0.00  0.00    +0.000 OA
BRANCH  19  21
ATOM     21  O   UNL     1       1.135   3.941  19.583  0.00  0.00    +0.000 OA
BRANCH  21  22
ATOM     22  C   UNL     1       2.024   2.971  20.175  0.00  0.00    +0.000 C 
ATOM     23  C   UNL     1       1.533   2.651  21.581  0.00  0.00    +0.000 C 
ATOM     24  C   UNL     1       2.042   1.719  19.307  0.00  0.00    +0.000 C 
ENDBRANCH  21  22
ENDBRANCH  19  21
ENDBRANCH   4  19
TORSDOF 6
ENDMDL
MODEL 6
REMARK VINA RESULT:      -6.8      2.001      7.667
REMARK  Name = 
REMARK  10 active torsions:
REMARK  status: ('A' for Active; 'I' for Inactive)
REMARK    1  A    between atoms: C_1  and  O_2
REMARK    2  A    between atoms: O_2  and  C_3
REMARK    3  A    between atoms: C_6  and  C_7
REMARK    4  A    between atoms: C_8  and  O_9
REMARK    5  A    between atoms: C_11  and  C_12
REMARK    6  A    between atoms: C_11  and  C_13
REMARK    7  A    between atoms: C_13  and  O_15
REMARK    8  A    between atoms: O_15  and  C_16
REMARK    9  A    between atoms: C_16  and  C_17
REMARK   10  A    between atoms: C_16  and  C_18
REMARK                            x       y       z     vdW  Elec       q    Type
REMARK                         _______ _______ _______ _____ _____    ______ ____
ROOT
ATOM      1  C   UNL     1       2.915   6.780  18.692  0.00  0.00    +0.000 C 
ATOM      2  C   UNL     1       2.176   7.873  18.510  0.00  0.00    +0.000 C 
ATOM      3  C   UNL     1       1.432   8.183  19.689  0.00  0.00    +0.000 C 
ATOM      4  C   UNL     1       0.833   9.323  20.088  0.00  0.00    +0.000 C 
ATOM      5  C   UNL     1       0.050   9.429  21.366  0.00  0.00    +0.000 C 
ATOM      6  O   UNL     1       1.522   7.083  20.547  0.00  0.00    +0.000 OA
ATOM      7  C   UNL     1       2.515   6.291  20.020  0.00  0.00    +0.000 C 
ATOM      8  O   UNL     1       2.962   5.293  20.562  0.00  0.00    +0.000 OA
ENDROOT
BRANCH   1  12
ATOM      9  C   UNL     1       5.611   4.869  16.002  0.00  0.00    +0.000 A 
ATOM     10  C   UNL     1       4.541   4.161  16.551  0.00  0.00    +0.000 A 
ATOM     11  C   UNL     1       3.650   4.790  17.426  0.00  0.00    +0.000 A 
ATOM     12  C   UNL     1       3.830   6.134  17.767  0.00  0.00    +0.000 A 
ATOM     13  C   UNL     1       4.920   6.833  17.242  0.00  0.00    +0.000 A 
ATOM     14  C   UNL     1       5.810   6.201  16.363  0.00  0.00    +0.000 A 
BRANCH   9  16
ATOM     15  C   UNL     1       5.974   4.049  13.817  0.00  0.00    +0.000 C 
ATOM     16  O   UNL     1       6.421   4.151  15.165  0.00  0.00    +0.000 OA
ENDBRANCH   9  16
ENDBRANCH   1  12
BRANCH   2  17
ATOM     17  O   UNL     1       2.001   8.579  17.358  0.00  0.00    +0.000 OA
ATOM     18  H   UNL     1       2.739   8.384  16.753  0.00  0.00    +0.000 HD
ENDBRANCH   2  17
BRANCH   4  19
ATOM     19  C   UNL     1       1.095  10.601  19.371  0.00  0.00    +0.000 C 
ATOM     20  O   UNL     1       1.741  11.529  19.835  0.00  0.00    +0.000 OA
BRANCH  19  21
ATOM     21  O   UNL     1       0.406  10.651  18.199  0.00  0.00    +0.000 OA
BRANCH  21  22
ATOM     22  C   UNL     1      -1.024  10.777  18.347  0.00  0.00    +0.000 C 
ATOM     23  C   UNL     1      -1.393  12.254  18.291  0.00  0.00    +0.000 C 
ATOM     24  C   UNL     1      -1.709  10.002  17.227  0.00  0.00    +0.000 C 
ENDBRANCH  21  22
ENDBRANCH  19  21
ENDBRANCH   4  19
TORSDOF 6
ENDMDL
MODEL 7
REMARK VINA RESULT:      -6.8      4.766      6.490
REMARK  Name = 
REMARK  10 active torsions:
REMARK  status: ('A' for Active; 'I' for Inactive)
REMARK    1  A    between atoms: C_1  and  O_2
REMARK    2  A    between atoms: O_2  and  C_3
REMARK    3  A    between atoms: C_6  and  C_7
REMARK    4  A    between atoms: C_8  and  O_9
REMARK    5  A    between atoms: C_11  and  C_12
REMARK    6  A    between atoms: C_11  and  C_13
REMARK    7  A    between atoms: C_13  and  O_15
REMARK    8  A    between atoms: O_15  and  C_16
REMARK    9  A    between atoms: C_16  and  C_17
REMARK   10  A    between atoms: C_16  and  C_18
REMARK                            x       y       z     vdW  Elec       q    Type
REMARK                         _______ _______ _______ _____ _____    ______ ____
ROOT
ATOM      1  C   UNL     1       6.126   5.556  17.738  0.00  0.00    +0.000 C 
ATOM      2  C   UNL     1       5.253   4.994  18.571  0.00  0.00    +0.000 C 
ATOM      3  C   UNL     1       4.723   3.790  18.012  0.00  0.00    +0.000 C 
ATOM      4  C   UNL     1       4.094   2.746  18.586  0.00  0.00    +0.000 C 
ATOM      5  C   UNL     1       3.569   1.578  17.801  0.00  0.00    +0.000 C 
ATOM      6  O   UNL     1       5.097   3.749  16.665  0.00  0.00    +0.000 OA
ATOM      7  C   UNL     1       6.048   4.732  16.523  0.00  0.00    +0.000 C 
ATOM      8  O   UNL     1       6.698   4.921  15.506  0.00  0.00    +0.000 OA
ENDROOT
BRANCH   1  12
ATOM      9  C   UNL     1       8.432   9.104  18.241  0.00  0.00    +0.000 A 
ATOM     10  C   UNL     1       7.354   9.082  17.355  0.00  0.00    +0.000 A 
ATOM     11  C   UNL     1       6.590   7.921  17.197  0.00  0.00    +0.000 A 
ATOM     12  C   UNL     1       6.909   6.767  17.918  0.00  0.00    +0.000 A 
ATOM     13  C   UNL     1       8.008   6.781  18.781  0.00  0.00    +0.000 A 
ATOM     14  C   UNL     1       8.769   7.946  18.940  0.00  0.00    +0.000 A 
BRANCH   9  16
ATOM     15  C   UNL     1       9.444  10.732  19.621  0.00  0.00    +0.000 C 
ATOM     16  O   UNL     1       9.111  10.290  18.309  0.00  0.00    +0.000 OA
ENDBRANCH   9  16
ENDBRANCH   1  12
BRANCH   2  17
ATOM     17  O   UNL     1       4.781   5.494  19.748  0.00  0.00    +0.000 OA
ATOM     18  H   UNL     1       3.808   5.502  19.719  0.00  0.00    +0.000 HD
ENDBRANCH   2  17
BRANCH   4  19
ATOM     19  C   UNL     1       4.071   2.603  20.068  0.00  0.00    +0.000 C 
ATOM     20  O   UNL     1       4.726   1.778  20.689  0.00  0.00    +0.000 OA
BRANCH  19  21
ATOM     21  O   UNL     1       3.127   3.413  20.620  0.00  0.00    +0.000 OA
BRANCH  21  22
ATOM     22  C   UNL     1       1.799   2.849  20.657  0.00  0.00    +0.000 C 
ATOM     23  C   UNL     1       1.456   2.500  22.100  0.00  0.00    +0.000 C 
ATOM     24  C   UNL     1       0.813   3.865  20.094  0.00  0.00    +0.000 C 
ENDBRANCH  21  22
ENDBRANCH  19  21
ENDBRANCH   4  19
TORSDOF 6
ENDMDL
MODEL 8
REMARK VINA RESULT:      -6.8      3.714      8.332
REMARK  Name = 
REMARK  10 active torsions:
REMARK  status: ('A' for Active; 'I' for Inactive)
REMARK    1  A    between atoms: C_1  and  O_2
REMARK    2  A    between atoms: O_2  and  C_3
REMARK    3  A    between atoms: C_6  and  C_7
REMARK    4  A    between atoms: C_8  and  O_9
REMARK    5  A    between atoms: C_11  and  C_12
REMARK    6  A    between atoms: C_11  and  C_13
REMARK    7  A    between atoms: C_13  and  O_15
REMARK    8  A    between atoms: O_15  and  C_16
REMARK    9  A    between atoms: C_16  and  C_17
REMARK   10  A    between atoms: C_16  and  C_18
REMARK                            x       y       z     vdW  Elec       q    Type
REMARK                         _______ _______ _______ _____ _____    ______ ____
ROOT
ATOM      1  C   UNL     1       4.998   5.213  16.026  0.00  0.00    +0.000 C 
ATOM      2  C   UNL     1       4.142   4.612  16.850  0.00  0.00    +0.000 C 
ATOM      3  C   UNL     1       3.753   5.492  17.906  0.00  0.00    +0.000 C 
ATOM      4  C   UNL     1       2.703   5.458  18.751  0.00  0.00    +0.000 C 
ATOM      5  C   UNL     1       2.496   6.474  19.838  0.00  0.00    +0.000 C 
ATOM      6  O   UNL     1       4.608   6.598  17.872  0.00  0.00    +0.000 OA
ATOM      7  C   UNL     1       5.271   6.507  16.670  0.00  0.00    +0.000 C 
ATOM      8  O   UNL     1       6.022   7.363  16.230  0.00  0.00    +0.000 OA
ENDROOT
BRANCH   1  12
ATOM      9  C   UNL     1       6.824   3.718  12.479  0.00  0.00    +0.000 A 
ATOM     10  C   UNL     1       7.564   4.473  13.390  0.00  0.00    +0.000 A 
ATOM     11  C   UNL     1       6.968   4.955  14.559  0.00  0.00    +0.000 A 
ATOM     12  C   UNL     1       5.620   4.694  14.820  0.00  0.00    +0.000 A 
ATOM     13  C   UNL     1       4.872   3.965  13.892  0.00  0.00    +0.000 A 
ATOM     14  C   UNL     1       5.472   3.480  12.723  0.00  0.00    +0.000 A 
BRANCH   9  16
ATOM     15  C   UNL     1       7.350   1.931  11.027  0.00  0.00    +0.000 C 
ATOM     16  O   UNL     1       7.508   3.304  11.368  0.00  0.00    +0.000 OA
ENDBRANCH   9  16
ENDBRANCH   1  12
BRANCH   2  17
ATOM     17  O   UNL     1       3.742   3.309  16.833  0.00  0.00    +0.000 OA
ATOM     18  H   UNL     1       2.771   3.279  16.762  0.00  0.00    +0.000 HD
ENDBRANCH   2  17
BRANCH   4  19
ATOM     19  C   UNL     1       1.576   4.514  18.511  0.00  0.00    +0.000 C 
ATOM     20  O   UNL     1       1.042   4.344  17.425  0.00  0.00    +0.000 OA
BRANCH  19  21
ATOM     21  O   UNL     1       1.133   3.979  19.682  0.00  0.00    +0.000 OA
BRANCH  21  22
ATOM     22  C   UNL     1       2.004   2.980  20.254  0.00  0.00    +0.000 C 
ATOM     23  C   UNL     1       1.522   2.661  21.663  0.00  0.00    +0.000 C 
ATOM     24  C   UNL     1       1.978   1.737  19.374  0.00  0.00    +0.000 C 
ENDBRANCH  21  22
ENDBRANCH  19  21
ENDBRANCH   4  19
TORSDOF 6
ENDMDL
MODEL 9
REMARK VINA RESULT:      -6.7      1.326      2.585
REMARK  Name = 
REMARK  10 active torsions:
REMARK  status: ('A' for Active; 'I' for Inactive)
REMARK    1  A    between atoms: C_1  and  O_2
REMARK    2  A    between atoms: O_2  and  C_3
REMARK    3  A    between atoms: C_6  and  C_7
REMARK    4  A    between atoms: C_8  and  O_9
REMARK    5  A    between atoms: C_11  and  C_12
REMARK    6  A    between atoms: C_11  and  C_13
REMARK    7  A    between atoms: C_13  and  O_15
REMARK    8  A    between atoms: O_15  and  C_16
REMARK    9  A    between atoms: C_16  and  C_17
REMARK   10  A    between atoms: C_16  and  C_18
REMARK                            x       y       z     vdW  Elec       q    Type
REMARK                         _______ _______ _______ _____ _____    ______ ____
ROOT
ATOM      1  C   UNL     1       2.016   8.164  19.330  0.00  0.00    +0.000 C 
ATOM      2  C   UNL     1       2.591   6.964  19.379  0.00  0.00    +0.000 C 
ATOM      3  C   UNL     1       3.290   6.687  18.164  0.00  0.00    +0.000 C 
ATOM      4  C   UNL     1       4.257   5.792  17.880  0.00  0.00    +0.000 C 
ATOM      5  C   UNL     1       4.838   5.628  16.504  0.00  0.00    +0.000 C 
ATOM      6  O   UNL     1       2.911   7.654  17.229  0.00  0.00    +0.000 OA
ATOM      7  C   UNL     1       2.253   8.621  17.952  0.00  0.00    +0.000 C 
ATOM      8  O   UNL     1       1.875   9.688  17.494  0.00  0.00    +0.000 OA
ENDROOT
BRANCH   1  12
ATOM      9  C   UNL     1      -0.260  10.184  22.312  0.00  0.00    +0.000 A 
ATOM     10  C   UNL     1      -0.485  10.438  20.958  0.00  0.00    +0.000 A 
ATOM     11  C   UNL     1       0.254   9.768  19.979  0.00  0.00    +0.000 A 
ATOM     12  C   UNL     1       1.236   8.844  20.348  0.00  0.00    +0.000 A 
ATOM     13  C   UNL     1       1.482   8.613  21.705  0.00  0.00    +0.000 A 
ATOM     14  C   UNL     1       0.737   9.283  22.684  0.00  0.00    +0.000 A 
BRANCH   9  16
ATOM     15  C   UNL     1      -1.193  12.281  22.868  0.00  0.00    +0.000 C 
ATOM     16  O   UNL     1      -1.037  10.901  23.181  0.00  0.00    +0.000 OA
ENDBRANCH   9  16
ENDBRANCH   1  12
BRANCH   2  17
ATOM     17  O   UNL     1       2.473   6.022  20.357  0.00  0.00    +0.000 OA
ATOM     18  H   UNL     1       1.738   6.270  20.946  0.00  0.00    +0.000 HD
ENDBRANCH   2  17
BRANCH   4  19
ATOM     19  C   UNL     1       4.947   5.055  18.975  0.00  0.00    +0.000 C 
ATOM     20  O   UNL     1       4.594   3.963  19.396  0.00  0.00    +0.000 OA
BRANCH  19  21
ATOM     21  O   UNL     1       5.926   5.819  19.532  0.00  0.00    +0.000 OA
BRANCH  21  22
ATOM     22  C   UNL     1       7.242   5.607  18.979  0.00  0.00    +0.000 C 
ATOM     23  C   UNL     1       7.656   6.854  18.208  0.00  0.00    +0.000 C 
ATOM     24  C   UNL     1       8.217   5.319  20.115  0.00  0.00    +0.000 C 
ENDBRANCH  21  22
ENDBRANCH  19  21
ENDBRANCH   4  19
TORSDOF 6
ENDMDL
