MODEL 1
REMARK VINA RESULT:      -8.6      0.000      0.000
REMARK  Name = 
REMARK  9 active torsions:
REMARK  status: ('A' for Active; 'I' for Inactive)
REMARK    1  A    between atoms: C_1  and  C_2
REMARK    2  A    between atoms: C_2  and  C_3
REMARK    3  A    between atoms: C_6  and  C_7
REMARK    4  A    between atoms: C_7  and  N_8
REMARK    5  A    between atoms: N_8  and  C_9
REMARK    6  A    between atoms: C_10  and  C_12
REMARK    7  A    between atoms: C_15  and  C_16
REMARK    8  A    between atoms: C_19  and  C_20
REMARK    9  A    between atoms: C_24  and  O_25
REMARK                            x       y       z     vdW  Elec       q    Type
REMARK                         _______ _______ _______ _____ _____    ______ ____
ROOT
ATOM      1  C   UNL     1       3.094   6.099  18.596  0.00  0.00    +0.000 A 
ATOM      2  C   UNL     1       2.814   7.366  18.145  0.00  0.00    +0.000 A 
ATOM      3  N   UNL     1       2.142   8.302  18.851  0.00  0.00    +0.000 NA
ATOM      4  C   UNL     1       1.666   7.928  20.050  0.00  0.00    +0.000 A 
ATOM      5  N   UNL     1       1.835   6.702  20.575  0.00  0.00    +0.000 NA
ATOM      6  C   UNL     1       2.541   5.833  19.836  0.00  0.00    +0.000 A 
ENDROOT
BRANCH   4   7
ATOM      7  C   UNL     1       0.869   8.911  20.807  0.00  0.00    +0.000 A 
ATOM      8  C   UNL     1       0.174   9.945  20.147  0.00  0.00    +0.000 A 
ATOM      9  C   UNL     1      -0.601  10.868  20.857  0.00  0.00    +0.000 A 
ATOM     10  C   UNL     1      -0.707  10.777  22.245  0.00  0.00    +0.000 A 
ATOM     11  C   UNL     1      -1.526  11.759  23.028  0.00  0.00    +0.000 C 
ATOM     12  C   UNL     1      -0.024   9.760  22.915  0.00  0.00    +0.000 A 
ATOM     13  C   UNL     1       0.753   8.843  22.204  0.00  0.00    +0.000 A 
ENDBRANCH   4   7
BRANCH   1  16
ATOM     14  N   UNL     1       5.235   5.081  17.726  0.00  0.00    +0.000 N 
ATOM     15  C   UNL     1       6.125   5.891  18.556  0.00  0.00    +0.000 C 
ATOM     16  C   UNL     1       3.829   5.092  17.797  0.00  0.00    +0.000 C 
ATOM     17  O   UNL     1       3.168   4.268  17.157  0.00  0.00    +0.000 OA
BRANCH  14  18
ATOM     18  C   UNL     1       5.842   3.986  16.938  0.00  0.00    +0.000 C 
BRANCH  18  22
ATOM     19  C   UNL     1       6.897   4.399  13.582  0.00  0.00    +0.000 A 
ATOM     20  N   UNL     1       7.587   5.398  14.087  0.00  0.00    +0.000 NA
ATOM     21  N   UNL     1       7.321   5.406  15.437  0.00  0.00    +0.000 NA
ATOM     22  C   UNL     1       6.465   4.428  15.660  0.00  0.00    +0.000 A 
ATOM     23  O   UNL     1       6.161   3.727  14.522  0.00  0.00    +0.000 OA
BRANCH  19  25
ATOM     24  C   UNL     1       5.634   2.966  12.021  0.00  0.00    +0.000 C 
ATOM     25  C   UNL     1       6.778   3.956  12.178  0.00  0.00    +0.000 C 
ENDBRANCH  19  25
ENDBRANCH  18  22
ENDBRANCH  14  18
ENDBRANCH   1  16
BRANCH   6  26
ATOM     26  O   UNL     1       2.653   4.628  20.452  0.00  0.00    +0.000 OA
ATOM     27  H   UNL     1       2.985   4.077  19.723  0.00  0.00    +0.000 HD
ENDBRANCH   6  26
TORSDOF 6
ENDMDL
MODEL 2
REMARK VINA RESULT:      -8.6      4.519      7.557
REMARK  Name = 
REMARK  9 active torsions:
REMARK  status: ('A' for Active; 'I' for Inactive)
REMARK    1  A    between atoms: C_1  and  C_2
REMARK    2  A    between atoms: C_2  and  C_3
REMARK    3  A    between atoms: C_6  and  C_7
REMARK    4  A    between atoms: C_7  and  N_8
REMARK    5  A    between atoms: N_8  and  C_9
REMARK    6  A    between atoms: C_10  and  C_12
REMARK    7  A    between atoms: C_15  and  C_16
REMARK    8  A    between atoms: C_19  and  C_20
REMARK    9  A    between atoms: C_24  and  O_25
REMARK                            x       y       z     vdW  Elec       q    Type
REMARK                         _______ _______ _______ _____ _____    ______ ____
ROOT
ATOM      1  C   UNL     1       7.188   6.454  17.715  0.00  0.00    +0.000 A 
ATOM      2  C   UNL     1       7.038   7.641  17.040  0.00  0.00    +0.000 A 
ATOM      3  N   UNL     1       7.681   8.788  17.350  0.00  0.00    +0.000 NA
ATOM      4  C   UNL     1       8.470   8.764  18.437  0.00  0.00    +0.000 A 
ATOM      5  N   UNL     1       8.657   7.677  19.204  0.00  0.00    +0.000 NA
ATOM      6  C   UNL     1       8.016   6.563  18.820  0.00  0.00    +0.000 A 
ENDROOT
BRANCH   4   7
ATOM      7  C   UNL     1       9.125  10.024  18.834  0.00  0.00    +0.000 A 
ATOM      8  C   UNL     1       9.295  10.358  20.193  0.00  0.00    +0.000 A 
ATOM      9  C   UNL     1       9.935  11.541  20.576  0.00  0.00    +0.000 A 
ATOM     10  C   UNL     1      10.427  12.420  19.611  0.00  0.00    +0.000 A 
ATOM     11  C   UNL     1      11.109  13.697  19.997  0.00  0.00    +0.000 C 
ATOM     12  C   UNL     1      10.266  12.105  18.259  0.00  0.00    +0.000 A 
ATOM     13  C   UNL     1       9.623  10.925  17.880  0.00  0.00    +0.000 A 
ENDBRANCH   4   7
BRANCH   1  16
ATOM     14  N   UNL     1       5.077   5.081  17.539  0.00  0.00    +0.000 N 
ATOM     15  C   UNL     1       4.169   6.170  17.897  0.00  0.00    +0.000 C 
ATOM     16  C   UNL     1       6.466   5.213  17.356  0.00  0.00    +0.000 C 
ATOM     17  O   UNL     1       7.128   4.268  16.913  0.00  0.00    +0.000 OA
BRANCH  14  18
ATOM     18  C   UNL     1       4.474   3.809  17.084  0.00  0.00    +0.000 C 
BRANCH  18  22
ATOM     19  C   UNL     1       1.799   2.969  19.248  0.00  0.00    +0.000 A 
ATOM     20  N   UNL     1       1.077   3.126  18.161  0.00  0.00    +0.000 NA
ATOM     21  N   UNL     1       1.959   3.454  17.157  0.00  0.00    +0.000 NA
ATOM     22  C   UNL     1       3.157   3.502  17.706  0.00  0.00    +0.000 A 
ATOM     23  O   UNL     1       3.136   3.185  19.040  0.00  0.00    +0.000 OA
BRANCH  19  25
ATOM     24  C   UNL     1       2.135   3.486  21.637  0.00  0.00    +0.000 C 
ATOM     25  C   UNL     1       1.366   2.652  20.625  0.00  0.00    +0.000 C 
ENDBRANCH  19  25
ENDBRANCH  18  22
ENDBRANCH  14  18
ENDBRANCH   1  16
BRANCH   6  26
ATOM     26  O   UNL     1       8.270   5.525  19.658  0.00  0.00    +0.000 OA
ATOM     27  H   UNL     1       8.024   4.770  19.097  0.00  0.00    +0.000 HD
ENDBRANCH   6  26
TORSDOF 6
ENDMDL
MODEL 3
REMARK VINA RESULT:      -8.4      0.718      1.629
REMARK  Name = 
REMARK  9 active torsions:
REMARK  status: ('A' for Active; 'I' for Inactive)
REMARK    1  A    between atoms: C_1  and  C_2
REMARK    2  A    between atoms: C_2  and  C_3
REMARK    3  A    between atoms: C_6  and  C_7
REMARK    4  A    between atoms: C_7  and  N_8
REMARK    5  A    between atoms: N_8  and  C_9
REMARK    6  A    between atoms: C_10  and  C_12
REMARK    7  A    between atoms: C_15  and  C_16
REMARK    8  A    between atoms: C_19  and  C_20
REMARK    9  A    between atoms: C_24  and  O_25
REMARK                            x       y       z     vdW  Elec       q    Type
REMARK                         _______ _______ _______ _____ _____    ______ ____
ROOT
ATOM      1  C   UNL     1       3.168   6.018  18.519  0.00  0.00    +0.000 A 
ATOM      2  C   UNL     1       2.631   5.762  19.757  0.00  0.00    +0.000 A 
ATOM      3  N   UNL     1       1.869   6.630  20.458  0.00  0.00    +0.000 NA
ATOM      4  C   UNL     1       1.688   7.847  19.920  0.00  0.00    +0.000 A 
ATOM      5  N   UNL     1       2.204   8.229  18.739  0.00  0.00    +0.000 NA
ATOM      6  C   UNL     1       2.922   7.307  18.079  0.00  0.00    +0.000 A 
ENDROOT
BRANCH   4   7
ATOM      7  C   UNL     1       0.919   8.834  20.701  0.00  0.00    +0.000 A 
ATOM      8  C   UNL     1       0.886   8.778  22.109  0.00  0.00    +0.000 A 
ATOM      9  C   UNL     1       0.176   9.723  22.857  0.00  0.00    +0.000 A 
ATOM     10  C   UNL     1      -0.514  10.753  22.217  0.00  0.00    +0.000 A 
ATOM     11  C   UNL     1      -1.288  11.773  22.996  0.00  0.00    +0.000 C 
ATOM     12  C   UNL     1      -0.492  10.822  20.822  0.00  0.00    +0.000 A 
ATOM     13  C   UNL     1       0.214   9.874  20.078  0.00  0.00    +0.000 A 
ENDBRANCH   4   7
BRANCH   1  16
ATOM     14  N   UNL     1       5.410   5.112  17.791  0.00  0.00    +0.000 N 
ATOM     15  C   UNL     1       6.202   5.973  18.667  0.00  0.00    +0.000 C 
ATOM     16  C   UNL     1       4.004   5.048  17.775  0.00  0.00    +0.000 C 
ATOM     17  O   UNL     1       3.428   4.185  17.103  0.00  0.00    +0.000 OA
BRANCH  14  18
ATOM     18  C   UNL     1       6.122   4.047  17.051  0.00  0.00    +0.000 C 
BRANCH  18  22
ATOM     19  C   UNL     1       6.911   4.387  13.615  0.00  0.00    +0.000 A 
ATOM     20  N   UNL     1       7.599   5.425  14.037  0.00  0.00    +0.000 NA
ATOM     21  N   UNL     1       7.434   5.467  15.402  0.00  0.00    +0.000 NA
ATOM     22  C   UNL     1       6.633   4.468  15.718  0.00  0.00    +0.000 A 
ATOM     23  O   UNL     1       6.271   3.720  14.627  0.00  0.00    +0.000 OA
BRANCH  19  25
ATOM     24  C   UNL     1       5.337   3.246  12.097  0.00  0.00    +0.000 C 
ATOM     25  C   UNL     1       6.705   3.894  12.238  0.00  0.00    +0.000 C 
ENDBRANCH  19  25
ENDBRANCH  18  22
ENDBRANCH  14  18
ENDBRANCH   1  16
BRANCH   6  26
ATOM     26  O   UNL     1       3.397   7.790  16.903  0.00  0.00    +0.000 OA
ATOM     27  H   UNL     1       4.350   7.627  17.008  0.00  0.00    +0.000 HD
ENDBRANCH   6  26
TORSDOF 6
ENDMDL
MODEL 4
REMARK VINA RESULT:      -8.3      0.860      1.331
REMARK  Name = 
REMARK  9 active torsions:
REMARK  status: ('A' for Active; 'I' for Inactive)
REMARK    1  A    between atoms: C_1  and  C_2
REMARK    2  A    between atoms: C_2  and  C_3
REMARK    3  A    between atoms: C_6  and  C_7
REMARK    4  A    between atoms: C_7  and  N_8
REMARK    5  A    between atoms: N_8  and  C_9
REMARK    6  A    between atoms: C_10  and  C_12
REMARK    7  A    between atoms: C_15  and  C_16
REMARK    8  A    between atoms: C_19  and  C_20
REMARK    9  A    between atoms: C_24  and  O_25
REMARK                            x       y       z     vdW  Elec       q    Type
REMARK                         _______ _______ _______ _____ _____    ______ ____
ROOT
ATOM      1  C   UNL     1       3.468   6.493  18.242  0.00  0.00    +0.000 A 
ATOM      2  C   UNL     1       3.068   7.621  17.568  0.00  0.00    +0.000 A 
ATOM      3  N   UNL     1       2.277   8.586  18.086  0.00  0.00    +0.000 NA
ATOM      4  C   UNL     1       1.807   8.380  19.328  0.00  0.00    +0.000 A 
ATOM      5  N   UNL     1       2.090   7.293  20.066  0.00  0.00    +0.000 NA
ATOM      6  C   UNL     1       2.908   6.391  19.504  0.00  0.00    +0.000 A 
ENDROOT
BRANCH   4   7
ATOM      7  C   UNL     1       0.885   9.386  19.886  0.00  0.00    +0.000 A 
ATOM      8  C   UNL     1       0.553   9.387  21.256  0.00  0.00    +0.000 A 
ATOM      9  C   UNL     1      -0.305  10.351  21.795  0.00  0.00    +0.000 A 
ATOM     10  C   UNL     1      -0.847  11.345  20.980  0.00  0.00    +0.000 A 
ATOM     11  C   UNL     1      -1.775  12.385  21.534  0.00  0.00    +0.000 C 
ATOM     12  C   UNL     1      -0.530  11.358  19.620  0.00  0.00    +0.000 A 
ATOM     13  C   UNL     1       0.323  10.391  19.084  0.00  0.00    +0.000 A 
ENDBRANCH   4   7
BRANCH   1  16
ATOM     14  N   UNL     1       5.690   5.682  17.357  0.00  0.00    +0.000 N 
ATOM     15  C   UNL     1       6.449   6.859  17.778  0.00  0.00    +0.000 C 
ATOM     16  C   UNL     1       4.332   5.449  17.645  0.00  0.00    +0.000 C 
ATOM     17  O   UNL     1       3.817   4.360  17.372  0.00  0.00    +0.000 OA
BRANCH  14  18
ATOM     18  C   UNL     1       6.451   4.535  16.815  0.00  0.00    +0.000 C 
BRANCH  18  22
ATOM     19  C   UNL     1       6.682   4.084  13.310  0.00  0.00    +0.000 A 
ATOM     20  N   UNL     1       7.443   5.154  13.380  0.00  0.00    +0.000 NA
ATOM     21  N   UNL     1       7.499   5.499  14.711  0.00  0.00    +0.000 NA
ATOM     22  C   UNL     1       6.746   4.632  15.360  0.00  0.00    +0.000 A 
ATOM     23  O   UNL     1       6.204   3.684  14.531  0.00  0.00    +0.000 OA
BRANCH  19  25
ATOM     24  C   UNL     1       4.742   3.394  11.951  0.00  0.00    +0.000 C 
ATOM     25  C   UNL     1       6.250   3.315  12.125  0.00  0.00    +0.000 C 
ENDBRANCH  19  25
ENDBRANCH  18  22
ENDBRANCH  14  18
ENDBRANCH   1  16
BRANCH   6  26
ATOM     26  O   UNL     1       3.130   5.335  20.327  0.00  0.00    +0.000 OA
ATOM     27  H   UNL     1       2.733   4.611  19.813  0.00  0.00    +0.000 HD
ENDBRANCH   6  26
TORSDOF 6
ENDMDL
MODEL 5
REMARK VINA RESULT:      -8.2      0.562      1.157
REMARK  Name = 
REMARK  9 active torsions:
REMARK  status: ('A' for Active; 'I' for Inactive)
REMARK    1  A    between atoms: C_1  and  C_2
REMARK    2  A    between atoms: C_2  and  C_3
REMARK    3  A    between atoms: C_6  and  C_7
REMARK    4  A    between atoms: C_7  and  N_8
REMARK    5  A    between atoms: N_8  and  C_9
REMARK    6  A    between atoms: C_10  and  C_12
REMARK    7  A    between atoms: C_15  and  C_16
REMARK    8  A    between atoms: C_19  and  C_20
REMARK    9  A    between atoms: C_24  and  O_25
REMARK                            x       y       z     vdW  Elec       q    Type
REMARK                         _______ _______ _______ _____ _____    ______ ____
ROOT
ATOM      1  C   UNL     1       2.908   6.307  18.861  0.00  0.00    +0.000 A 
ATOM      2  C   UNL     1       2.560   7.521  18.321  0.00  0.00    +0.000 A 
ATOM      3  N   UNL     1       1.883   8.488  18.978  0.00  0.00    +0.000 NA
ATOM      4  C   UNL     1       1.473   8.200  20.224  0.00  0.00    +0.000 A 
ATOM      5  N   UNL     1       1.712   7.029  20.840  0.00  0.00    +0.000 NA
ATOM      6  C   UNL     1       2.419   6.126  20.144  0.00  0.00    +0.000 A 
ENDROOT
BRANCH   4   7
ATOM      7  C   UNL     1       0.671   9.214  20.932  0.00  0.00    +0.000 A 
ATOM      8  C   UNL     1       0.337   9.056  22.293  0.00  0.00    +0.000 A 
ATOM      9  C   UNL     1      -0.407  10.025  22.975  0.00  0.00    +0.000 A 
ATOM     10  C   UNL     1      -0.830  11.180  22.318  0.00  0.00    +0.000 A 
ATOM     11  C   UNL     1      -1.633  12.229  23.027  0.00  0.00    +0.000 C 
ATOM     12  C   UNL     1      -0.509  11.352  20.969  0.00  0.00    +0.000 A 
ATOM     13  C   UNL     1       0.229  10.381  20.289  0.00  0.00    +0.000 A 
ENDBRANCH   4   7
BRANCH   1  16
ATOM     14  N   UNL     1       5.041   5.108  18.238  0.00  0.00    +0.000 N 
ATOM     15  C   UNL     1       5.879   5.785  19.227  0.00  0.00    +0.000 C 
ATOM     16  C   UNL     1       3.648   5.263  18.115  0.00  0.00    +0.000 C 
ATOM     17  O   UNL     1       3.006   4.540  17.345  0.00  0.00    +0.000 OA
BRANCH  14  18
ATOM     18  C   UNL     1       5.644   3.990  17.480  0.00  0.00    +0.000 C 
BRANCH  18  22
ATOM     19  C   UNL     1       6.700   4.309  14.114  0.00  0.00    +0.000 A 
ATOM     20  N   UNL     1       7.397   5.316  14.593  0.00  0.00    +0.000 NA
ATOM     21  N   UNL     1       7.132   5.361  15.943  0.00  0.00    +0.000 NA
ATOM     22  C   UNL     1       6.270   4.394  16.191  0.00  0.00    +0.000 A 
ATOM     23  O   UNL     1       5.960   3.666  15.071  0.00  0.00    +0.000 OA
BRANCH  19  25
ATOM     24  C   UNL     1       7.345   4.735  11.772  0.00  0.00    +0.000 C 
ATOM     25  C   UNL     1       6.577   3.830  12.722  0.00  0.00    +0.000 C 
ENDBRANCH  19  25
ENDBRANCH  18  22
ENDBRANCH  14  18
ENDBRANCH   1  16
BRANCH   6  26
ATOM     26  O   UNL     1       2.604   4.983  20.851  0.00  0.00    +0.000 OA
ATOM     27  H   UNL     1       2.517   4.315  20.150  0.00  0.00    +0.000 HD
ENDBRANCH   6  26
TORSDOF 6
ENDMDL
MODEL 6
REMARK VINA RESULT:      -8.0      0.942      1.485
REMARK  Name = 
REMARK  9 active torsions:
REMARK  status: ('A' for Active; 'I' for Inactive)
REMARK    1  A    between atoms: C_1  and  C_2
REMARK    2  A    between atoms: C_2  and  C_3
REMARK    3  A    between atoms: C_6  and  C_7
REMARK    4  A    between atoms: C_7  and  N_8
REMARK    5  A    between atoms: N_8  and  C_9
REMARK    6  A    between atoms: C_10  and  C_12
REMARK    7  A    between atoms: C_15  and  C_16
REMARK    8  A    between atoms: C_19  and  C_20
REMARK    9  A    between atoms: C_24  and  O_25
REMARK                            x       y       z     vdW  Elec       q    Type
REMARK                         _______ _______ _______ _____ _____    ______ ____
ROOT
ATOM      1  C   UNL     1       3.673   6.040  18.418  0.00  0.00    +0.000 A 
ATOM      2  C   UNL     1       3.200   5.812  19.687  0.00  0.00    +0.000 A 
ATOM      3  N   UNL     1       2.366   6.638  20.357  0.00  0.00    +0.000 NA
ATOM      4  C   UNL     1       2.040   7.790  19.748  0.00  0.00    +0.000 A 
ATOM      5  N   UNL     1       2.480   8.146  18.529  0.00  0.00    +0.000 NA
ATOM      6  C   UNL     1       3.276   7.264  17.906  0.00  0.00    +0.000 A 
ENDROOT
BRANCH   4   7
ATOM      7  C   UNL     1       1.189   8.739  20.491  0.00  0.00    +0.000 A 
ATOM      8  C   UNL     1       0.502   9.774  19.824  0.00  0.00    +0.000 A 
ATOM      9  C   UNL     1      -0.322  10.664  20.520  0.00  0.00    +0.000 A 
ATOM     10  C   UNL     1      -0.488  10.538  21.900  0.00  0.00    +0.000 A 
ATOM     11  C   UNL     1      -1.361  11.485  22.668  0.00  0.00    +0.000 C 
ATOM     12  C   UNL     1       0.187   9.519  22.576  0.00  0.00    +0.000 A 
ATOM     13  C   UNL     1       1.013   8.635  21.879  0.00  0.00    +0.000 A 
ENDBRANCH   4   7
BRANCH   1  16
ATOM     14  N   UNL     1       5.962   5.398  17.566  0.00  0.00    +0.000 N 
ATOM     15  C   UNL     1       6.674   6.482  18.242  0.00  0.00    +0.000 C 
ATOM     16  C   UNL     1       4.590   5.118  17.711  0.00  0.00    +0.000 C 
ATOM     17  O   UNL     1       4.109   4.094  17.214  0.00  0.00    +0.000 OA
BRANCH  14  18
ATOM     18  C   UNL     1       6.774   4.364  16.887  0.00  0.00    +0.000 C 
BRANCH  18  22
ATOM     19  C   UNL     1       6.688   4.104  13.356  0.00  0.00    +0.000 A 
ATOM     20  N   UNL     1       7.333   5.248  13.413  0.00  0.00    +0.000 NA
ATOM     21  N   UNL     1       7.489   5.537  14.749  0.00  0.00    +0.000 NA
ATOM     22  C   UNL     1       6.905   4.561  15.418  0.00  0.00    +0.000 A 
ATOM     23  O   UNL     1       6.385   3.597  14.593  0.00  0.00    +0.000 OA
BRANCH  19  25
ATOM     24  C   UNL     1       4.725   3.524  11.980  0.00  0.00    +0.000 C 
ATOM     25  C   UNL     1       6.222   3.347  12.176  0.00  0.00    +0.000 C 
ENDBRANCH  19  25
ENDBRANCH  18  22
ENDBRANCH  14  18
ENDBRANCH   1  16
BRANCH   6  26
ATOM     26  O   UNL     1       3.665   7.715  16.687  0.00  0.00    +0.000 OA
ATOM     27  H   UNL     1       4.440   8.253  16.926  0.00  0.00    +0.000 HD
ENDBRANCH   6  26
TORSDOF 6
ENDMDL
MODEL 7
REMARK VINA RESULT:      -8.0      1.262      1.358
REMARK  Name = 
REMARK  9 active torsions:
REMARK  status: ('A' for Active; 'I' for Inactive)
REMARK    1  A    between atoms: C_1  and  C_2
REMARK    2  A    between atoms: C_2  and  C_3
REMARK    3  A    between atoms: C_6  and  C_7
REMARK    4  A    between atoms: C_7  and  N_8
REMARK    5  A    between atoms: N_8  and  C_9
REMARK    6  A    between atoms: C_10  and  C_12
REMARK    7  A    between atoms: C_15  and  C_16
REMARK    8  A    between atoms: C_19  and  C_20
REMARK    9  A    between atoms: C_24  and  O_25
REMARK                            x       y       z     vdW  Elec       q    Type
REMARK                         _______ _______ _______ _____ _____    ______ ____
ROOT
ATOM      1  C   UNL     1       2.980   6.889  18.327  0.00  0.00    +0.000 A 
ATOM      2  C   UNL     1       2.631   7.966  17.549  0.00  0.00    +0.000 A 
ATOM      3  N   UNL     1       1.897   9.017  17.975  0.00  0.00    +0.000 NA
ATOM      4  C   UNL     1       1.429   8.957  19.233  0.00  0.00    +0.000 A 
ATOM      5  N   UNL     1       1.663   7.933  20.072  0.00  0.00    +0.000 NA
ATOM      6  C   UNL     1       2.428   6.939  19.596  0.00  0.00    +0.000 A 
ENDROOT
BRANCH   4   7
ATOM      7  C   UNL     1       0.566  10.059  19.695  0.00  0.00    +0.000 A 
ATOM      8  C   UNL     1      -0.664  10.334  19.062  0.00  0.00    +0.000 A 
ATOM      9  C   UNL     1      -1.496  11.365  19.509  0.00  0.00    +0.000 A 
ATOM     10  C   UNL     1      -1.125  12.145  20.604  0.00  0.00    +0.000 A 
ATOM     11  C   UNL     1      -1.998  13.260  21.097  0.00  0.00    +0.000 C 
ATOM     12  C   UNL     1       0.091  11.888  21.242  0.00  0.00    +0.000 A 
ATOM     13  C   UNL     1       0.922  10.860  20.790  0.00  0.00    +0.000 A 
ENDBRANCH   4   7
BRANCH   1  16
ATOM     14  N   UNL     1       5.128   5.898  17.445  0.00  0.00    +0.000 N 
ATOM     15  C   UNL     1       5.938   7.095  17.666  0.00  0.00    +0.000 C 
ATOM     16  C   UNL     1       3.783   5.748  17.831  0.00  0.00    +0.000 C 
ATOM     17  O   UNL     1       3.226   4.650  17.732  0.00  0.00    +0.000 OA
BRANCH  14  18
ATOM     18  C   UNL     1       5.829   4.666  17.022  0.00  0.00    +0.000 C 
BRANCH  18  22
ATOM     19  C   UNL     1       6.584   4.178  13.596  0.00  0.00    +0.000 A 
ATOM     20  N   UNL     1       7.454   5.139  13.813  0.00  0.00    +0.000 NA
ATOM     21  N   UNL     1       7.331   5.479  15.141  0.00  0.00    +0.000 NA
ATOM     22  C   UNL     1       6.374   4.719  15.638  0.00  0.00    +0.000 A 
ATOM     23  O   UNL     1       5.861   3.848  14.712  0.00  0.00    +0.000 OA
BRANCH  19  25
ATOM     24  C   UNL     1       4.762   3.465  12.094  0.00  0.00    +0.000 C 
ATOM     25  C   UNL     1       6.262   3.468  12.341  0.00  0.00    +0.000 C 
ENDBRANCH  19  25
ENDBRANCH  18  22
ENDBRANCH  14  18
ENDBRANCH   1  16
BRANCH   6  26
ATOM     26  O   UNL     1       2.604   5.958  20.518  0.00  0.00    +0.000 OA
ATOM     27  H   UNL     1       2.472   6.455  21.344  0.00  0.00    +0.000 HD
ENDBRANCH   6  26
TORSDOF 6
ENDMDL
MODEL 8
REMARK VINA RESULT:      -7.9      4.506      7.429
REMARK  Name = 
REMARK  9 active torsions:
REMARK  status: ('A' for Active; 'I' for Inactive)
REMARK    1  A    between atoms: C_1  and  C_2
REMARK    2  A    between atoms: C_2  and  C_3
REMARK    3  A    between atoms: C_6  and  C_7
REMARK    4  A    between atoms: C_7  and  N_8
REMARK    5  A    between atoms: N_8  and  C_9
REMARK    6  A    between atoms: C_10  and  C_12
REMARK    7  A    between atoms: C_15  and  C_16
REMARK    8  A    between atoms: C_19  and  C_20
REMARK    9  A    between atoms: C_24  and  O_25
REMARK                            x       y       z     vdW  Elec       q    Type
REMARK                         _______ _______ _______ _____ _____    ______ ____
ROOT
ATOM      1  C   UNL     1       6.830   6.303  18.090  0.00  0.00    +0.000 A 
ATOM      2  C   UNL     1       6.458   7.410  17.368  0.00  0.00    +0.000 A 
ATOM      3  N   UNL     1       7.111   8.593  17.383  0.00  0.00    +0.000 NA
ATOM      4  C   UNL     1       8.158   8.695  18.218  0.00  0.00    +0.000 A 
ATOM      5  N   UNL     1       8.586   7.696  19.009  0.00  0.00    +0.000 NA
ATOM      6  C   UNL     1       7.914   6.539  18.919  0.00  0.00    +0.000 A 
ENDROOT
BRANCH   4   7
ATOM      7  C   UNL     1       8.841   9.999  18.304  0.00  0.00    +0.000 A 
ATOM      8  C   UNL     1       8.391  11.105  17.554  0.00  0.00    +0.000 A 
ATOM      9  C   UNL     1       9.022  12.350  17.647  0.00  0.00    +0.000 A 
ATOM     10  C   UNL     1      10.115  12.524  18.496  0.00  0.00    +0.000 A 
ATOM     11  C   UNL     1      10.811  13.847  18.607  0.00  0.00    +0.000 C 
ATOM     12  C   UNL     1      10.574  11.438  19.245  0.00  0.00    +0.000 A 
ATOM     13  C   UNL     1       9.945  10.195  19.147  0.00  0.00    +0.000 A 
ENDBRANCH   4   7
BRANCH   1  16
ATOM     14  N   UNL     1       5.236   4.682  16.991  0.00  0.00    +0.000 N 
ATOM     15  C   UNL     1       5.125   5.422  15.735  0.00  0.00    +0.000 C 
ATOM     16  C   UNL     1       6.092   5.020  18.056  0.00  0.00    +0.000 C 
ATOM     17  O   UNL     1       6.222   4.254  19.017  0.00  0.00    +0.000 OA
BRANCH  14  18
ATOM     18  C   UNL     1       4.605   3.346  17.057  0.00  0.00    +0.000 C 
BRANCH  18  22
ATOM     19  C   UNL     1       1.706   3.489  19.087  0.00  0.00    +0.000 A 
ATOM     20  N   UNL     1       1.088   3.267  17.948  0.00  0.00    +0.000 NA
ATOM     21  N   UNL     1       2.071   3.160  16.991  0.00  0.00    +0.000 NA
ATOM     22  C   UNL     1       3.222   3.351  17.607  0.00  0.00    +0.000 A 
ATOM     23  O   UNL     1       3.068   3.551  18.955  0.00  0.00    +0.000 OA
BRANCH  19  25
ATOM     24  C   UNL     1       1.658   2.690  21.420  0.00  0.00    +0.000 C 
ATOM     25  C   UNL     1       1.140   3.722  20.432  0.00  0.00    +0.000 C 
ENDBRANCH  19  25
ENDBRANCH  18  22
ENDBRANCH  14  18
ENDBRANCH   1  16
BRANCH   6  26
ATOM     26  O   UNL     1       8.423   5.598  19.755  0.00  0.00    +0.000 OA
ATOM     27  H   UNL     1       9.195   6.068  20.114  0.00  0.00    +0.000 HD
ENDBRANCH   6  26
TORSDOF 6
ENDMDL
MODEL 9
REMARK VINA RESULT:      -7.6      4.560      7.590
REMARK  Name = 
REMARK  9 active torsions:
REMARK  status: ('A' for Active; 'I' for Inactive)
REMARK    1  A    between atoms: C_1  and  C_2
REMARK    2  A    between atoms: C_2  and  C_3
REMARK    3  A    between atoms: C_6  and  C_7
REMARK    4  A    between atoms: C_7  and  N_8
REMARK    5  A    between atoms: N_8  and  C_9
REMARK    6  A    between atoms: C_10  and  C_12
REMARK    7  A    between atoms: C_15  and  C_16
REMARK    8  A    between atoms: C_19  and  C_20
REMARK    9  A    between atoms: C_24  and  O_25
REMARK                            x       y       z     vdW  Elec       q    Type
REMARK                         _______ _______ _______ _____ _____    ______ ____
ROOT
ATOM      1  C   UNL     1       7.111   6.326  17.813  0.00  0.00    +0.000 A 
ATOM      2  C   UNL     1       8.045   6.431  18.814  0.00  0.00    +0.000 A 
ATOM      3  N   UNL     1       8.662   7.578  19.173  0.00  0.00    +0.000 NA
ATOM      4  C   UNL     1       8.378   8.671  18.445  0.00  0.00    +0.000 A 
ATOM      5  N   UNL     1       7.518   8.681  17.412  0.00  0.00    +0.000 NA
ATOM      6  C   UNL     1       6.914   7.516  17.132  0.00  0.00    +0.000 A 
ENDROOT
BRANCH   4   7
ATOM      7  C   UNL     1       9.094   9.917  18.773  0.00  0.00    +0.000 A 
ATOM      8  C   UNL     1       9.568  10.772  17.758  0.00  0.00    +0.000 A 
ATOM      9  C   UNL     1      10.230  11.966  18.063  0.00  0.00    +0.000 A 
ATOM     10  C   UNL     1      10.429  12.340  19.392  0.00  0.00    +0.000 A 
ATOM     11  C   UNL     1      11.142  13.611  19.743  0.00  0.00    +0.000 C 
ATOM     12  C   UNL     1       9.967  11.504  20.411  0.00  0.00    +0.000 A 
ATOM     13  C   UNL     1       9.311  10.310  20.103  0.00  0.00    +0.000 A 
ENDBRANCH   4   7
BRANCH   1  16
ATOM     14  N   UNL     1       5.099   4.802  17.730  0.00  0.00    +0.000 N 
ATOM     15  C   UNL     1       4.148   5.794  18.230  0.00  0.00    +0.000 C 
ATOM     16  C   UNL     1       6.453   5.053  17.439  0.00  0.00    +0.000 C 
ATOM     17  O   UNL     1       7.141   4.190  16.885  0.00  0.00    +0.000 OA
BRANCH  14  18
ATOM     18  C   UNL     1       4.555   3.513  17.250  0.00  0.00    +0.000 C 
BRANCH  18  22
ATOM     19  C   UNL     1       1.843   2.666  19.365  0.00  0.00    +0.000 A 
ATOM     20  N   UNL     1       1.176   2.628  18.233  0.00  0.00    +0.000 NA
ATOM     21  N   UNL     1       2.083   2.925  17.242  0.00  0.00    +0.000 NA
ATOM     22  C   UNL     1       3.237   3.151  17.839  0.00  0.00    +0.000 A 
ATOM     23  O   UNL     1       3.165   2.986  19.198  0.00  0.00    +0.000 OA
BRANCH  19  25
ATOM     24  C   UNL     1       2.054   3.420  21.704  0.00  0.00    +0.000 C 
ATOM     25  C   UNL     1       1.360   2.464  20.747  0.00  0.00    +0.000 C 
ENDBRANCH  19  25
ENDBRANCH  18  22
ENDBRANCH  14  18
ENDBRANCH   1  16
BRANCH   6  26
ATOM     26  O   UNL     1       6.069   7.632  16.076  0.00  0.00    +0.000 OA
ATOM     27  H   UNL     1       5.655   6.751  16.072  0.00  0.00    +0.000 HD
ENDBRANCH   6  26
TORSDOF 6
ENDMDL
