MODEL 1
REMARK VINA RESULT:      -8.8      0.000      0.000
REMARK  Name = 
REMARK  17 active torsions:
REMARK  status: ('A' for Active; 'I' for Inactive)
REMARK    1  A    between atoms: C_1  and  C_2
REMARK    2  A    between atoms: C_2  and  C_3
REMARK    3  A    between atoms: C_2  and  C_4
REMARK    4  A    between atoms: C_4  and  C_5
REMARK    5  A    between atoms: C_5  and  N_6
REMARK    6  A    between atoms: C_5  and  C_19
REMARK    7  A    between atoms: N_6  and  C_7
REMARK    8  A    between atoms: C_7  and  C_8
REMARK    9  A    between atoms: C_7  and  C_16
REMARK   10  A    between atoms: C_8  and  C_9
REMARK   11  A    between atoms: C_9  and  C_10
REMARK   12  A    between atoms: C_16  and  O_18
REMARK   13  A    between atoms: N_21  and  CA_22
REMARK   14  A    between atoms: CA_22  and  CB_23
REMARK   15  A    between atoms: CA_22  and  C_30
REMARK   16  A    between atoms: CB_23  and  CG_24
REMARK   17  A    between atoms: C_30  and  OXT_32
REMARK                            x       y       z     vdW  Elec       q    Type
REMARK                         _______ _______ _______ _____ _____    ______ ____
ROOT
ATOM      1  C   UNK A   1       5.764   5.823  17.113  0.00  0.00    +0.000 C 
ENDROOT
BRANCH   1   2
ATOM      2  C   UNK A   1       4.737   6.059  18.281  0.00  0.00    +0.000 C 
ATOM      3  O   UNK A   1       4.747   5.475  19.356  0.00  0.00    +0.000 OA
ATOM      4  N   PHE A   2       3.759   6.976  17.897  0.00  0.00    +0.000 N 
ATOM      5  H   PHE A   2       3.832   7.232  16.905  0.00  0.00    +0.000 HD
BRANCH   4   6
ATOM      6  CA  PHE A   2       2.384   7.040  18.431  0.00  0.00    +0.000 C 
BRANCH   6   7
ATOM      7  C   PHE A   2       1.946   8.533  18.370  0.00  0.00    +0.000 C 
ATOM      8  O   PHE A   2       2.039   9.206  17.348  0.00  0.00    +0.000 OA
BRANCH   7   9
ATOM      9  OXT PHE A   2       1.329   9.023  19.448  0.00  0.00    +0.000 OA
ATOM     10  HXT PHE A   2       0.354   9.070  19.416  0.00  0.00    +0.000 HD
ENDBRANCH   7   9
ENDBRANCH   6   7
BRANCH   6  11
ATOM     11  CB  PHE A   2       2.226   6.391  19.811  0.00  0.00    +0.000 C 
BRANCH  11  12
ATOM     12  CG  PHE A   2       1.713   4.978  19.728  0.00  0.00    +0.000 A 
ATOM     13  CD1 PHE A   2       1.517   4.214  20.883  0.00  0.00    +0.000 A 
ATOM     14  CE1 PHE A   2       1.203   2.860  20.775  0.00  0.00    +0.000 A 
ATOM     15  CZ  PHE A   2       1.085   2.260  19.522  0.00  0.00    +0.000 A 
ATOM     16  CE2 PHE A   2       1.229   3.025  18.371  0.00  0.00    +0.000 A 
ATOM     17  CD2 PHE A   2       1.520   4.378  18.471  0.00  0.00    +0.000 A 
ENDBRANCH  11  12
ENDBRANCH   6  11
ENDBRANCH   4   6
ENDBRANCH   1   2
BRANCH   1  18
ATOM     18  N   UNK A   1       6.703   6.960  17.081  0.00  0.00    +0.000 NA
ATOM     19  H   UNK A   1       6.230   7.833  17.330  0.00  0.00    +0.000 HD
BRANCH  18  20
ATOM     20  C   UNK A   1       7.963   6.832  17.859  0.00  0.00    +0.000 C 
BRANCH  20  21
ATOM     21  C   UNK A   1       7.885   5.496  18.649  0.00  0.00    +0.000 C 
ATOM     22  O   UNK A   1       8.113   4.392  18.166  0.00  0.00    +0.000 OA
BRANCH  21  23
ATOM     23  O   UNK A   1       7.757   5.669  19.984  0.00  0.00    +0.000 OA
ATOM     24  H   UNK A   1       6.892   5.402  20.347  0.00  0.00    +0.000 HD
ENDBRANCH  21  23
ENDBRANCH  20  21
BRANCH  20  25
ATOM     25  C   UNK A   1       8.297   8.114  18.650  0.00  0.00    +0.000 C 
BRANCH  25  26
ATOM     26  C   UNK A   1       8.401   9.509  18.046  0.00  0.00    +0.000 C 
BRANCH  26  27
ATOM     27  C   UNK A   1       9.342  10.486  18.674  0.00  0.00    +0.000 A 
ATOM     28  C   UNK A   1      10.272  11.128  17.845  0.00  0.00    +0.000 A 
ATOM     29  C   UNK A   1      11.269  11.927  18.396  0.00  0.00    +0.000 A 
ATOM     30  C   UNK A   1      11.323  12.113  19.773  0.00  0.00    +0.000 A 
ATOM     31  C   UNK A   1      10.332  11.571  20.591  0.00  0.00    +0.000 A 
ATOM     32  C   UNK A   1       9.325  10.788  20.039  0.00  0.00    +0.000 A 
ENDBRANCH  26  27
ENDBRANCH  25  26
ENDBRANCH  20  25
ENDBRANCH  18  20
ENDBRANCH   1  18
BRANCH   1  33
ATOM     33  C   UNK A   1       5.321   5.177  15.765  0.00  0.00    +0.000 C 
BRANCH  33  35
ATOM     34  C   UNK A   1       5.330   3.890  13.500  0.00  0.00    +0.000 C 
ATOM     35  C   UNK A   1       6.153   4.478  14.638  0.00  0.00    +0.000 C 
ATOM     36  C   UNK A   1       7.436   5.117  14.080  0.00  0.00    +0.000 C 
ENDBRANCH  33  35
ENDBRANCH   1  33
TORSDOF 15
ENDMDL
MODEL 2
REMARK VINA RESULT:      -8.4      2.802      6.375
REMARK  Name = 
REMARK  17 active torsions:
REMARK  status: ('A' for Active; 'I' for Inactive)
REMARK    1  A    between atoms: C_1  and  C_2
REMARK    2  A    between atoms: C_2  and  C_3
REMARK    3  A    between atoms: C_2  and  C_4
REMARK    4  A    between atoms: C_4  and  C_5
REMARK    5  A    between atoms: C_5  and  N_6
REMARK    6  A    between atoms: C_5  and  C_19
REMARK    7  A    between atoms: N_6  and  C_7
REMARK    8  A    between atoms: C_7  and  C_8
REMARK    9  A    between atoms: C_7  and  C_16
REMARK   10  A    between atoms: C_8  and  C_9
REMARK   11  A    between atoms: C_9  and  C_10
REMARK   12  A    between atoms: C_16  and  O_18
REMARK   13  A    between atoms: N_21  and  CA_22
REMARK   14  A    between atoms: CA_22  and  CB_23
REMARK   15  A    between atoms: CA_22  and  C_30
REMARK   16  A    between atoms: CB_23  and  CG_24
REMARK   17  A    between atoms: C_30  and  OXT_32
REMARK                            x       y       z     vdW  Elec       q    Type
REMARK                         _______ _______ _______ _____ _____    ______ ____
ROOT
ATOM      1  C   UNK A   1       2.391   5.643  20.146  0.00  0.00    +0.000 C 
ENDROOT
BRANCH   1   2
ATOM      2  C   UNK A   1       2.214   7.129  19.662  0.00  0.00    +0.000 C 
ATOM      3  O   UNK A   1       2.868   7.664  18.778  0.00  0.00    +0.000 OA
ATOM      4  N   PHE A   2       1.256   7.785  20.434  0.00  0.00    +0.000 N 
ATOM      5  H   PHE A   2       0.936   7.215  21.226  0.00  0.00    +0.000 HD
BRANCH   4   6
ATOM      6  CA  PHE A   2       1.201   9.240  20.682  0.00  0.00    +0.000 C 
BRANCH   6   7
ATOM      7  C   PHE A   2       1.060   9.429  22.220  0.00  0.00    +0.000 C 
ATOM      8  O   PHE A   2      -0.025   9.598  22.768  0.00  0.00    +0.000 OA
BRANCH   7   9
ATOM      9  OXT PHE A   2       2.166   9.262  22.951  0.00  0.00    +0.000 OA
ATOM     10  HXT PHE A   2       2.156   9.627  23.858  0.00  0.00    +0.000 HD
ENDBRANCH   7   9
ENDBRANCH   6   7
BRANCH   6  11
ATOM     11  CB  PHE A   2       0.135   9.968  19.854  0.00  0.00    +0.000 C 
BRANCH  11  12
ATOM     12  CG  PHE A   2       0.645  11.255  19.263  0.00  0.00    +0.000 A 
ATOM     13  CD1 PHE A   2       1.838  11.289  18.533  0.00  0.00    +0.000 A 
ATOM     14  CE1 PHE A   2       2.376  12.514  18.140  0.00  0.00    +0.000 A 
ATOM     15  CZ  PHE A   2       1.734  13.707  18.471  0.00  0.00    +0.000 A 
ATOM     16  CE2 PHE A   2       0.524  13.677  19.151  0.00  0.00    +0.000 A 
ATOM     17  CD2 PHE A   2      -0.029  12.461  19.527  0.00  0.00    +0.000 A 
ENDBRANCH  11  12
ENDBRANCH   6  11
ENDBRANCH   4   6
ENDBRANCH   1   2
BRANCH   1  18
ATOM     18  N   UNK A   1       3.621   5.099  19.540  0.00  0.00    +0.000 NA
ATOM     19  H   UNK A   1       4.166   4.571  20.228  0.00  0.00    +0.000 HD
BRANCH  18  20
ATOM     20  C   UNK A   1       3.480   4.302  18.293  0.00  0.00    +0.000 C 
BRANCH  20  21
ATOM     21  C   UNK A   1       4.043   2.884  18.585  0.00  0.00    +0.000 C 
ATOM     22  O   UNK A   1       3.764   1.880  17.938  0.00  0.00    +0.000 OA
BRANCH  21  23
ATOM     23  O   UNK A   1       5.052   2.882  19.487  0.00  0.00    +0.000 OA
ATOM     24  H   UNK A   1       5.437   3.760  19.667  0.00  0.00    +0.000 HD
ENDBRANCH  21  23
ENDBRANCH  20  21
BRANCH  20  25
ATOM     25  C   UNK A   1       4.021   5.048  17.056  0.00  0.00    +0.000 C 
BRANCH  25  26
ATOM     26  C   UNK A   1       5.452   4.960  16.542  0.00  0.00    +0.000 C 
BRANCH  26  27
ATOM     27  C   UNK A   1       6.501   5.783  17.216  0.00  0.00    +0.000 A 
ATOM     28  C   UNK A   1       7.179   5.220  18.306  0.00  0.00    +0.000 A 
ATOM     29  C   UNK A   1       8.052   5.993  19.065  0.00  0.00    +0.000 A 
ATOM     30  C   UNK A   1       8.275   7.322  18.722  0.00  0.00    +0.000 A 
ATOM     31  C   UNK A   1       7.694   7.853  17.571  0.00  0.00    +0.000 A 
ATOM     32  C   UNK A   1       6.836   7.076  16.801  0.00  0.00    +0.000 A 
ENDBRANCH  26  27
ENDBRANCH  25  26
ENDBRANCH  20  25
ENDBRANCH  18  20
ENDBRANCH   1  18
BRANCH   1  33
ATOM     33  C   UNK A   1       1.163   4.700  20.328  0.00  0.00    +0.000 C 
BRANCH  33  35
ATOM     34  C   UNK A   1       0.754   2.232  19.603  0.00  0.00    +0.000 C 
ATOM     35  C   UNK A   1       1.077   3.191  20.739  0.00  0.00    +0.000 C 
ATOM     36  C   UNK A   1       2.119   2.559  21.678  0.00  0.00    +0.000 C 
ENDBRANCH  33  35
ENDBRANCH   1  33
TORSDOF 15
ENDMDL
MODEL 3
REMARK VINA RESULT:      -8.3      3.861      7.674
REMARK  Name = 
REMARK  17 active torsions:
REMARK  status: ('A' for Active; 'I' for Inactive)
REMARK    1  A    between atoms: C_1  and  C_2
REMARK    2  A    between atoms: C_2  and  C_3
REMARK    3  A    between atoms: C_2  and  C_4
REMARK    4  A    between atoms: C_4  and  C_5
REMARK    5  A    between atoms: C_5  and  N_6
REMARK    6  A    between atoms: C_5  and  C_19
REMARK    7  A    between atoms: N_6  and  C_7
REMARK    8  A    between atoms: C_7  and  C_8
REMARK    9  A    between atoms: C_7  and  C_16
REMARK   10  A    between atoms: C_8  and  C_9
REMARK   11  A    between atoms: C_9  and  C_10
REMARK   12  A    between atoms: C_16  and  O_18
REMARK   13  A    between atoms: N_21  and  CA_22
REMARK   14  A    between atoms: CA_22  and  CB_23
REMARK   15  A    between atoms: CA_22  and  C_30
REMARK   16  A    between atoms: CB_23  and  CG_24
REMARK   17  A    between atoms: C_30  and  OXT_32
REMARK                            x       y       z     vdW  Elec       q    Type
REMARK                         _______ _______ _______ _____ _____    ______ ____
ROOT
ATOM      1  C   UNK A   1       2.216   5.075  18.739  0.00  0.00    +0.000 C 
ENDROOT
BRANCH   1   2
ATOM      2  C   UNK A   1       3.085   4.461  17.581  0.00  0.00    +0.000 C 
ATOM      3  O   UNK A   1       2.852   3.404  17.012  0.00  0.00    +0.000 OA
ATOM      4  N   PHE A   2       4.208   5.250  17.338  0.00  0.00    +0.000 N 
ATOM      5  H   PHE A   2       4.308   6.008  18.025  0.00  0.00    +0.000 HD
BRANCH   4   6
ATOM      6  CA  PHE A   2       5.490   4.774  16.782  0.00  0.00    +0.000 C 
BRANCH   6   7
ATOM      7  C   PHE A   2       6.450   4.553  17.987  0.00  0.00    +0.000 C 
ATOM      8  O   PHE A   2       7.532   5.123  18.083  0.00  0.00    +0.000 OA
BRANCH   7   9
ATOM      9  OXT PHE A   2       5.985   3.812  18.997  0.00  0.00    +0.000 OA
ATOM     10  HXT PHE A   2       6.650   3.374  19.566  0.00  0.00    +0.000 HD
ENDBRANCH   7   9
ENDBRANCH   6   7
BRANCH   6  11
ATOM     11  CB  PHE A   2       6.057   5.675  15.678  0.00  0.00    +0.000 C 
BRANCH  11  12
ATOM     12  CG  PHE A   2       6.363   4.915  14.415  0.00  0.00    +0.000 A 
ATOM     13  CD1 PHE A   2       7.471   5.245  13.627  0.00  0.00    +0.000 A 
ATOM     14  CE1 PHE A   2       7.640   4.643  12.381  0.00  0.00    +0.000 A 
ATOM     15  CZ  PHE A   2       6.712   3.714  11.913  0.00  0.00    +0.000 A 
ATOM     16  CE2 PHE A   2       5.639   3.344  12.713  0.00  0.00    +0.000 A 
ATOM     17  CD2 PHE A   2       5.475   3.923  13.964  0.00  0.00    +0.000 A 
ENDBRANCH  11  12
ENDBRANCH   6  11
ENDBRANCH   4   6
ENDBRANCH   1   2
BRANCH   1  18
ATOM     18  N   UNK A   1       2.805   6.371  19.127  0.00  0.00    +0.000 NA
ATOM     19  H   UNK A   1       3.690   6.533  18.637  0.00  0.00    +0.000 HD
BRANCH  18  20
ATOM     20  C   UNK A   1       1.944   7.578  19.018  0.00  0.00    +0.000 C 
BRANCH  20  21
ATOM     21  C   UNK A   1       2.511   8.447  17.861  0.00  0.00    +0.000 C 
ATOM     22  O   UNK A   1       2.047   9.528  17.515  0.00  0.00    +0.000 OA
BRANCH  21  23
ATOM     23  O   UNK A   1       3.708   8.014  17.402  0.00  0.00    +0.000 OA
ATOM     24  H   UNK A   1       4.447   8.125  18.028  0.00  0.00    +0.000 HD
ENDBRANCH  21  23
ENDBRANCH  20  21
BRANCH  20  25
ATOM     25  C   UNK A   1       1.717   8.261  20.383  0.00  0.00    +0.000 C 
BRANCH  25  26
ATOM     26  C   UNK A   1       0.445   8.995  20.789  0.00  0.00    +0.000 C 
BRANCH  26  27
ATOM     27  C   UNK A   1       0.117  10.281  20.103  0.00  0.00    +0.000 A 
ATOM     28  C   UNK A   1      -0.975  10.297  19.225  0.00  0.00    +0.000 A 
ATOM     29  C   UNK A   1      -1.232  11.420  18.444  0.00  0.00    +0.000 A 
ATOM     30  C   UNK A   1      -0.417  12.541  18.559  0.00  0.00    +0.000 A 
ATOM     31  C   UNK A   1       0.599  12.573  19.514  0.00  0.00    +0.000 A 
ATOM     32  C   UNK A   1       0.843  11.458  20.307  0.00  0.00    +0.000 A 
ENDBRANCH  26  27
ENDBRANCH  25  26
ENDBRANCH  20  25
ENDBRANCH  18  20
ENDBRANCH   1  18
BRANCH   1  33
ATOM     33  C   UNK A   1       1.590   4.173  19.846  0.00  0.00    +0.000 C 
BRANCH  33  35
ATOM     34  C   UNK A   1       1.286   2.577  21.882  0.00  0.00    +0.000 C 
ATOM     35  C   UNK A   1       2.258   3.316  20.973  0.00  0.00    +0.000 C 
ATOM     36  C   UNK A   1       3.480   2.428  20.681  0.00  0.00    +0.000 C 
ENDBRANCH  33  35
ENDBRANCH   1  33
TORSDOF 15
ENDMDL
MODEL 4
REMARK VINA RESULT:      -8.2      1.284      1.761
REMARK  Name = 
REMARK  17 active torsions:
REMARK  status: ('A' for Active; 'I' for Inactive)
REMARK    1  A    between atoms: C_1  and  C_2
REMARK    2  A    between atoms: C_2  and  C_3
REMARK    3  A    between atoms: C_2  and  C_4
REMARK    4  A    between atoms: C_4  and  C_5
REMARK    5  A    between atoms: C_5  and  N_6
REMARK    6  A    between atoms: C_5  and  C_19
REMARK    7  A    between atoms: N_6  and  C_7
REMARK    8  A    between atoms: C_7  and  C_8
REMARK    9  A    between atoms: C_7  and  C_16
REMARK   10  A    between atoms: C_8  and  C_9
REMARK   11  A    between atoms: C_9  and  C_10
REMARK   12  A    between atoms: C_16  and  O_18
REMARK   13  A    between atoms: N_21  and  CA_22
REMARK   14  A    between atoms: CA_22  and  CB_23
REMARK   15  A    between atoms: CA_22  and  C_30
REMARK   16  A    between atoms: CB_23  and  CG_24
REMARK   17  A    between atoms: C_30  and  OXT_32
REMARK                            x       y       z     vdW  Elec       q    Type
REMARK                         _______ _______ _______ _____ _____    ______ ____
ROOT
ATOM      1  C   UNK A   1       6.076   4.735  17.079  0.00  0.00    +0.000 C 
ENDROOT
BRANCH   1   2
ATOM      2  C   UNK A   1       4.513   4.732  17.261  0.00  0.00    +0.000 C 
ATOM      3  O   UNK A   1       3.736   4.005  16.657  0.00  0.00    +0.000 OA
ATOM      4  N   PHE A   2       4.121   5.729  18.153  0.00  0.00    +0.000 N 
ATOM      5  H   PHE A   2       4.903   6.334  18.430  0.00  0.00    +0.000 HD
BRANCH   4   6
ATOM      6  CA  PHE A   2       2.808   6.405  18.164  0.00  0.00    +0.000 C 
BRANCH   6   7
ATOM      7  C   PHE A   2       3.044   7.857  17.656  0.00  0.00    +0.000 C 
ATOM      8  O   PHE A   2       2.215   8.750  17.799  0.00  0.00    +0.000 OA
BRANCH   7   9
ATOM      9  OXT PHE A   2       4.258   8.135  17.172  0.00  0.00    +0.000 OA
ATOM     10  HXT PHE A   2       4.950   8.367  17.822  0.00  0.00    +0.000 HD
ENDBRANCH   7   9
ENDBRANCH   6   7
BRANCH   6  11
ATOM     11  CB  PHE A   2       2.079   6.316  19.510  0.00  0.00    +0.000 C 
BRANCH  11  12
ATOM     12  CG  PHE A   2       1.923   4.897  19.988  0.00  0.00    +0.000 A 
ATOM     13  CD1 PHE A   2       1.256   3.945  19.211  0.00  0.00    +0.000 A 
ATOM     14  CE1 PHE A   2       0.977   2.686  19.743  0.00  0.00    +0.000 A 
ATOM     15  CZ  PHE A   2       1.358   2.371  21.047  0.00  0.00    +0.000 A 
ATOM     16  CE2 PHE A   2       2.066   3.294  21.805  0.00  0.00    +0.000 A 
ATOM     17  CD2 PHE A   2       2.366   4.541  21.274  0.00  0.00    +0.000 A 
ENDBRANCH  11  12
ENDBRANCH   6  11
ENDBRANCH   4   6
ENDBRANCH   1   2
BRANCH   1  18
ATOM     18  N   UNK A   1       6.589   6.058  17.483  0.00  0.00    +0.000 NA
ATOM     19  H   UNK A   1       5.835   6.649  17.844  0.00  0.00    +0.000 HD
BRANCH  18  20
ATOM     20  C   UNK A   1       7.745   6.091  18.417  0.00  0.00    +0.000 C 
BRANCH  20  21
ATOM     21  C   UNK A   1       7.266   5.484  19.765  0.00  0.00    +0.000 C 
ATOM     22  O   UNK A   1       6.163   4.977  19.944  0.00  0.00    +0.000 OA
BRANCH  21  23
ATOM     23  O   UNK A   1       8.256   5.359  20.678  0.00  0.00    +0.000 OA
ATOM     24  H   UNK A   1       9.134   5.165  20.301  0.00  0.00    +0.000 HD
ENDBRANCH  21  23
ENDBRANCH  20  21
BRANCH  20  25
ATOM     25  C   UNK A   1       8.428   7.474  18.456  0.00  0.00    +0.000 C 
BRANCH  25  26
ATOM     26  C   UNK A   1       7.860   8.745  17.836  0.00  0.00    +0.000 C 
BRANCH  26  27
ATOM     27  C   UNK A   1       8.473  10.055  18.213  0.00  0.00    +0.000 A 
ATOM     28  C   UNK A   1       8.064  11.197  17.513  0.00  0.00    +0.000 A 
ATOM     29  C   UNK A   1       8.710  12.413  17.714  0.00  0.00    +0.000 A 
ATOM     30  C   UNK A   1       9.747  12.499  18.637  0.00  0.00    +0.000 A 
ATOM     31  C   UNK A   1      10.080  11.394  19.420  0.00  0.00    +0.000 A 
ATOM     32  C   UNK A   1       9.422  10.184  19.232  0.00  0.00    +0.000 A 
ENDBRANCH  26  27
ENDBRANCH  25  26
ENDBRANCH  20  25
ENDBRANCH  18  20
ENDBRANCH   1  18
BRANCH   1  33
ATOM     33  C   UNK A   1       6.752   3.999  15.883  0.00  0.00    +0.000 C 
BRANCH  33  35
ATOM     34  C   UNK A   1       5.292   4.280  13.744  0.00  0.00    +0.000 C 
ATOM     35  C   UNK A   1       6.692   4.272  14.342  0.00  0.00    +0.000 C 
ATOM     36  C   UNK A   1       7.546   5.374  13.692  0.00  0.00    +0.000 C 
ENDBRANCH  33  35
ENDBRANCH   1  33
TORSDOF 15
ENDMDL
MODEL 5
REMARK VINA RESULT:      -8.1      3.287      6.610
REMARK  Name = 
REMARK  17 active torsions:
REMARK  status: ('A' for Active; 'I' for Inactive)
REMARK    1  A    between atoms: C_1  and  C_2
REMARK    2  A    between atoms: C_2  and  C_3
REMARK    3  A    between atoms: C_2  and  C_4
REMARK    4  A    between atoms: C_4  and  C_5
REMARK    5  A    between atoms: C_5  and  N_6
REMARK    6  A    between atoms: C_5  and  C_19
REMARK    7  A    between atoms: N_6  and  C_7
REMARK    8  A    between atoms: C_7  and  C_8
REMARK    9  A    between atoms: C_7  and  C_16
REMARK   10  A    between atoms: C_8  and  C_9
REMARK   11  A    between atoms: C_9  and  C_10
REMARK   12  A    between atoms: C_16  and  O_18
REMARK   13  A    between atoms: N_21  and  CA_22
REMARK   14  A    between atoms: CA_22  and  CB_23
REMARK   15  A    between atoms: CA_22  and  C_30
REMARK   16  A    between atoms: CB_23  and  CG_24
REMARK   17  A    between atoms: C_30  and  OXT_32
REMARK                            x       y       z     vdW  Elec       q    Type
REMARK                         _______ _______ _______ _____ _____    ______ ____
ROOT
ATOM      1  C   UNK A   1       2.774   5.636  18.684  0.00  0.00    +0.000 C 
ENDROOT
BRANCH   1   2
ATOM      2  C   UNK A   1       2.151   6.697  19.665  0.00  0.00    +0.000 C 
ATOM      3  O   UNK A   1       1.661   6.443  20.756  0.00  0.00    +0.000 OA
ATOM      4  N   PHE A   2       2.163   7.965  19.086  0.00  0.00    +0.000 N 
ATOM      5  H   PHE A   2       2.469   7.944  18.106  0.00  0.00    +0.000 HD
BRANCH   4   6
ATOM      6  CA  PHE A   2       1.222   9.060  19.396  0.00  0.00    +0.000 C 
BRANCH   6   7
ATOM      7  C   PHE A   2       1.074   9.908  18.100  0.00  0.00    +0.000 C 
ATOM      8  O   PHE A   2       2.040  10.274  17.437  0.00  0.00    +0.000 OA
BRANCH   7   9
ATOM      9  OXT PHE A   2      -0.168  10.111  17.652  0.00  0.00    +0.000 OA
ATOM     10  HXT PHE A   2      -0.860  10.269  18.324  0.00  0.00    +0.000 HD
ENDBRANCH   7   9
ENDBRANCH   6   7
BRANCH   6  11
ATOM     11  CB  PHE A   2       1.603   9.869  20.642  0.00  0.00    +0.000 C 
BRANCH  11  12
ATOM     12  CG  PHE A   2       0.401  10.405  21.371  0.00  0.00    +0.000 A 
ATOM     13  CD1 PHE A   2      -0.178  11.625  21.005  0.00  0.00    +0.000 A 
ATOM     14  CE1 PHE A   2      -1.182  12.182  21.797  0.00  0.00    +0.000 A 
ATOM     15  CZ  PHE A   2      -1.613  11.532  22.952  0.00  0.00    +0.000 A 
ATOM     16  CE2 PHE A   2      -1.078  10.296  23.292  0.00  0.00    +0.000 A 
ATOM     17  CD2 PHE A   2      -0.094   9.725  22.498  0.00  0.00    +0.000 A 
ENDBRANCH  11  12
ENDBRANCH   6  11
ENDBRANCH   4   6
ENDBRANCH   1   2
BRANCH   1  18
ATOM     18  N   UNK A   1       3.881   6.275  17.948  0.00  0.00    +0.000 NA
ATOM     19  H   UNK A   1       4.175   7.142  18.408  0.00  0.00    +0.000 HD
BRANCH  18  20
ATOM     20  C   UNK A   1       5.073   5.442  17.639  0.00  0.00    +0.000 C 
BRANCH  20  21
ATOM     21  C   UNK A   1       6.315   6.374  17.701  0.00  0.00    +0.000 C 
ATOM     22  O   UNK A   1       7.246   6.235  18.488  0.00  0.00    +0.000 OA
BRANCH  21  23
ATOM     23  O   UNK A   1       6.395   7.232  16.659  0.00  0.00    +0.000 OA
ATOM     24  H   UNK A   1       5.551   7.387  16.195  0.00  0.00    +0.000 HD
ENDBRANCH  21  23
ENDBRANCH  20  21
BRANCH  20  25
ATOM     25  C   UNK A   1       4.879   4.589  16.369  0.00  0.00    +0.000 C 
BRANCH  25  26
ATOM     26  C   UNK A   1       5.965   3.746  15.711  0.00  0.00    +0.000 C 
BRANCH  26  27
ATOM     27  C   UNK A   1       6.381   4.088  14.316  0.00  0.00    +0.000 A 
ATOM     28  C   UNK A   1       5.763   3.405  13.261  0.00  0.00    +0.000 A 
ATOM     29  C   UNK A   1       6.218   3.569  11.956  0.00  0.00    +0.000 A 
ATOM     30  C   UNK A   1       7.272   4.438  11.697  0.00  0.00    +0.000 A 
ATOM     31  C   UNK A   1       7.813   5.207  12.727  0.00  0.00    +0.000 A 
ATOM     32  C   UNK A   1       7.346   5.057  14.027  0.00  0.00    +0.000 A 
ENDBRANCH  26  27
ENDBRANCH  25  26
ENDBRANCH  20  25
ENDBRANCH  18  20
ENDBRANCH   1  18
BRANCH   1  33
ATOM     33  C   UNK A   1       1.879   4.597  17.942  0.00  0.00    +0.000 C 
BRANCH  33  35
ATOM     34  C   UNK A   1       2.494   2.066  17.895  0.00  0.00    +0.000 C 
ATOM     35  C   UNK A   1       1.486   3.127  18.314  0.00  0.00    +0.000 C 
ATOM     36  C   UNK A   1       0.906   2.781  19.696  0.00  0.00    +0.000 C 
ENDBRANCH  33  35
ENDBRANCH   1  33
TORSDOF 15
ENDMDL
MODEL 6
REMARK VINA RESULT:      -8.1      2.118      3.575
REMARK  Name = 
REMARK  17 active torsions:
REMARK  status: ('A' for Active; 'I' for Inactive)
REMARK    1  A    between atoms: C_1  and  C_2
REMARK    2  A    between atoms: C_2  and  C_3
REMARK    3  A    between atoms: C_2  and  C_4
REMARK    4  A    between atoms: C_4  and  C_5
REMARK    5  A    between atoms: C_5  and  N_6
REMARK    6  A    between atoms: C_5  and  C_19
REMARK    7  A    between atoms: N_6  and  C_7
REMARK    8  A    between atoms: C_7  and  C_8
REMARK    9  A    between atoms: C_7  and  C_16
REMARK   10  A    between atoms: C_8  and  C_9
REMARK   11  A    between atoms: C_9  and  C_10
REMARK   12  A    between atoms: C_16  and  O_18
REMARK   13  A    between atoms: N_21  and  CA_22
REMARK   14  A    between atoms: CA_22  and  CB_23
REMARK   15  A    between atoms: CA_22  and  C_30
REMARK   16  A    between atoms: CB_23  and  CG_24
REMARK   17  A    between atoms: C_30  and  OXT_32
REMARK                            x       y       z     vdW  Elec       q    Type
REMARK                         _______ _______ _______ _____ _____    ______ ____
ROOT
ATOM      1  C   UNK A   1       5.806   5.088  16.228  0.00  0.00    +0.000 C 
ENDROOT
BRANCH   1   2
ATOM      2  C   UNK A   1       4.852   4.020  16.879  0.00  0.00    +0.000 C 
ATOM      3  O   UNK A   1       4.015   3.363  16.276  0.00  0.00    +0.000 OA
ATOM      4  N   PHE A   2       5.036   3.976  18.261  0.00  0.00    +0.000 N 
ATOM      5  H   PHE A   2       5.668   4.713  18.594  0.00  0.00    +0.000 HD
BRANCH   4   6
ATOM      6  CA  PHE A   2       4.020   3.566  19.251  0.00  0.00    +0.000 C 
BRANCH   6   7
ATOM      7  C   PHE A   2       4.240   2.049  19.521  0.00  0.00    +0.000 C 
ATOM      8  O   PHE A   2       3.689   1.174  18.861  0.00  0.00    +0.000 OA
BRANCH   7   9
ATOM      9  OXT PHE A   2       5.172   1.728  20.424  0.00  0.00    +0.000 OA
ATOM     10  HXT PHE A   2       5.535   0.822  20.380  0.00  0.00    +0.000 HD
ENDBRANCH   7   9
ENDBRANCH   6   7
BRANCH   6  11
ATOM     11  CB  PHE A   2       2.586   3.936  18.853  0.00  0.00    +0.000 C 
BRANCH  11  12
ATOM     12  CG  PHE A   2       2.254   5.371  19.166  0.00  0.00    +0.000 A 
ATOM     13  CD1 PHE A   2       2.495   6.385  18.233  0.00  0.00    +0.000 A 
ATOM     14  CE1 PHE A   2       2.338   7.720  18.603  0.00  0.00    +0.000 A 
ATOM     15  CZ  PHE A   2       1.944   8.053  19.899  0.00  0.00    +0.000 A 
ATOM     16  CE2 PHE A   2       1.654   7.049  20.814  0.00  0.00    +0.000 A 
ATOM     17  CD2 PHE A   2       1.787   5.718  20.446  0.00  0.00    +0.000 A 
ENDBRANCH  11  12
ENDBRANCH   6  11
ENDBRANCH   4   6
ENDBRANCH   1   2
BRANCH   1  18
ATOM     18  N   UNK A   1       6.035   6.168  17.207  0.00  0.00    +0.000 NA
ATOM     19  H   UNK A   1       5.464   6.028  18.046  0.00  0.00    +0.000 HD
BRANCH  18  20
ATOM     20  C   UNK A   1       7.439   6.455  17.598  0.00  0.00    +0.000 C 
BRANCH  20  21
ATOM     21  C   UNK A   1       7.733   5.647  18.892  0.00  0.00    +0.000 C 
ATOM     22  O   UNK A   1       7.137   5.798  19.954  0.00  0.00    +0.000 OA
BRANCH  21  23
ATOM     23  O   UNK A   1       8.560   4.595  18.692  0.00  0.00    +0.000 OA
ATOM     24  H   UNK A   1       9.270   4.506  19.355  0.00  0.00    +0.000 HD
ENDBRANCH  21  23
ENDBRANCH  20  21
BRANCH  20  25
ATOM     25  C   UNK A   1       7.747   7.967  17.612  0.00  0.00    +0.000 C 
BRANCH  25  26
ATOM     26  C   UNK A   1       8.596   8.674  18.661  0.00  0.00    +0.000 C 
BRANCH  26  27
ATOM     27  C   UNK A   1       8.971  10.102  18.426  0.00  0.00    +0.000 A 
ATOM     28  C   UNK A   1       8.002  10.954  17.880  0.00  0.00    +0.000 A 
ATOM     29  C   UNK A   1       8.340  12.248  17.497  0.00  0.00    +0.000 A 
ATOM     30  C   UNK A   1       9.640  12.706  17.687  0.00  0.00    +0.000 A 
ATOM     31  C   UNK A   1      10.577  11.903  18.336  0.00  0.00    +0.000 A 
ATOM     32  C   UNK A   1      10.233  10.617  18.735  0.00  0.00    +0.000 A 
ENDBRANCH  26  27
ENDBRANCH  25  26
ENDBRANCH  20  25
ENDBRANCH  18  20
ENDBRANCH   1  18
BRANCH   1  33
ATOM     33  C   UNK A   1       5.695   5.456  14.717  0.00  0.00    +0.000 C 
BRANCH  33  35
ATOM     34  C   UNK A   1       7.902   5.130  13.372  0.00  0.00    +0.000 C 
ATOM     35  C   UNK A   1       6.408   4.855  13.458  0.00  0.00    +0.000 C 
ATOM     36  C   UNK A   1       6.110   3.424  12.980  0.00  0.00    +0.000 C 
ENDBRANCH  33  35
ENDBRANCH   1  33
TORSDOF 15
ENDMDL
MODEL 7
REMARK VINA RESULT:      -8.1      3.342      8.103
REMARK  Name = 
REMARK  17 active torsions:
REMARK  status: ('A' for Active; 'I' for Inactive)
REMARK    1  A    between atoms: C_1  and  C_2
REMARK    2  A    between atoms: C_2  and  C_3
REMARK    3  A    between atoms: C_2  and  C_4
REMARK    4  A    between atoms: C_4  and  C_5
REMARK    5  A    between atoms: C_5  and  N_6
REMARK    6  A    between atoms: C_5  and  C_19
REMARK    7  A    between atoms: N_6  and  C_7
REMARK    8  A    between atoms: C_7  and  C_8
REMARK    9  A    between atoms: C_7  and  C_16
REMARK   10  A    between atoms: C_8  and  C_9
REMARK   11  A    between atoms: C_9  and  C_10
REMARK   12  A    between atoms: C_16  and  O_18
REMARK   13  A    between atoms: N_21  and  CA_22
REMARK   14  A    between atoms: CA_22  and  CB_23
REMARK   15  A    between atoms: CA_22  and  C_30
REMARK   16  A    between atoms: CB_23  and  CG_24
REMARK   17  A    between atoms: C_30  and  OXT_32
REMARK                            x       y       z     vdW  Elec       q    Type
REMARK                         _______ _______ _______ _____ _____    ______ ____
ROOT
ATOM      1  C   UNK A   1       3.006   7.570  18.527  0.00  0.00    +0.000 C 
ENDROOT
BRANCH   1   2
ATOM      2  C   UNK A   1       3.739   6.395  17.781  0.00  0.00    +0.000 C 
ATOM      3  O   UNK A   1       3.207   5.360  17.405  0.00  0.00    +0.000 OA
ATOM      4  N   PHE A   2       5.103   6.659  17.671  0.00  0.00    +0.000 N 
ATOM      5  H   PHE A   2       5.380   7.503  18.186  0.00  0.00    +0.000 HD
BRANCH   4   6
ATOM      6  CA  PHE A   2       6.170   5.644  17.569  0.00  0.00    +0.000 C 
BRANCH   6   7
ATOM      7  C   PHE A   2       6.854   5.567  18.965  0.00  0.00    +0.000 C 
ATOM      8  O   PHE A   2       6.434   4.850  19.868  0.00  0.00    +0.000 OA
BRANCH   7   9
ATOM      9  OXT PHE A   2       8.014   6.217  19.103  0.00  0.00    +0.000 OA
ATOM     10  HXT PHE A   2       8.166   6.672  19.955  0.00  0.00    +0.000 HD
ENDBRANCH   7   9
ENDBRANCH   6   7
BRANCH   6  11
ATOM     11  CB  PHE A   2       7.137   5.879  16.402  0.00  0.00    +0.000 C 
BRANCH  11  12
ATOM     12  CG  PHE A   2       6.703   5.176  15.144  0.00  0.00    +0.000 A 
ATOM     13  CD1 PHE A   2       5.592   4.326  15.141  0.00  0.00    +0.000 A 
ATOM     14  CE1 PHE A   2       5.309   3.558  14.012  0.00  0.00    +0.000 A 
ATOM     15  CZ  PHE A   2       6.126   3.630  12.885  0.00  0.00    +0.000 A 
ATOM     16  CE2 PHE A   2       7.201   4.511  12.863  0.00  0.00    +0.000 A 
ATOM     17  CD2 PHE A   2       7.476   5.293  13.975  0.00  0.00    +0.000 A 
ENDBRANCH  11  12
ENDBRANCH   6  11
ENDBRANCH   4   6
ENDBRANCH   1   2
BRANCH   1  18
ATOM     18  N   UNK A   1       2.885   7.213  19.953  0.00  0.00    +0.000 NA
ATOM     19  H   UNK A   1       3.279   7.946  20.549  0.00  0.00    +0.000 HD
BRANCH  18  20
ATOM     20  C   UNK A   1       1.540   6.828  20.454  0.00  0.00    +0.000 C 
BRANCH  20  21
ATOM     21  C   UNK A   1       1.022   7.999  21.334  0.00  0.00    +0.000 C 
ATOM     22  O   UNK A   1       1.729   8.900  21.775  0.00  0.00    +0.000 OA
BRANCH  21  23
ATOM     23  O   UNK A   1      -0.328   8.069  21.395  0.00  0.00    +0.000 OA
ATOM     24  H   UNK A   1      -0.767   7.232  21.634  0.00  0.00    +0.000 HD
ENDBRANCH  21  23
ENDBRANCH  20  21
BRANCH  20  25
ATOM     25  C   UNK A   1       1.524   5.411  21.064  0.00  0.00    +0.000 C 
BRANCH  25  26
ATOM     26  C   UNK A   1       0.912   4.183  20.403  0.00  0.00    +0.000 C 
BRANCH  26  27
ATOM     27  C   UNK A   1       1.811   3.266  19.637  0.00  0.00    +0.000 A 
ATOM     28  C   UNK A   1       3.103   3.048  20.133  0.00  0.00    +0.000 A 
ATOM     29  C   UNK A   1       4.031   2.331  19.384  0.00  0.00    +0.000 A 
ATOM     30  C   UNK A   1       3.663   1.803  18.151  0.00  0.00    +0.000 A 
ATOM     31  C   UNK A   1       2.346   1.918  17.706  0.00  0.00    +0.000 A 
ATOM     32  C   UNK A   1       1.414   2.618  18.464  0.00  0.00    +0.000 A 
ENDBRANCH  26  27
ENDBRANCH  25  26
ENDBRANCH  20  25
ENDBRANCH  18  20
ENDBRANCH   1  18
BRANCH   1  33
ATOM     33  C   UNK A   1       1.845   8.359  17.848  0.00  0.00    +0.000 C 
BRANCH  33  35
ATOM     34  C   UNK A   1       1.995  10.954  18.011  0.00  0.00    +0.000 C 
ATOM     35  C   UNK A   1       1.152   9.708  18.240  0.00  0.00    +0.000 C 
ATOM     36  C   UNK A   1      -0.313   9.991  17.867  0.00  0.00    +0.000 C 
ENDBRANCH  33  35
ENDBRANCH   1  33
TORSDOF 15
ENDMDL
MODEL 8
REMARK VINA RESULT:      -8.1      3.921      7.188
REMARK  Name = 
REMARK  17 active torsions:
REMARK  status: ('A' for Active; 'I' for Inactive)
REMARK    1  A    between atoms: C_1  and  C_2
REMARK    2  A    between atoms: C_2  and  C_3
REMARK    3  A    between atoms: C_2  and  C_4
REMARK    4  A    between atoms: C_4  and  C_5
REMARK    5  A    between atoms: C_5  and  N_6
REMARK    6  A    between atoms: C_5  and  C_19
REMARK    7  A    between atoms: N_6  and  C_7
REMARK    8  A    between atoms: C_7  and  C_8
REMARK    9  A    between atoms: C_7  and  C_16
REMARK   10  A    between atoms: C_8  and  C_9
REMARK   11  A    between atoms: C_9  and  C_10
REMARK   12  A    between atoms: C_16  and  O_18
REMARK   13  A    between atoms: N_21  and  CA_22
REMARK   14  A    between atoms: CA_22  and  CB_23
REMARK   15  A    between atoms: CA_22  and  C_30
REMARK   16  A    between atoms: CB_23  and  CG_24
REMARK   17  A    between atoms: C_30  and  OXT_32
REMARK                            x       y       z     vdW  Elec       q    Type
REMARK                         _______ _______ _______ _____ _____    ______ ____
ROOT
ATOM      1  C   UNK A   1       4.992   4.796  17.968  0.00  0.00    +0.000 C 
ENDROOT
BRANCH   1   2
ATOM      2  C   UNK A   1       4.283   6.172  17.687  0.00  0.00    +0.000 C 
ATOM      3  O   UNK A   1       4.733   7.064  16.982  0.00  0.00    +0.000 OA
ATOM      4  N   PHE A   2       3.099   6.271  18.416  0.00  0.00    +0.000 N 
ATOM      5  H   PHE A   2       2.975   5.488  19.069  0.00  0.00    +0.000 HD
BRANCH   4   6
ATOM      6  CA  PHE A   2       2.468   7.529  18.865  0.00  0.00    +0.000 C 
BRANCH   6   7
ATOM      7  C   PHE A   2       1.879   7.258  20.279  0.00  0.00    +0.000 C 
ATOM      8  O   PHE A   2       1.594   6.130  20.671  0.00  0.00    +0.000 OA
BRANCH   7   9
ATOM      9  OXT PHE A   2       1.821   8.298  21.116  0.00  0.00    +0.000 OA
ATOM     10  HXT PHE A   2       1.444   8.132  22.002  0.00  0.00    +0.000 HD
ENDBRANCH   7   9
ENDBRANCH   6   7
BRANCH   6  11
ATOM     11  CB  PHE A   2       1.464   8.108  17.861  0.00  0.00    +0.000 C 
BRANCH  11  12
ATOM     12  CG  PHE A   2       1.182   9.567  18.106  0.00  0.00    +0.000 A 
ATOM     13  CD1 PHE A   2       2.210  10.515  18.068  0.00  0.00    +0.000 A 
ATOM     14  CE1 PHE A   2       1.957  11.829  18.461  0.00  0.00    +0.000 A 
ATOM     15  CZ  PHE A   2       0.685  12.204  18.894  0.00  0.00    +0.000 A 
ATOM     16  CE2 PHE A   2      -0.351  11.280  18.884  0.00  0.00    +0.000 A 
ATOM     17  CD2 PHE A   2      -0.112   9.976  18.474  0.00  0.00    +0.000 A 
ENDBRANCH  11  12
ENDBRANCH   6  11
ENDBRANCH   4   6
ENDBRANCH   1   2
BRANCH   1  18
ATOM     18  N   UNK A   1       5.079   4.048  16.699  0.00  0.00    +0.000 NA
ATOM     19  H   UNK A   1       4.269   4.243  16.103  0.00  0.00    +0.000 HD
BRANCH  18  20
ATOM     20  C   UNK A   1       6.329   4.182  15.906  0.00  0.00    +0.000 C 
BRANCH  20  21
ATOM     21  C   UNK A   1       7.399   4.816  16.837  0.00  0.00    +0.000 C 
ATOM     22  O   UNK A   1       8.119   4.179  17.600  0.00  0.00    +0.000 OA
BRANCH  21  23
ATOM     23  O   UNK A   1       7.631   6.123  16.576  0.00  0.00    +0.000 OA
ATOM     24  H   UNK A   1       8.239   6.560  17.202  0.00  0.00    +0.000 HD
ENDBRANCH  21  23
ENDBRANCH  20  21
BRANCH  20  25
ATOM     25  C   UNK A   1       6.086   4.847  14.536  0.00  0.00    +0.000 C 
BRANCH  25  26
ATOM     26  C   UNK A   1       6.951   4.638  13.299  0.00  0.00    +0.000 C 
BRANCH  26  27
ATOM     27  C   UNK A   1       6.582   3.543  12.351  0.00  0.00    +0.000 A 
ATOM     28  C   UNK A   1       5.222   3.322  12.100  0.00  0.00    +0.000 A 
ATOM     29  C   UNK A   1       4.815   2.222  11.351  0.00  0.00    +0.000 A 
ATOM     30  C   UNK A   1       5.767   1.356  10.824  0.00  0.00    +0.000 A 
ATOM     31  C   UNK A   1       7.125   1.636  10.972  0.00  0.00    +0.000 A 
ATOM     32  C   UNK A   1       7.531   2.745  11.705  0.00  0.00    +0.000 A 
ENDBRANCH  26  27
ENDBRANCH  25  26
ENDBRANCH  20  25
ENDBRANCH  18  20
ENDBRANCH   1  18
BRANCH   1  33
ATOM     33  C   UNK A   1       4.733   4.007  19.288  0.00  0.00    +0.000 C 
BRANCH  33  35
ATOM     34  C   UNK A   1       3.267   2.529  20.853  0.00  0.00    +0.000 C 
ATOM     35  C   UNK A   1       4.034   2.629  19.542  0.00  0.00    +0.000 C 
ATOM     36  C   UNK A   1       3.259   1.909  18.425  0.00  0.00    +0.000 C 
ENDBRANCH  33  35
ENDBRANCH   1  33
TORSDOF 15
ENDMDL
MODEL 9
REMARK VINA RESULT:      -8.1      3.032      6.744
REMARK  Name = 
REMARK  17 active torsions:
REMARK  status: ('A' for Active; 'I' for Inactive)
REMARK    1  A    between atoms: C_1  and  C_2
REMARK    2  A    between atoms: C_2  and  C_3
REMARK    3  A    between atoms: C_2  and  C_4
REMARK    4  A    between atoms: C_4  and  C_5
REMARK    5  A    between atoms: C_5  and  N_6
REMARK    6  A    between atoms: C_5  and  C_19
REMARK    7  A    between atoms: N_6  and  C_7
REMARK    8  A    between atoms: C_7  and  C_8
REMARK    9  A    between atoms: C_7  and  C_16
REMARK   10  A    between atoms: C_8  and  C_9
REMARK   11  A    between atoms: C_9  and  C_10
REMARK   12  A    between atoms: C_16  and  O_18
REMARK   13  A    between atoms: N_21  and  CA_22
REMARK   14  A    between atoms: CA_22  and  CB_23
REMARK   15  A    between atoms: CA_22  and  C_30
REMARK   16  A    between atoms: CB_23  and  CG_24
REMARK   17  A    between atoms: C_30  and  OXT_32
REMARK                            x       y       z     vdW  Elec       q    Type
REMARK                         _______ _______ _______ _____ _____    ______ ____
ROOT
ATOM      1  C   UNK A   1       3.673   6.311  17.968  0.00  0.00    +0.000 C 
ENDROOT
BRANCH   1   2
ATOM      2  C   UNK A   1       2.913   7.687  17.912  0.00  0.00    +0.000 C 
ATOM      3  O   UNK A   1       3.149   8.589  17.120  0.00  0.00    +0.000 OA
ATOM      4  N   PHE A   2       1.977   7.774  18.942  0.00  0.00    +0.000 N 
ATOM      5  H   PHE A   2       2.040   6.983  19.594  0.00  0.00    +0.000 HD
BRANCH   4   6
ATOM      6  CA  PHE A   2       1.495   9.024  19.562  0.00  0.00    +0.000 C 
BRANCH   6   7
ATOM      7  C   PHE A   2       0.982   8.652  20.984  0.00  0.00    +0.000 C 
ATOM      8  O   PHE A   2      -0.212   8.601  21.262  0.00  0.00    +0.000 OA
BRANCH   7   9
ATOM      9  OXT PHE A   2       1.899   8.252  21.869  0.00  0.00    +0.000 OA
ATOM     10  HXT PHE A   2       2.835   8.300  21.588  0.00  0.00    +0.000 HD
ENDBRANCH   7   9
ENDBRANCH   6   7
BRANCH   6  11
ATOM     11  CB  PHE A   2       0.481   9.789  18.703  0.00  0.00    +0.000 C 
BRANCH  11  12
ATOM     12  CG  PHE A   2       0.655  11.281  18.798  0.00  0.00    +0.000 A 
ATOM     13  CD1 PHE A   2      -0.450  12.128  18.929  0.00  0.00    +0.000 A 
ATOM     14  CE1 PHE A   2      -0.279  13.509  18.846  0.00  0.00    +0.000 A 
ATOM     15  CZ  PHE A   2       0.987  14.053  18.632  0.00  0.00    +0.000 A 
ATOM     16  CE2 PHE A   2       2.095  13.220  18.552  0.00  0.00    +0.000 A 
ATOM     17  CD2 PHE A   2       1.935  11.845  18.655  0.00  0.00    +0.000 A 
ENDBRANCH  11  12
ENDBRANCH   6  11
ENDBRANCH   4   6
ENDBRANCH   1   2
BRANCH   1  18
ATOM     18  N   UNK A   1       4.901   6.423  17.160  0.00  0.00    +0.000 NA
ATOM     19  H   UNK A   1       5.089   7.399  16.912  0.00  0.00    +0.000 HD
BRANCH  18  20
ATOM     20  C   UNK A   1       6.137   5.794  17.695  0.00  0.00    +0.000 C 
BRANCH  20  21
ATOM     21  C   UNK A   1       7.225   6.901  17.765  0.00  0.00    +0.000 C 
ATOM     22  O   UNK A   1       7.232   7.911  17.068  0.00  0.00    +0.000 OA
BRANCH  21  23
ATOM     23  O   UNK A   1       8.058   6.769  18.823  0.00  0.00    +0.000 OA
ATOM     24  H   UNK A   1       8.863   6.249  18.643  0.00  0.00    +0.000 HD
ENDBRANCH  21  23
ENDBRANCH  20  21
BRANCH  20  25
ATOM     25  C   UNK A   1       6.493   4.484  16.962  0.00  0.00    +0.000 C 
BRANCH  25  26
ATOM     26  C   UNK A   1       5.722   3.909  15.780  0.00  0.00    +0.000 C 
BRANCH  26  27
ATOM     27  C   UNK A   1       6.242   4.165  14.402  0.00  0.00    +0.000 A 
ATOM     28  C   UNK A   1       5.674   3.445  13.342  0.00  0.00    +0.000 A 
ATOM     29  C   UNK A   1       6.221   3.528  12.065  0.00  0.00    +0.000 A 
ATOM     30  C   UNK A   1       7.316   4.353  11.835  0.00  0.00    +0.000 A 
ATOM     31  C   UNK A   1       7.812   5.159  12.860  0.00  0.00    +0.000 A 
ATOM     32  C   UNK A   1       7.254   5.090  14.131  0.00  0.00    +0.000 A 
ENDBRANCH  26  27
ENDBRANCH  25  26
ENDBRANCH  20  25
ENDBRANCH  18  20
ENDBRANCH   1  18
BRANCH   1  33
ATOM     33  C   UNK A   1       2.897   4.958  17.973  0.00  0.00    +0.000 C 
BRANCH  33  35
ATOM     34  C   UNK A   1       4.009   3.285  19.630  0.00  0.00    +0.000 C 
ATOM     35  C   UNK A   1       3.381   3.497  18.260  0.00  0.00    +0.000 C 
ATOM     36  C   UNK A   1       2.515   2.282  17.888  0.00  0.00    +0.000 C 
ENDBRANCH  33  35
ENDBRANCH   1  33
TORSDOF 15
ENDMDL
