MODEL 1
REMARK VINA RESULT:      -7.7      0.000      0.000
REMARK  Name = 
REMARK  10 active torsions:
REMARK  status: ('A' for Active; 'I' for Inactive)
REMARK    1  A    between atoms: C_1  and  C_2
REMARK    2  A    between atoms: C_2  and  N_3
REMARK    3  A    between atoms: N_3  and  C_4
REMARK    4  A    between atoms: N_3  and  C_6
REMARK    5  A    between atoms: C_4  and  C_5
REMARK    6  A    between atoms: C_6  and  C_7
REMARK    7  A    between atoms: C_7  and  N_8
REMARK    8  A    between atoms: N_8  and  C_9
REMARK    9  A    between atoms: C_11  and  C_12
REMARK   10  A    between atoms: C_16  and  C_17
REMARK                            x       y       z     vdW  Elec       q    Type
REMARK                         _______ _______ _______ _____ _____    ______ ____
ROOT
ATOM      1  C   UNL     1       4.802   4.754  18.663  0.00  0.00    +0.000 A 
ATOM      2  C   UNL     1       3.945   5.762  19.117  0.00  0.00    +0.000 A 
ATOM      3  C   UNL     1       3.522   6.771  18.262  0.00  0.00    +0.000 A 
ATOM      4  N   UNL     1       3.963   6.844  16.989  0.00  0.00    +0.000 NA
ATOM      5  C   UNL     1       4.841   5.934  16.549  0.00  0.00    +0.000 A 
ATOM      6  C   UNL     1       5.304   6.069  15.253  0.00  0.00    +0.000 A 
ATOM      7  C   UNL     1       6.213   5.175  14.688  0.00  0.00    +0.000 A 
ATOM      8  C   UNL     1       6.671   4.108  15.442  0.00  0.00    +0.000 A 
ATOM      9  C   UNL     1       6.221   3.944  16.754  0.00  0.00    +0.000 A 
ATOM     10  C   UNL     1       5.304   4.854  17.340  0.00  0.00    +0.000 A 
ENDROOT
BRANCH   3  11
ATOM     11  C   UNL     1       2.533   7.790  18.677  0.00  0.00    +0.000 A 
ATOM     12  C   UNL     1       2.058   8.742  17.761  0.00  0.00    +0.000 A 
ATOM     13  C   UNL     1       1.092   9.683  18.126  0.00  0.00    +0.000 A 
ATOM     14  C   UNL     1       0.582   9.695  19.422  0.00  0.00    +0.000 A 
ATOM     15  C   UNL     1       1.035   8.771  20.363  0.00  0.00    +0.000 A 
ATOM     16  C   UNL     1       0.514   8.772  21.769  0.00  0.00    +0.000 C 
ATOM     17  C   UNL     1       2.007   7.832  19.985  0.00  0.00    +0.000 A 
ENDBRANCH   3  11
BRANCH   1  18
ATOM     18  N   UNL     1       5.217   3.739  19.555  0.00  0.00    +0.000 N 
ATOM     19  H   UNL     1       6.221   3.632  19.643  0.00  0.00    +0.000 HD
BRANCH  18  20
ATOM     20  C   UNL     1       4.522   2.449  19.474  0.00  0.00    +0.000 C 
BRANCH  20  21
ATOM     21  C   UNL     1       3.195   2.443  20.264  0.00  0.00    +0.000 C 
BRANCH  21  22
ATOM     22  N   UNL     1       1.958   2.246  19.479  0.00  0.00    +0.000 NA
BRANCH  22  24
ATOM     23  C   UNL     1       1.352   4.280  20.868  0.00  0.00    +0.000 C 
ATOM     24  C   UNL     1       0.901   3.173  19.922  0.00  0.00    +0.000 C 
ENDBRANCH  22  24
BRANCH  22  25
ATOM     25  C   UNL     1       2.237   2.307  18.033  0.00  0.00    +0.000 C 
ATOM     26  C   UNL     1       1.762   3.565  17.306  0.00  0.00    +0.000 C 
ENDBRANCH  22  25
ENDBRANCH  21  22
ENDBRANCH  20  21
ENDBRANCH  18  20
ENDBRANCH   1  18
TORSDOF 7
ENDMDL
MODEL 2
REMARK VINA RESULT:      -7.4      1.174      5.481
REMARK  Name = 
REMARK  10 active torsions:
REMARK  status: ('A' for Active; 'I' for Inactive)
REMARK    1  A    between atoms: C_1  and  C_2
REMARK    2  A    between atoms: C_2  and  N_3
REMARK    3  A    between atoms: N_3  and  C_4
REMARK    4  A    between atoms: N_3  and  C_6
REMARK    5  A    between atoms: C_4  and  C_5
REMARK    6  A    between atoms: C_6  and  C_7
REMARK    7  A    between atoms: C_7  and  N_8
REMARK    8  A    between atoms: N_8  and  C_9
REMARK    9  A    between atoms: C_11  and  C_12
REMARK   10  A    between atoms: C_16  and  C_17
REMARK                            x       y       z     vdW  Elec       q    Type
REMARK                         _______ _______ _______ _____ _____    ______ ____
ROOT
ATOM      1  C   UNL     1       2.733   6.256  19.873  0.00  0.00    +0.000 A 
ATOM      2  C   UNL     1       3.656   5.600  19.052  0.00  0.00    +0.000 A 
ATOM      3  C   UNL     1       4.126   6.202  17.892  0.00  0.00    +0.000 A 
ATOM      4  N   UNL     1       3.670   7.407  17.491  0.00  0.00    +0.000 NA
ATOM      5  C   UNL     1       2.731   8.025  18.220  0.00  0.00    +0.000 A 
ATOM      6  C   UNL     1       2.257   9.237  17.752  0.00  0.00    +0.000 A 
ATOM      7  C   UNL     1       1.287   9.972  18.433  0.00  0.00    +0.000 A 
ATOM      8  C   UNL     1       0.777   9.481  19.623  0.00  0.00    +0.000 A 
ATOM      9  C   UNL     1       1.238   8.260  20.122  0.00  0.00    +0.000 A 
ATOM     10  C   UNL     1       2.217   7.501  19.431  0.00  0.00    +0.000 A 
ENDROOT
BRANCH   3  11
ATOM     11  C   UNL     1       5.181   5.585  17.059  0.00  0.00    +0.000 A 
ATOM     12  C   UNL     1       6.475   5.391  17.569  0.00  0.00    +0.000 A 
ATOM     13  C   UNL     1       7.470   4.771  16.810  0.00  0.00    +0.000 A 
ATOM     14  C   UNL     1       7.193   4.334  15.517  0.00  0.00    +0.000 A 
ATOM     15  C   UNL     1       5.922   4.517  14.971  0.00  0.00    +0.000 A 
ATOM     16  C   UNL     1       5.602   4.071  13.575  0.00  0.00    +0.000 C 
ATOM     17  C   UNL     1       4.932   5.143  15.743  0.00  0.00    +0.000 A 
ENDBRANCH   3  11
BRANCH   1  18
ATOM     18  N   UNL     1       2.272   5.621  21.048  0.00  0.00    +0.000 N 
ATOM     19  H   UNL     1       2.986   5.444  21.745  0.00  0.00    +0.000 HD
BRANCH  18  20
ATOM     20  C   UNL     1       1.359   4.484  20.883  0.00  0.00    +0.000 C 
BRANCH  20  21
ATOM     21  C   UNL     1       2.093   3.126  20.935  0.00  0.00    +0.000 C 
BRANCH  21  22
ATOM     22  N   UNL     1       1.994   2.273  19.730  0.00  0.00    +0.000 NA
BRANCH  22  24
ATOM     23  C   UNL     1       1.706   3.413  17.482  0.00  0.00    +0.000 C 
ATOM     24  C   UNL     1       1.063   2.858  18.748  0.00  0.00    +0.000 C 
ENDBRANCH  22  24
BRANCH  22  25
ATOM     25  C   UNL     1       3.330   1.977  19.183  0.00  0.00    +0.000 C 
ATOM     26  C   UNL     1       4.510   2.197  20.128  0.00  0.00    +0.000 C 
ENDBRANCH  22  25
ENDBRANCH  21  22
ENDBRANCH  20  21
ENDBRANCH  18  20
ENDBRANCH   1  18
TORSDOF 7
ENDMDL
MODEL 3
REMARK VINA RESULT:      -7.4      0.782      1.463
REMARK  Name = 
REMARK  10 active torsions:
REMARK  status: ('A' for Active; 'I' for Inactive)
REMARK    1  A    between atoms: C_1  and  C_2
REMARK    2  A    between atoms: C_2  and  N_3
REMARK    3  A    between atoms: N_3  and  C_4
REMARK    4  A    between atoms: N_3  and  C_6
REMARK    5  A    between atoms: C_4  and  C_5
REMARK    6  A    between atoms: C_6  and  C_7
REMARK    7  A    between atoms: C_7  and  N_8
REMARK    8  A    between atoms: N_8  and  C_9
REMARK    9  A    between atoms: C_11  and  C_12
REMARK   10  A    between atoms: C_16  and  C_17
REMARK                            x       y       z     vdW  Elec       q    Type
REMARK                         _______ _______ _______ _____ _____    ______ ____
ROOT
ATOM      1  C   UNL     1       5.001   4.465  18.609  0.00  0.00    +0.000 A 
ATOM      2  C   UNL     1       4.124   5.346  19.249  0.00  0.00    +0.000 A 
ATOM      3  C   UNL     1       3.593   6.435  18.569  0.00  0.00    +0.000 A 
ATOM      4  N   UNL     1       3.945   6.709  17.297  0.00  0.00    +0.000 NA
ATOM      5  C   UNL     1       4.839   5.923  16.683  0.00  0.00    +0.000 A 
ATOM      6  C   UNL     1       5.208   6.263  15.394  0.00  0.00    +0.000 A 
ATOM      7  C   UNL     1       6.125   5.512  14.658  0.00  0.00    +0.000 A 
ATOM      8  C   UNL     1       6.686   4.381  15.227  0.00  0.00    +0.000 A 
ATOM      9  C   UNL     1       6.332   4.012  16.527  0.00  0.00    +0.000 A 
ATOM     10  C   UNL     1       5.409   4.776  17.287  0.00  0.00    +0.000 A 
ENDROOT
BRANCH   3  11
ATOM     11  C   UNL     1       2.581   7.325  19.180  0.00  0.00    +0.000 A 
ATOM     12  C   UNL     1       2.056   7.046  20.453  0.00  0.00    +0.000 A 
ATOM     13  C   UNL     1       1.133   7.900  21.061  0.00  0.00    +0.000 A 
ATOM     14  C   UNL     1       0.707   9.053  20.405  0.00  0.00    +0.000 A 
ATOM     15  C   UNL     1       1.199   9.360  19.135  0.00  0.00    +0.000 A 
ATOM     16  C   UNL     1       0.746  10.585  18.400  0.00  0.00    +0.000 C 
ATOM     17  C   UNL     1       2.125   8.493  18.535  0.00  0.00    +0.000 A 
ENDBRANCH   3  11
BRANCH   1  18
ATOM     18  N   UNL     1       5.525   3.365  19.324  0.00  0.00    +0.000 N 
ATOM     19  H   UNL     1       6.194   2.802  18.811  0.00  0.00    +0.000 HD
BRANCH  18  20
ATOM     20  C   UNL     1       4.577   2.547  20.089  0.00  0.00    +0.000 C 
BRANCH  20  21
ATOM     21  C   UNL     1       3.558   1.823  19.182  0.00  0.00    +0.000 C 
BRANCH  21  22
ATOM     22  N   UNL     1       2.128   2.097  19.443  0.00  0.00    +0.000 NA
BRANCH  22  24
ATOM     23  C   UNL     1       1.453   2.517  21.852  0.00  0.00    +0.000 C 
ATOM     24  C   UNL     1       1.972   3.078  20.533  0.00  0.00    +0.000 C 
ENDBRANCH  22  24
BRANCH  22  25
ATOM     25  C   UNL     1       1.428   2.470  18.200  0.00  0.00    +0.000 C 
ATOM     26  C   UNL     1       1.305   3.967  17.918  0.00  0.00    +0.000 C 
ENDBRANCH  22  25
ENDBRANCH  21  22
ENDBRANCH  20  21
ENDBRANCH  18  20
ENDBRANCH   1  18
TORSDOF 7
ENDMDL
MODEL 4
REMARK VINA RESULT:      -7.4      1.684      4.733
REMARK  Name = 
REMARK  10 active torsions:
REMARK  status: ('A' for Active; 'I' for Inactive)
REMARK    1  A    between atoms: C_1  and  C_2
REMARK    2  A    between atoms: C_2  and  N_3
REMARK    3  A    between atoms: N_3  and  C_4
REMARK    4  A    between atoms: N_3  and  C_6
REMARK    5  A    between atoms: C_4  and  C_5
REMARK    6  A    between atoms: C_6  and  C_7
REMARK    7  A    between atoms: C_7  and  N_8
REMARK    8  A    between atoms: N_8  and  C_9
REMARK    9  A    between atoms: C_11  and  C_12
REMARK   10  A    between atoms: C_16  and  C_17
REMARK                            x       y       z     vdW  Elec       q    Type
REMARK                         _______ _______ _______ _____ _____    ______ ____
ROOT
ATOM      1  C   UNL     1       3.235   5.768  18.508  0.00  0.00    +0.000 A 
ATOM      2  C   UNL     1       2.579   6.976  18.765  0.00  0.00    +0.000 A 
ATOM      3  C   UNL     1       1.854   7.153  19.936  0.00  0.00    +0.000 A 
ATOM      4  N   UNL     1       1.713   6.155  20.833  0.00  0.00    +0.000 NA
ATOM      5  C   UNL     1       2.269   4.964  20.577  0.00  0.00    +0.000 A 
ATOM      6  C   UNL     1       2.064   3.954  21.500  0.00  0.00    +0.000 A 
ATOM      7  C   UNL     1       2.603   2.678  21.340  0.00  0.00    +0.000 A 
ATOM      8  C   UNL     1       3.377   2.403  20.225  0.00  0.00    +0.000 A 
ATOM      9  C   UNL     1       3.603   3.404  19.277  0.00  0.00    +0.000 A 
ATOM     10  C   UNL     1       3.050   4.702  19.426  0.00  0.00    +0.000 A 
ENDROOT
BRANCH   3  11
ATOM     11  C   UNL     1       1.238   8.451  20.290  0.00  0.00    +0.000 A 
ATOM     12  C   UNL     1       1.199   9.503  19.361  0.00  0.00    +0.000 A 
ATOM     13  C   UNL     1       0.583  10.719  19.665  0.00  0.00    +0.000 A 
ATOM     14  C   UNL     1      -0.005  10.912  20.912  0.00  0.00    +0.000 A 
ATOM     15  C   UNL     1       0.020   9.894  21.866  0.00  0.00    +0.000 A 
ATOM     16  C   UNL     1      -0.591  10.082  23.222  0.00  0.00    +0.000 C 
ATOM     17  C   UNL     1       0.644   8.678  21.549  0.00  0.00    +0.000 A 
ENDBRANCH   3  11
BRANCH   1  18
ATOM     18  N   UNL     1       3.967   5.615  17.309  0.00  0.00    +0.000 N 
ATOM     19  H   UNL     1       4.521   4.768  17.252  0.00  0.00    +0.000 HD
BRANCH  18  20
ATOM     20  C   UNL     1       4.689   6.790  16.808  0.00  0.00    +0.000 C 
BRANCH  20  21
ATOM     21  C   UNL     1       5.668   6.438  15.666  0.00  0.00    +0.000 C 
BRANCH  21  22
ATOM     22  N   UNL     1       7.025   6.009  16.066  0.00  0.00    +0.000 NA
BRANCH  22  24
ATOM     23  C   UNL     1       7.616   5.442  18.467  0.00  0.00    +0.000 C 
ATOM     24  C   UNL     1       7.360   6.511  17.411  0.00  0.00    +0.000 C 
ENDBRANCH  22  24
BRANCH  22  25
ATOM     25  C   UNL     1       7.182   4.551  15.918  0.00  0.00    +0.000 C 
ATOM     26  C   UNL     1       6.175   3.853  15.005  0.00  0.00    +0.000 C 
ENDBRANCH  22  25
ENDBRANCH  21  22
ENDBRANCH  20  21
ENDBRANCH  18  20
ENDBRANCH   1  18
TORSDOF 7
ENDMDL
MODEL 5
REMARK VINA RESULT:      -7.4      1.422      4.046
REMARK  Name = 
REMARK  10 active torsions:
REMARK  status: ('A' for Active; 'I' for Inactive)
REMARK    1  A    between atoms: C_1  and  C_2
REMARK    2  A    between atoms: C_2  and  N_3
REMARK    3  A    between atoms: N_3  and  C_4
REMARK    4  A    between atoms: N_3  and  C_6
REMARK    5  A    between atoms: C_4  and  C_5
REMARK    6  A    between atoms: C_6  and  C_7
REMARK    7  A    between atoms: C_7  and  N_8
REMARK    8  A    between atoms: N_8  and  C_9
REMARK    9  A    between atoms: C_11  and  C_12
REMARK   10  A    between atoms: C_16  and  C_17
REMARK                            x       y       z     vdW  Elec       q    Type
REMARK                         _______ _______ _______ _____ _____    ______ ____
ROOT
ATOM      1  C   UNL     1       4.754   4.854  19.252  0.00  0.00    +0.000 A 
ATOM      2  C   UNL     1       4.217   6.145  19.245  0.00  0.00    +0.000 A 
ATOM      3  C   UNL     1       2.877   6.354  18.944  0.00  0.00    +0.000 A 
ATOM      4  N   UNL     1       2.066   5.333  18.599  0.00  0.00    +0.000 NA
ATOM      5  C   UNL     1       2.572   4.094  18.527  0.00  0.00    +0.000 A 
ATOM      6  C   UNL     1       1.720   3.081  18.125  0.00  0.00    +0.000 A 
ATOM      7  C   UNL     1       2.136   1.754  18.023  0.00  0.00    +0.000 A 
ATOM      8  C   UNL     1       3.445   1.428  18.337  0.00  0.00    +0.000 A 
ATOM      9  C   UNL     1       4.328   2.429  18.747  0.00  0.00    +0.000 A 
ATOM     10  C   UNL     1       3.916   3.783  18.844  0.00  0.00    +0.000 A 
ENDROOT
BRANCH   3  11
ATOM     11  C   UNL     1       2.251   7.692  19.032  0.00  0.00    +0.000 A 
ATOM     12  C   UNL     1       2.253   8.557  17.926  0.00  0.00    +0.000 A 
ATOM     13  C   UNL     1       1.629   9.806  17.979  0.00  0.00    +0.000 A 
ATOM     14  C   UNL     1       0.990  10.220  19.146  0.00  0.00    +0.000 A 
ATOM     15  C   UNL     1       0.975   9.392  20.269  0.00  0.00    +0.000 A 
ATOM     16  C   UNL     1       0.309   9.820  21.543  0.00  0.00    +0.000 C 
ATOM     17  C   UNL     1       1.607   8.141  20.203  0.00  0.00    +0.000 A 
ENDBRANCH   3  11
BRANCH   1  18
ATOM     18  N   UNL     1       6.120   4.670  19.561  0.00  0.00    +0.000 N 
ATOM     19  H   UNL     1       6.325   4.585  20.550  0.00  0.00    +0.000 HD
BRANCH  18  20
ATOM     20  C   UNL     1       7.088   5.522  18.861  0.00  0.00    +0.000 C 
BRANCH  20  21
ATOM     21  C   UNL     1       7.541   4.915  17.514  0.00  0.00    +0.000 C 
BRANCH  21  22
ATOM     22  N   UNL     1       7.263   5.714  16.301  0.00  0.00    +0.000 NA
BRANCH  22  24
ATOM     23  C   UNL     1       5.965   3.658  15.579  0.00  0.00    +0.000 C 
ATOM     24  C   UNL     1       6.833   4.848  15.188  0.00  0.00    +0.000 C 
ENDBRANCH  22  24
BRANCH  22  25
ATOM     25  C   UNL     1       6.326   6.813  16.598  0.00  0.00    +0.000 C 
ATOM     26  C   UNL     1       4.995   6.786  15.848  0.00  0.00    +0.000 C 
ENDBRANCH  22  25
ENDBRANCH  21  22
ENDBRANCH  20  21
ENDBRANCH  18  20
ENDBRANCH   1  18
TORSDOF 7
ENDMDL
MODEL 6
REMARK VINA RESULT:      -7.2      1.792      4.498
REMARK  Name = 
REMARK  10 active torsions:
REMARK  status: ('A' for Active; 'I' for Inactive)
REMARK    1  A    between atoms: C_1  and  C_2
REMARK    2  A    between atoms: C_2  and  N_3
REMARK    3  A    between atoms: N_3  and  C_4
REMARK    4  A    between atoms: N_3  and  C_6
REMARK    5  A    between atoms: C_4  and  C_5
REMARK    6  A    between atoms: C_6  and  C_7
REMARK    7  A    between atoms: C_7  and  N_8
REMARK    8  A    between atoms: N_8  and  C_9
REMARK    9  A    between atoms: C_11  and  C_12
REMARK   10  A    between atoms: C_16  and  C_17
REMARK                            x       y       z     vdW  Elec       q    Type
REMARK                         _______ _______ _______ _____ _____    ______ ____
ROOT
ATOM      1  C   UNL     1       4.497   4.703  19.188  0.00  0.00    +0.000 A 
ATOM      2  C   UNL     1       4.067   6.032  19.137  0.00  0.00    +0.000 A 
ATOM      3  C   UNL     1       2.723   6.336  18.962  0.00  0.00    +0.000 A 
ATOM      4  N   UNL     1       1.801   5.368  18.784  0.00  0.00    +0.000 NA
ATOM      5  C   UNL     1       2.195   4.089  18.755  0.00  0.00    +0.000 A 
ATOM      6  C   UNL     1       1.226   3.128  18.525  0.00  0.00    +0.000 A 
ATOM      7  C   UNL     1       1.522   1.766  18.482  0.00  0.00    +0.000 A 
ATOM      8  C   UNL     1       2.827   1.349  18.683  0.00  0.00    +0.000 A 
ATOM      9  C   UNL     1       3.827   2.296  18.919  0.00  0.00    +0.000 A 
ATOM     10  C   UNL     1       3.537   3.684  18.953  0.00  0.00    +0.000 A 
ENDROOT
BRANCH   3  11
ATOM     11  C   UNL     1       2.218   7.727  19.011  0.00  0.00    +0.000 A 
ATOM     12  C   UNL     1       2.376   8.585  17.910  0.00  0.00    +0.000 A 
ATOM     13  C   UNL     1       1.868   9.885  17.924  0.00  0.00    +0.000 A 
ATOM     14  C   UNL     1       1.192  10.361  19.046  0.00  0.00    +0.000 A 
ATOM     15  C   UNL     1       1.023   9.541  20.163  0.00  0.00    +0.000 A 
ATOM     16  C   UNL     1       0.314  10.033  21.389  0.00  0.00    +0.000 C 
ATOM     17  C   UNL     1       1.540   8.237  20.137  0.00  0.00    +0.000 A 
ENDBRANCH   3  11
BRANCH   1  18
ATOM     18  N   UNL     1       5.870   4.422  19.366  0.00  0.00    +0.000 N 
ATOM     19  H   UNL     1       6.083   3.812  20.147  0.00  0.00    +0.000 HD
BRANCH  18  20
ATOM     20  C   UNL     1       6.804   5.549  19.267  0.00  0.00    +0.000 C 
BRANCH  20  21
ATOM     21  C   UNL     1       7.724   5.446  18.030  0.00  0.00    +0.000 C 
BRANCH  21  22
ATOM     22  N   UNL     1       7.357   6.275  16.862  0.00  0.00    +0.000 NA
BRANCH  22  24
ATOM     23  C   UNL     1       6.981   4.746  14.873  0.00  0.00    +0.000 C 
ATOM     24  C   UNL     1       6.384   5.574  16.005  0.00  0.00    +0.000 C 
ENDBRANCH  22  24
BRANCH  22  25
ATOM     25  C   UNL     1       6.921   7.618  17.285  0.00  0.00    +0.000 C 
ATOM     26  C   UNL     1       8.026   8.584  17.710  0.00  0.00    +0.000 C 
ENDBRANCH  22  25
ENDBRANCH  21  22
ENDBRANCH  20  21
ENDBRANCH  18  20
ENDBRANCH   1  18
TORSDOF 7
ENDMDL
MODEL 7
REMARK VINA RESULT:      -7.2      1.571      5.677
REMARK  Name = 
REMARK  10 active torsions:
REMARK  status: ('A' for Active; 'I' for Inactive)
REMARK    1  A    between atoms: C_1  and  C_2
REMARK    2  A    between atoms: C_2  and  N_3
REMARK    3  A    between atoms: N_3  and  C_4
REMARK    4  A    between atoms: N_3  and  C_6
REMARK    5  A    between atoms: C_4  and  C_5
REMARK    6  A    between atoms: C_6  and  C_7
REMARK    7  A    between atoms: C_7  and  N_8
REMARK    8  A    between atoms: N_8  and  C_9
REMARK    9  A    between atoms: C_11  and  C_12
REMARK   10  A    between atoms: C_16  and  C_17
REMARK                            x       y       z     vdW  Elec       q    Type
REMARK                         _______ _______ _______ _____ _____    ______ ____
ROOT
ATOM      1  C   UNL     1       5.197   4.270  18.275  0.00  0.00    +0.000 A 
ATOM      2  C   UNL     1       5.701   3.986  17.002  0.00  0.00    +0.000 A 
ATOM      3  C   UNL     1       5.443   4.834  15.932  0.00  0.00    +0.000 A 
ATOM      4  N   UNL     1       4.658   5.922  16.072  0.00  0.00    +0.000 NA
ATOM      5  C   UNL     1       4.102   6.177  17.263  0.00  0.00    +0.000 A 
ATOM      6  C   UNL     1       3.267   7.277  17.354  0.00  0.00    +0.000 A 
ATOM      7  C   UNL     1       2.642   7.642  18.546  0.00  0.00    +0.000 A 
ATOM      8  C   UNL     1       2.862   6.886  19.686  0.00  0.00    +0.000 A 
ATOM      9  C   UNL     1       3.701   5.771  19.625  0.00  0.00    +0.000 A 
ATOM     10  C   UNL     1       4.333   5.387  18.415  0.00  0.00    +0.000 A 
ENDROOT
BRANCH   3  11
ATOM     11  C   UNL     1       6.047   4.623  14.598  0.00  0.00    +0.000 A 
ATOM     12  C   UNL     1       7.198   5.331  14.214  0.00  0.00    +0.000 A 
ATOM     13  C   UNL     1       7.806   5.111  12.976  0.00  0.00    +0.000 A 
ATOM     14  C   UNL     1       7.272   4.180  12.089  0.00  0.00    +0.000 A 
ATOM     15  C   UNL     1       6.124   3.463  12.431  0.00  0.00    +0.000 A 
ATOM     16  C   UNL     1       5.519   2.466  11.489  0.00  0.00    +0.000 C 
ATOM     17  C   UNL     1       5.522   3.694  13.677  0.00  0.00    +0.000 A 
ENDBRANCH   3  11
BRANCH   1  18
ATOM     18  N   UNL     1       5.476   3.391  19.345  0.00  0.00    +0.000 N 
ATOM     19  H   UNL     1       6.220   2.725  19.168  0.00  0.00    +0.000 HD
BRANCH  18  20
ATOM     20  C   UNL     1       4.330   2.779  20.028  0.00  0.00    +0.000 C 
BRANCH  20  21
ATOM     21  C   UNL     1       3.454   1.938  19.073  0.00  0.00    +0.000 C 
BRANCH  21  22
ATOM     22  N   UNL     1       1.989   2.081  19.221  0.00  0.00    +0.000 NA
BRANCH  22  24
ATOM     23  C   UNL     1       0.960   3.794  20.783  0.00  0.00    +0.000 C 
ATOM     24  C   UNL     1       1.633   2.438  20.606  0.00  0.00    +0.000 C 
ENDBRANCH  22  24
BRANCH  22  25
ATOM     25  C   UNL     1       1.446   3.004  18.208  0.00  0.00    +0.000 C 
ATOM     26  C   UNL     1       2.220   3.096  16.894  0.00  0.00    +0.000 C 
ENDBRANCH  22  25
ENDBRANCH  21  22
ENDBRANCH  20  21
ENDBRANCH  18  20
ENDBRANCH   1  18
TORSDOF 7
ENDMDL
MODEL 8
REMARK VINA RESULT:      -7.2      1.945      6.607
REMARK  Name = 
REMARK  10 active torsions:
REMARK  status: ('A' for Active; 'I' for Inactive)
REMARK    1  A    between atoms: C_1  and  C_2
REMARK    2  A    between atoms: C_2  and  N_3
REMARK    3  A    between atoms: N_3  and  C_4
REMARK    4  A    between atoms: N_3  and  C_6
REMARK    5  A    between atoms: C_4  and  C_5
REMARK    6  A    between atoms: C_6  and  C_7
REMARK    7  A    between atoms: C_7  and  N_8
REMARK    8  A    between atoms: N_8  and  C_9
REMARK    9  A    between atoms: C_11  and  C_12
REMARK   10  A    between atoms: C_16  and  C_17
REMARK                            x       y       z     vdW  Elec       q    Type
REMARK                         _______ _______ _______ _____ _____    ______ ____
ROOT
ATOM      1  C   UNL     1       3.238   5.639  18.959  0.00  0.00    +0.000 A 
ATOM      2  C   UNL     1       4.234   5.671  17.978  0.00  0.00    +0.000 A 
ATOM      3  C   UNL     1       4.350   4.643  17.052  0.00  0.00    +0.000 A 
ATOM      4  N   UNL     1       3.548   3.561  17.099  0.00  0.00    +0.000 NA
ATOM      5  C   UNL     1       2.633   3.468  18.072  0.00  0.00    +0.000 A 
ATOM      6  C   UNL     1       1.859   2.322  18.114  0.00  0.00    +0.000 A 
ATOM      7  C   UNL     1       0.871   2.123  19.078  0.00  0.00    +0.000 A 
ATOM      8  C   UNL     1       0.645   3.105  20.028  0.00  0.00    +0.000 A 
ATOM      9  C   UNL     1       1.409   4.274  20.011  0.00  0.00    +0.000 A 
ATOM     10  C   UNL     1       2.423   4.480  19.041  0.00  0.00    +0.000 A 
ENDROOT
BRANCH   3  11
ATOM     11  C   UNL     1       5.322   4.697  15.936  0.00  0.00    +0.000 A 
ATOM     12  C   UNL     1       6.531   5.397  16.073  0.00  0.00    +0.000 A 
ATOM     13  C   UNL     1       7.477   5.421  15.046  0.00  0.00    +0.000 A 
ATOM     14  C   UNL     1       7.231   4.746  13.852  0.00  0.00    +0.000 A 
ATOM     15  C   UNL     1       6.037   4.045  13.675  0.00  0.00    +0.000 A 
ATOM     16  C   UNL     1       5.740   3.324  12.395  0.00  0.00    +0.000 C 
ATOM     17  C   UNL     1       5.094   4.031  14.714  0.00  0.00    +0.000 A 
ENDBRANCH   3  11
BRANCH   1  18
ATOM     18  N   UNL     1       3.142   6.698  19.889  0.00  0.00    +0.000 N 
ATOM     19  H   UNL     1       3.226   6.422  20.860  0.00  0.00    +0.000 HD
BRANCH  18  20
ATOM     20  C   UNL     1       2.074   7.682  19.678  0.00  0.00    +0.000 C 
BRANCH  20  21
ATOM     21  C   UNL     1       1.277   7.972  20.969  0.00  0.00    +0.000 C 
BRANCH  21  22
ATOM     22  N   UNL     1       0.344   9.119  20.927  0.00  0.00    +0.000 NA
BRANCH  22  24
ATOM     23  C   UNL     1      -0.716  10.064  23.030  0.00  0.00    +0.000 C 
ATOM     24  C   UNL     1       0.504   9.970  22.120  0.00  0.00    +0.000 C 
ENDBRANCH  22  24
BRANCH  22  25
ATOM     25  C   UNL     1       0.464   9.849  19.653  0.00  0.00    +0.000 C 
ATOM     26  C   UNL     1      -0.843  10.331  19.025  0.00  0.00    +0.000 C 
ENDBRANCH  22  25
ENDBRANCH  21  22
ENDBRANCH  20  21
ENDBRANCH  18  20
ENDBRANCH   1  18
TORSDOF 7
ENDMDL
MODEL 9
REMARK VINA RESULT:      -7.2      1.124      1.922
REMARK  Name = 
REMARK  10 active torsions:
REMARK  status: ('A' for Active; 'I' for Inactive)
REMARK    1  A    between atoms: C_1  and  C_2
REMARK    2  A    between atoms: C_2  and  N_3
REMARK    3  A    between atoms: N_3  and  C_4
REMARK    4  A    between atoms: N_3  and  C_6
REMARK    5  A    between atoms: C_4  and  C_5
REMARK    6  A    between atoms: C_6  and  C_7
REMARK    7  A    between atoms: C_7  and  N_8
REMARK    8  A    between atoms: N_8  and  C_9
REMARK    9  A    between atoms: C_11  and  C_12
REMARK   10  A    between atoms: C_16  and  C_17
REMARK                            x       y       z     vdW  Elec       q    Type
REMARK                         _______ _______ _______ _____ _____    ______ ____
ROOT
ATOM      1  C   UNL     1       3.048   4.392  17.164  0.00  0.00    +0.000 A 
ATOM      2  C   UNL     1       2.366   5.403  17.848  0.00  0.00    +0.000 A 
ATOM      3  C   UNL     1       2.940   6.656  18.019  0.00  0.00    +0.000 A 
ATOM      4  N   UNL     1       4.188   6.922  17.583  0.00  0.00    +0.000 NA
ATOM      5  C   UNL     1       4.894   5.950  16.990  0.00  0.00    +0.000 A 
ATOM      6  C   UNL     1       6.186   6.249  16.597  0.00  0.00    +0.000 A 
ATOM      7  C   UNL     1       7.007   5.317  15.963  0.00  0.00    +0.000 A 
ATOM      8  C   UNL     1       6.519   4.047  15.708  0.00  0.00    +0.000 A 
ATOM      9  C   UNL     1       5.217   3.716  16.091  0.00  0.00    +0.000 A 
ATOM     10  C   UNL     1       4.379   4.654  16.746  0.00  0.00    +0.000 A 
ENDROOT
BRANCH   3  11
ATOM     11  C   UNL     1       2.205   7.779  18.642  0.00  0.00    +0.000 A 
ATOM     12  C   UNL     1       1.744   8.853  17.862  0.00  0.00    +0.000 A 
ATOM     13  C   UNL     1       1.012   9.899  18.427  0.00  0.00    +0.000 A 
ATOM     14  C   UNL     1       0.727   9.898  19.791  0.00  0.00    +0.000 A 
ATOM     15  C   UNL     1       1.175   8.853  20.600  0.00  0.00    +0.000 A 
ATOM     16  C   UNL     1       0.897   8.835  22.073  0.00  0.00    +0.000 C 
ATOM     17  C   UNL     1       1.912   7.809  20.020  0.00  0.00    +0.000 A 
ENDBRANCH   3  11
BRANCH   1  18
ATOM     18  N   UNL     1       2.440   3.127  17.004  0.00  0.00    +0.000 N 
ATOM     19  H   UNL     1       1.436   3.151  16.864  0.00  0.00    +0.000 HD
BRANCH  18  20
ATOM     20  C   UNL     1       2.850   2.063  17.927  0.00  0.00    +0.000 C 
BRANCH  20  21
ATOM     21  C   UNL     1       2.072   2.107  19.261  0.00  0.00    +0.000 C 
BRANCH  21  22
ATOM     22  N   UNL     1       2.869   2.337  20.485  0.00  0.00    +0.000 NA
BRANCH  22  24
ATOM     23  C   UNL     1       4.824   3.906  20.091  0.00  0.00    +0.000 C 
ATOM     24  C   UNL     1       4.301   2.476  20.161  0.00  0.00    +0.000 C 
ENDBRANCH  22  24
BRANCH  22  25
ATOM     25  C   UNL     1       2.323   3.462  21.265  0.00  0.00    +0.000 C 
ATOM     26  C   UNL     1       1.102   4.164  20.674  0.00  0.00    +0.000 C 
ENDBRANCH  22  25
ENDBRANCH  21  22
ENDBRANCH  20  21
ENDBRANCH  18  20
ENDBRANCH   1  18
TORSDOF 7
ENDMDL
