MODEL 1
REMARK VINA RESULT:      -7.1      0.000      0.000
REMARK  Name = 
REMARK  11 active torsions:
REMARK  status: ('A' for Active; 'I' for Inactive)
REMARK    1  A    between atoms: C_1  and  C_2
REMARK    2  A    between atoms: C_3  and  C_4
REMARK    3  A    between atoms: C_5  and  C_6
REMARK    4  A    between atoms: C_6  and  C_7
REMARK    5  A    between atoms: C_8  and  C_9
REMARK    6  A    between atoms: C_10  and  C_11
REMARK    7  A    between atoms: C_11  and  C_12
REMARK    8  A    between atoms: C_13  and  C_14
REMARK    9  A    between atoms: C_14  and  O_16
REMARK   10  A    between atoms: C_17  and  C_18
REMARK   11  A    between atoms: C_17  and  C_19
REMARK                            x       y       z     vdW  Elec       q    Type
REMARK                         _______ _______ _______ _____ _____    ______ ____
ROOT
ATOM      1  C   UNL     1       5.013   5.432  19.046  0.00  0.00    +0.000 C 
ATOM      2  C   UNL     1       5.850   5.894  18.094  0.00  0.00    +0.000 C 
ENDROOT
BRANCH   1   5
ATOM      3  C   UNL     1       4.899   2.393  19.392  0.00  0.00    +0.000 C 
ATOM      4  C   UNL     1       3.762   3.290  18.972  0.00  0.00    +0.000 C 
ATOM      5  C   UNL     1       3.786   4.641  18.849  0.00  0.00    +0.000 C 
ATOM      6  C   UNL     1       2.483   5.459  18.648  0.00  0.00    +0.000 C 
ATOM      7  C   UNL     1       2.653   6.770  17.842  0.00  0.00    +0.000 C 
ATOM      8  C   UNL     1       1.914   5.838  20.037  0.00  0.00    +0.000 C 
ATOM      9  C   UNL     1       1.449   4.620  17.867  0.00  0.00    +0.000 C 
ATOM     10  C   UNL     1       1.202   3.255  18.470  0.00  0.00    +0.000 C 
ATOM     11  C   UNL     1       2.479   2.524  18.785  0.00  0.00    +0.000 C 
ATOM     12  O   UNL     1       2.458   1.301  18.929  0.00  0.00    +0.000 OA
ENDBRANCH   1   5
BRANCH   2  13
ATOM     13  C   UNL     1       7.068   6.705  18.298  0.00  0.00    +0.000 C 
ATOM     14  C   UNL     1       8.197   6.152  19.145  0.00  0.00    +0.000 C 
ATOM     15  C   UNL     1       7.180   7.937  17.739  0.00  0.00    +0.000 C 
BRANCH  15  16
ATOM     16  C   UNL     1       8.325   8.833  17.926  0.00  0.00    +0.000 C 
ATOM     17  C   UNL     1       8.287  10.141  18.223  0.00  0.00    +0.000 C 
BRANCH  17  18
ATOM     18  C   UNL     1       9.487  10.963  18.463  0.00  0.00    +0.000 C 
ATOM     19  C   UNL     1      10.292  10.720  19.722  0.00  0.00    +0.000 C 
ATOM     20  C   UNL     1       9.836  11.929  17.584  0.00  0.00    +0.000 C 
BRANCH  20  21
ATOM     21  C   UNL     1      11.029  12.806  17.754  0.00  0.00    +0.000 C 
ATOM     22  O   UNL     1      12.158  12.556  17.369  0.00  0.00    +0.000 OA
BRANCH  21  23
ATOM     23  O   UNL     1      10.725  13.952  18.396  0.00  0.00    +0.000 OA
ATOM     24  H   UNL     1       9.788  14.070  18.633  0.00  0.00    +0.000 HD
ENDBRANCH  21  23
ENDBRANCH  20  21
ENDBRANCH  17  18
ENDBRANCH  15  16
ENDBRANCH   2  13
TORSDOF 6
ENDMDL
MODEL 2
REMARK VINA RESULT:      -7.0      5.668      8.343
REMARK  Name = 
REMARK  11 active torsions:
REMARK  status: ('A' for Active; 'I' for Inactive)
REMARK    1  A    between atoms: C_1  and  C_2
REMARK    2  A    between atoms: C_3  and  C_4
REMARK    3  A    between atoms: C_5  and  C_6
REMARK    4  A    between atoms: C_6  and  C_7
REMARK    5  A    between atoms: C_8  and  C_9
REMARK    6  A    between atoms: C_10  and  C_11
REMARK    7  A    between atoms: C_11  and  C_12
REMARK    8  A    between atoms: C_13  and  C_14
REMARK    9  A    between atoms: C_14  and  O_16
REMARK   10  A    between atoms: C_17  and  C_18
REMARK   11  A    between atoms: C_17  and  C_19
REMARK                            x       y       z     vdW  Elec       q    Type
REMARK                         _______ _______ _______ _____ _____    ______ ____
ROOT
ATOM      1  C   UNL     1       3.494   6.699  18.331  0.00  0.00    +0.000 C 
ATOM      2  C   UNL     1       2.771   7.738  17.863  0.00  0.00    +0.000 C 
ENDROOT
BRANCH   1   5
ATOM      3  C   UNL     1       6.193   7.647  17.244  0.00  0.00    +0.000 C 
ATOM      4  C   UNL     1       5.585   6.279  17.063  0.00  0.00    +0.000 C 
ATOM      5  C   UNL     1       4.407   5.832  17.567  0.00  0.00    +0.000 C 
ATOM      6  C   UNL     1       4.020   4.331  17.510  0.00  0.00    +0.000 C 
ATOM      7  C   UNL     1       2.500   4.052  17.429  0.00  0.00    +0.000 C 
ATOM      8  C   UNL     1       4.554   3.630  18.783  0.00  0.00    +0.000 C 
ATOM      9  C   UNL     1       4.632   3.677  16.253  0.00  0.00    +0.000 C 
ATOM     10  C   UNL     1       6.121   3.908  16.117  0.00  0.00    +0.000 C 
ATOM     11  C   UNL     1       6.500   5.351  16.309  0.00  0.00    +0.000 C 
ATOM     12  O   UNL     1       7.582   5.756  15.881  0.00  0.00    +0.000 OA
ENDBRANCH   1   5
BRANCH   2  13
ATOM     13  C   UNL     1       1.840   8.591  18.631  0.00  0.00    +0.000 C 
ATOM     14  C   UNL     1       1.629   8.322  20.107  0.00  0.00    +0.000 C 
ATOM     15  C   UNL     1       1.172   9.606  18.024  0.00  0.00    +0.000 C 
BRANCH  15  16
ATOM     16  C   UNL     1       0.193  10.471  18.689  0.00  0.00    +0.000 C 
ATOM     17  C   UNL     1      -1.075  10.692  18.314  0.00  0.00    +0.000 C 
BRANCH  17  18
ATOM     18  C   UNL     1      -2.023  11.525  19.076  0.00  0.00    +0.000 C 
ATOM     19  C   UNL     1      -3.440  11.668  18.560  0.00  0.00    +0.000 C 
ATOM     20  C   UNL     1      -1.618  12.165  20.196  0.00  0.00    +0.000 C 
BRANCH  20  21
ATOM     21  C   UNL     1      -2.510  13.029  21.020  0.00  0.00    +0.000 C 
ATOM     22  O   UNL     1      -2.711  14.218  20.846  0.00  0.00    +0.000 OA
BRANCH  21  23
ATOM     23  O   UNL     1      -3.103  12.337  22.014  0.00  0.00    +0.000 OA
ATOM     24  H   UNL     1      -3.817  12.800  22.486  0.00  0.00    +0.000 HD
ENDBRANCH  21  23
ENDBRANCH  20  21
ENDBRANCH  17  18
ENDBRANCH  15  16
ENDBRANCH   2  13
TORSDOF 6
ENDMDL
MODEL 3
REMARK VINA RESULT:      -7.0      5.577      8.184
REMARK  Name = 
REMARK  11 active torsions:
REMARK  status: ('A' for Active; 'I' for Inactive)
REMARK    1  A    between atoms: C_1  and  C_2
REMARK    2  A    between atoms: C_3  and  C_4
REMARK    3  A    between atoms: C_5  and  C_6
REMARK    4  A    between atoms: C_6  and  C_7
REMARK    5  A    between atoms: C_8  and  C_9
REMARK    6  A    between atoms: C_10  and  C_11
REMARK    7  A    between atoms: C_11  and  C_12
REMARK    8  A    between atoms: C_13  and  C_14
REMARK    9  A    between atoms: C_14  and  O_16
REMARK   10  A    between atoms: C_17  and  C_18
REMARK   11  A    between atoms: C_17  and  C_19
REMARK                            x       y       z     vdW  Elec       q    Type
REMARK                         _______ _______ _______ _____ _____    ______ ____
ROOT
ATOM      1  C   UNL     1       0.687  10.022  18.794  0.00  0.00    +0.000 C 
ATOM      2  C   UNL     1       0.990   8.838  19.364  0.00  0.00    +0.000 C 
ENDROOT
BRANCH   1   5
ATOM      3  C   UNL     1      -2.035   9.913  17.398  0.00  0.00    +0.000 C 
ATOM      4  C   UNL     1      -1.622  10.877  18.482  0.00  0.00    +0.000 C 
ATOM      5  C   UNL     1      -0.433  10.916  19.135  0.00  0.00    +0.000 C 
ATOM      6  C   UNL     1      -0.230  11.798  20.395  0.00  0.00    +0.000 C 
ATOM      7  C   UNL     1       1.214  12.314  20.605  0.00  0.00    +0.000 C 
ATOM      8  C   UNL     1      -0.616  10.974  21.648  0.00  0.00    +0.000 C 
ATOM      9  C   UNL     1      -1.114  13.060  20.302  0.00  0.00    +0.000 C 
ATOM     10  C   UNL     1      -2.570  12.758  20.022  0.00  0.00    +0.000 C 
ATOM     11  C   UNL     1      -2.748  11.794  18.881  0.00  0.00    +0.000 C 
ATOM     12  O   UNL     1      -3.835  11.731  18.304  0.00  0.00    +0.000 OA
ENDBRANCH   1   5
BRANCH   2  13
ATOM     13  C   UNL     1       2.103   7.936  19.004  0.00  0.00    +0.000 C 
ATOM     14  C   UNL     1       2.416   6.747  19.891  0.00  0.00    +0.000 C 
ATOM     15  C   UNL     1       2.846   8.165  17.890  0.00  0.00    +0.000 C 
BRANCH  15  16
ATOM     16  C   UNL     1       3.998   7.356  17.480  0.00  0.00    +0.000 C 
ATOM     17  C   UNL     1       3.971   6.149  16.898  0.00  0.00    +0.000 C 
BRANCH  17  18
ATOM     18  C   UNL     1       5.175   5.425  16.451  0.00  0.00    +0.000 C 
ATOM     19  C   UNL     1       5.999   4.682  17.482  0.00  0.00    +0.000 C 
ATOM     20  C   UNL     1       5.541   5.454  15.150  0.00  0.00    +0.000 C 
BRANCH  20  21
ATOM     21  C   UNL     1       6.745   4.754  14.617  0.00  0.00    +0.000 C 
ATOM     22  O   UNL     1       7.865   5.226  14.535  0.00  0.00    +0.000 OA
BRANCH  21  23
ATOM     23  O   UNL     1       6.463   3.496  14.223  0.00  0.00    +0.000 OA
ATOM     24  H   UNL     1       5.628   3.381  13.737  0.00  0.00    +0.000 HD
ENDBRANCH  21  23
ENDBRANCH  20  21
ENDBRANCH  17  18
ENDBRANCH  15  16
ENDBRANCH   2  13
TORSDOF 6
ENDMDL
MODEL 4
REMARK VINA RESULT:      -6.9      5.463      7.956
REMARK  Name = 
REMARK  11 active torsions:
REMARK  status: ('A' for Active; 'I' for Inactive)
REMARK    1  A    between atoms: C_1  and  C_2
REMARK    2  A    between atoms: C_3  and  C_4
REMARK    3  A    between atoms: C_5  and  C_6
REMARK    4  A    between atoms: C_6  and  C_7
REMARK    5  A    between atoms: C_8  and  C_9
REMARK    6  A    between atoms: C_10  and  C_11
REMARK    7  A    between atoms: C_11  and  C_12
REMARK    8  A    between atoms: C_13  and  C_14
REMARK    9  A    between atoms: C_14  and  O_16
REMARK   10  A    between atoms: C_17  and  C_18
REMARK   11  A    between atoms: C_17  and  C_19
REMARK                            x       y       z     vdW  Elec       q    Type
REMARK                         _______ _______ _______ _____ _____    ______ ____
ROOT
ATOM      1  C   UNL     1       3.325   6.568  18.377  0.00  0.00    +0.000 C 
ATOM      2  C   UNL     1       2.711   7.715  18.019  0.00  0.00    +0.000 C 
ENDROOT
BRANCH   1   5
ATOM      3  C   UNL     1       5.961   7.685  17.296  0.00  0.00    +0.000 C 
ATOM      4  C   UNL     1       5.419   6.296  17.074  0.00  0.00    +0.000 C 
ATOM      5  C   UNL     1       4.271   5.774  17.575  0.00  0.00    +0.000 C 
ATOM      6  C   UNL     1       3.958   4.258  17.470  0.00  0.00    +0.000 C 
ATOM      7  C   UNL     1       2.453   3.906  17.395  0.00  0.00    +0.000 C 
ATOM      8  C   UNL     1       4.541   3.542  18.713  0.00  0.00    +0.000 C 
ATOM      9  C   UNL     1       4.587   3.677  16.185  0.00  0.00    +0.000 C 
ATOM     10  C   UNL     1       6.061   3.987  16.042  0.00  0.00    +0.000 C 
ATOM     11  C   UNL     1       6.370   5.440  16.279  0.00  0.00    +0.000 C 
ATOM     12  O   UNL     1       7.425   5.913  15.854  0.00  0.00    +0.000 OA
ENDBRANCH   1   5
BRANCH   2  13
ATOM     13  C   UNL     1       1.747   8.495  18.821  0.00  0.00    +0.000 C 
ATOM     14  C   UNL     1       0.895   9.549  18.141  0.00  0.00    +0.000 C 
ATOM     15  C   UNL     1       1.621   8.279  20.155  0.00  0.00    +0.000 C 
BRANCH  15  16
ATOM     16  C   UNL     1       0.730   9.036  21.040  0.00  0.00    +0.000 C 
ATOM     17  C   UNL     1       0.739  10.360  21.253  0.00  0.00    +0.000 C 
BRANCH  17  18
ATOM     18  C   UNL     1      -0.236  11.060  22.109  0.00  0.00    +0.000 C 
ATOM     19  C   UNL     1      -0.983  10.263  23.158  0.00  0.00    +0.000 C 
ATOM     20  C   UNL     1      -0.470  12.380  21.933  0.00  0.00    +0.000 C 
BRANCH  20  21
ATOM     21  C   UNL     1      -1.441  13.161  22.751  0.00  0.00    +0.000 C 
ATOM     22  O   UNL     1      -2.648  13.189  22.589  0.00  0.00    +0.000 OA
BRANCH  21  23
ATOM     23  O   UNL     1      -0.829  13.857  23.730  0.00  0.00    +0.000 OA
ATOM     24  H   UNL     1      -1.358  14.016  24.531  0.00  0.00    +0.000 HD
ENDBRANCH  21  23
ENDBRANCH  20  21
ENDBRANCH  17  18
ENDBRANCH  15  16
ENDBRANCH   2  13
TORSDOF 6
ENDMDL
MODEL 5
REMARK VINA RESULT:      -6.9      6.165      9.865
REMARK  Name = 
REMARK  11 active torsions:
REMARK  status: ('A' for Active; 'I' for Inactive)
REMARK    1  A    between atoms: C_1  and  C_2
REMARK    2  A    between atoms: C_3  and  C_4
REMARK    3  A    between atoms: C_5  and  C_6
REMARK    4  A    between atoms: C_6  and  C_7
REMARK    5  A    between atoms: C_8  and  C_9
REMARK    6  A    between atoms: C_10  and  C_11
REMARK    7  A    between atoms: C_11  and  C_12
REMARK    8  A    between atoms: C_13  and  C_14
REMARK    9  A    between atoms: C_14  and  O_16
REMARK   10  A    between atoms: C_17  and  C_18
REMARK   11  A    between atoms: C_17  and  C_19
REMARK                            x       y       z     vdW  Elec       q    Type
REMARK                         _______ _______ _______ _____ _____    ______ ____
ROOT
ATOM      1  C   UNL     1      -0.328   9.942  20.275  0.00  0.00    +0.000 C 
ATOM      2  C   UNL     1       0.965   9.691  19.981  0.00  0.00    +0.000 C 
ENDROOT
BRANCH   1   5
ATOM      3  C   UNL     1      -0.862  10.767  23.174  0.00  0.00    +0.000 C 
ATOM      4  C   UNL     1      -1.185  11.571  21.940  0.00  0.00    +0.000 C 
ATOM      5  C   UNL     1      -0.923  11.236  20.651  0.00  0.00    +0.000 C 
ATOM      6  C   UNL     1      -1.084  12.262  19.500  0.00  0.00    +0.000 C 
ATOM      7  C   UNL     1      -1.459  11.650  18.128  0.00  0.00    +0.000 C 
ATOM      8  C   UNL     1       0.251  13.024  19.320  0.00  0.00    +0.000 C 
ATOM      9  C   UNL     1      -2.216  13.258  19.836  0.00  0.00    +0.000 C 
ATOM     10  C   UNL     1      -2.062  13.911  21.191  0.00  0.00    +0.000 C 
ATOM     11  C   UNL     1      -1.771  12.916  22.281  0.00  0.00    +0.000 C 
ATOM     12  O   UNL     1      -1.977  13.225  23.456  0.00  0.00    +0.000 OA
ENDBRANCH   1   5
BRANCH   2  13
ATOM     13  C   UNL     1       1.559   8.387  19.625  0.00  0.00    +0.000 C 
ATOM     14  C   UNL     1       2.136   8.186  18.238  0.00  0.00    +0.000 C 
ATOM     15  C   UNL     1       1.588   7.370  20.525  0.00  0.00    +0.000 C 
BRANCH  15  16
ATOM     16  C   UNL     1       2.109   6.029  20.247  0.00  0.00    +0.000 C 
ATOM     17  C   UNL     1       1.919   4.921  20.978  0.00  0.00    +0.000 C 
BRANCH  17  18
ATOM     18  C   UNL     1       2.421   3.589  20.597  0.00  0.00    +0.000 C 
ATOM     19  C   UNL     1       1.833   2.370  21.277  0.00  0.00    +0.000 C 
ATOM     20  C   UNL     1       3.405   3.471  19.677  0.00  0.00    +0.000 C 
BRANCH  20  21
ATOM     21  C   UNL     1       3.972   2.164  19.238  0.00  0.00    +0.000 C 
ATOM     22  O   UNL     1       3.509   1.442  18.373  0.00  0.00    +0.000 OA
BRANCH  21  23
ATOM     23  O   UNL     1       5.094   1.849  19.916  0.00  0.00    +0.000 OA
ATOM     24  H   UNL     1       5.841   1.535  19.376  0.00  0.00    +0.000 HD
ENDBRANCH  21  23
ENDBRANCH  20  21
ENDBRANCH  17  18
ENDBRANCH  15  16
ENDBRANCH   2  13
TORSDOF 6
ENDMDL
MODEL 6
REMARK VINA RESULT:      -6.9      5.782      8.287
REMARK  Name = 
REMARK  11 active torsions:
REMARK  status: ('A' for Active; 'I' for Inactive)
REMARK    1  A    between atoms: C_1  and  C_2
REMARK    2  A    between atoms: C_3  and  C_4
REMARK    3  A    between atoms: C_5  and  C_6
REMARK    4  A    between atoms: C_6  and  C_7
REMARK    5  A    between atoms: C_8  and  C_9
REMARK    6  A    between atoms: C_10  and  C_11
REMARK    7  A    between atoms: C_11  and  C_12
REMARK    8  A    between atoms: C_13  and  C_14
REMARK    9  A    between atoms: C_14  and  O_16
REMARK   10  A    between atoms: C_17  and  C_18
REMARK   11  A    between atoms: C_17  and  C_19
REMARK                            x       y       z     vdW  Elec       q    Type
REMARK                         _______ _______ _______ _____ _____    ______ ____
ROOT
ATOM      1  C   UNL     1       3.590   6.723  18.405  0.00  0.00    +0.000 C 
ATOM      2  C   UNL     1       2.748   7.681  17.963  0.00  0.00    +0.000 C 
ENDROOT
BRANCH   1   5
ATOM      3  C   UNL     1       6.276   7.613  17.238  0.00  0.00    +0.000 C 
ATOM      4  C   UNL     1       5.620   6.268  17.053  0.00  0.00    +0.000 C 
ATOM      5  C   UNL     1       4.448   5.846  17.591  0.00  0.00    +0.000 C 
ATOM      6  C   UNL     1       4.014   4.358  17.520  0.00  0.00    +0.000 C 
ATOM      7  C   UNL     1       2.484   4.126  17.489  0.00  0.00    +0.000 C 
ATOM      8  C   UNL     1       4.572   3.615  18.758  0.00  0.00    +0.000 C 
ATOM      9  C   UNL     1       4.560   3.712  16.228  0.00  0.00    +0.000 C 
ATOM     10  C   UNL     1       6.049   3.901  16.042  0.00  0.00    +0.000 C 
ATOM     11  C   UNL     1       6.479   5.328  16.248  0.00  0.00    +0.000 C 
ATOM     12  O   UNL     1       7.556   5.710  15.788  0.00  0.00    +0.000 OA
ENDBRANCH   1   5
BRANCH   2  13
ATOM     13  C   UNL     1       1.874   8.544  18.784  0.00  0.00    +0.000 C 
ATOM     14  C   UNL     1       1.615   8.179  20.232  0.00  0.00    +0.000 C 
ATOM     15  C   UNL     1       1.300   9.654  18.251  0.00  0.00    +0.000 C 
BRANCH  15  16
ATOM     16  C   UNL     1       0.381  10.540  18.970  0.00  0.00    +0.000 C 
ATOM     17  C   UNL     1      -0.130  11.700  18.533  0.00  0.00    +0.000 C 
BRANCH  17  18
ATOM     18  C   UNL     1      -1.106  12.505  19.290  0.00  0.00    +0.000 C 
ATOM     19  C   UNL     1      -0.731  13.920  19.680  0.00  0.00    +0.000 C 
ATOM     20  C   UNL     1      -2.296  11.972  19.646  0.00  0.00    +0.000 C 
BRANCH  20  21
ATOM     21  C   UNL     1      -3.335  12.715  20.415  0.00  0.00    +0.000 C 
ATOM     22  O   UNL     1      -3.398  12.802  21.628  0.00  0.00    +0.000 OA
BRANCH  21  23
ATOM     23  O   UNL     1      -4.231  13.312  19.603  0.00  0.00    +0.000 OA
ATOM     24  H   UNL     1      -3.988  13.355  18.661  0.00  0.00    +0.000 HD
ENDBRANCH  21  23
ENDBRANCH  20  21
ENDBRANCH  17  18
ENDBRANCH  15  16
ENDBRANCH   2  13
TORSDOF 6
ENDMDL
MODEL 7
REMARK VINA RESULT:      -6.8      5.498      8.134
REMARK  Name = 
REMARK  11 active torsions:
REMARK  status: ('A' for Active; 'I' for Inactive)
REMARK    1  A    between atoms: C_1  and  C_2
REMARK    2  A    between atoms: C_3  and  C_4
REMARK    3  A    between atoms: C_5  and  C_6
REMARK    4  A    between atoms: C_6  and  C_7
REMARK    5  A    between atoms: C_8  and  C_9
REMARK    6  A    between atoms: C_10  and  C_11
REMARK    7  A    between atoms: C_11  and  C_12
REMARK    8  A    between atoms: C_13  and  C_14
REMARK    9  A    between atoms: C_14  and  O_16
REMARK   10  A    between atoms: C_17  and  C_18
REMARK   11  A    between atoms: C_17  and  C_19
REMARK                            x       y       z     vdW  Elec       q    Type
REMARK                         _______ _______ _______ _____ _____    ______ ____
ROOT
ATOM      1  C   UNL     1       3.558   7.042  18.384  0.00  0.00    +0.000 C 
ATOM      2  C   UNL     1       2.719   7.934  17.817  0.00  0.00    +0.000 C 
ENDROOT
BRANCH   1   5
ATOM      3  C   UNL     1       6.357   7.362  17.189  0.00  0.00    +0.000 C 
ATOM      4  C   UNL     1       5.508   6.116  17.161  0.00  0.00    +0.000 C 
ATOM      5  C   UNL     1       4.281   5.948  17.716  0.00  0.00    +0.000 C 
ATOM      6  C   UNL     1       3.628   4.545  17.825  0.00  0.00    +0.000 C 
ATOM      7  C   UNL     1       2.081   4.540  17.781  0.00  0.00    +0.000 C 
ATOM      8  C   UNL     1       4.057   3.898  19.164  0.00  0.00    +0.000 C 
ATOM      9  C   UNL     1       4.082   3.659  16.644  0.00  0.00    +0.000 C 
ATOM     10  C   UNL     1       5.584   3.599  16.478  0.00  0.00    +0.000 C 
ATOM     11  C   UNL     1       6.222   4.961  16.509  0.00  0.00    +0.000 C 
ATOM     12  O   UNL     1       7.348   5.115  16.034  0.00  0.00    +0.000 OA
ENDBRANCH   1   5
BRANCH   2  13
ATOM     13  C   UNL     1       1.979   9.017  18.497  0.00  0.00    +0.000 C 
ATOM     14  C   UNL     1       2.002  10.415  17.911  0.00  0.00    +0.000 C 
ATOM     15  C   UNL     1       1.286   8.772  19.638  0.00  0.00    +0.000 C 
BRANCH  15  16
ATOM     16  C   UNL     1       0.567   9.790  20.409  0.00  0.00    +0.000 C 
ATOM     17  C   UNL     1      -0.503  10.495  20.014  0.00  0.00    +0.000 C 
BRANCH  17  18
ATOM     18  C   UNL     1      -1.216  11.457  20.874  0.00  0.00    +0.000 C 
ATOM     19  C   UNL     1      -1.999  12.574  20.217  0.00  0.00    +0.000 C 
ATOM     20  C   UNL     1      -1.143  11.350  22.220  0.00  0.00    +0.000 C 
BRANCH  20  21
ATOM     21  C   UNL     1      -1.828  12.282  23.159  0.00  0.00    +0.000 C 
ATOM     22  O   UNL     1      -1.402  13.362  23.530  0.00  0.00    +0.000 OA
BRANCH  21  23
ATOM     23  O   UNL     1      -3.017  11.797  23.572  0.00  0.00    +0.000 OA
ATOM     24  H   UNL     1      -3.802  12.282  23.265  0.00  0.00    +0.000 HD
ENDBRANCH  21  23
ENDBRANCH  20  21
ENDBRANCH  17  18
ENDBRANCH  15  16
ENDBRANCH   2  13
TORSDOF 6
ENDMDL
MODEL 8
REMARK VINA RESULT:      -6.8      5.923      8.864
REMARK  Name = 
REMARK  11 active torsions:
REMARK  status: ('A' for Active; 'I' for Inactive)
REMARK    1  A    between atoms: C_1  and  C_2
REMARK    2  A    between atoms: C_3  and  C_4
REMARK    3  A    between atoms: C_5  and  C_6
REMARK    4  A    between atoms: C_6  and  C_7
REMARK    5  A    between atoms: C_8  and  C_9
REMARK    6  A    between atoms: C_10  and  C_11
REMARK    7  A    between atoms: C_11  and  C_12
REMARK    8  A    between atoms: C_13  and  C_14
REMARK    9  A    between atoms: C_14  and  O_16
REMARK   10  A    between atoms: C_17  and  C_18
REMARK   11  A    between atoms: C_17  and  C_19
REMARK                            x       y       z     vdW  Elec       q    Type
REMARK                         _______ _______ _______ _____ _____    ______ ____
ROOT
ATOM      1  C   UNL     1       0.564  10.779  20.340  0.00  0.00    +0.000 C 
ATOM      2  C   UNL     1       0.440   9.619  19.661  0.00  0.00    +0.000 C 
ENDROOT
BRANCH   1   5
ATOM      3  C   UNL     1      -0.763  10.177  23.032  0.00  0.00    +0.000 C 
ATOM      4  C   UNL     1      -1.120  11.297  22.087  0.00  0.00    +0.000 C 
ATOM      5  C   UNL     1      -0.520  11.598  20.909  0.00  0.00    +0.000 C 
ATOM      6  C   UNL     1      -0.825  12.922  20.160  0.00  0.00    +0.000 C 
ATOM      7  C   UNL     1      -0.690  12.847  18.619  0.00  0.00    +0.000 C 
ATOM      8  C   UNL     1       0.150  14.015  20.660  0.00  0.00    +0.000 C 
ATOM      9  C   UNL     1      -2.283  13.355  20.429  0.00  0.00    +0.000 C 
ATOM     10  C   UNL     1      -2.632  13.415  21.900  0.00  0.00    +0.000 C 
ATOM     11  C   UNL     1      -2.207  12.178  22.644  0.00  0.00    +0.000 C 
ATOM     12  O   UNL     1      -2.727  11.915  23.729  0.00  0.00    +0.000 OA
ENDBRANCH   1   5
BRANCH   2  13
ATOM     13  C   UNL     1       1.530   8.811  19.075  0.00  0.00    +0.000 C 
ATOM     14  C   UNL     1       2.200   9.281  17.799  0.00  0.00    +0.000 C 
ATOM     15  C   UNL     1       1.930   7.656  19.666  0.00  0.00    +0.000 C 
BRANCH  15  16
ATOM     16  C   UNL     1       2.964   6.765  19.132  0.00  0.00    +0.000 C 
ATOM     17  C   UNL     1       2.788   5.737  18.289  0.00  0.00    +0.000 C 
BRANCH  17  18
ATOM     18  C   UNL     1       3.890   4.926  17.742  0.00  0.00    +0.000 C 
ATOM     19  C   UNL     1       3.596   3.508  17.298  0.00  0.00    +0.000 C 
ATOM     20  C   UNL     1       5.140   5.438  17.668  0.00  0.00    +0.000 C 
BRANCH  20  21
ATOM     21  C   UNL     1       6.309   4.685  17.132  0.00  0.00    +0.000 C 
ATOM     22  O   UNL     1       6.602   4.567  15.955  0.00  0.00    +0.000 OA
BRANCH  21  23
ATOM     23  O   UNL     1       7.043   4.128  18.116  0.00  0.00    +0.000 OA
ATOM     24  H   UNL     1       6.681   4.213  19.016  0.00  0.00    +0.000 HD
ENDBRANCH  21  23
ENDBRANCH  20  21
ENDBRANCH  17  18
ENDBRANCH  15  16
ENDBRANCH   2  13
TORSDOF 6
ENDMDL
MODEL 9
REMARK VINA RESULT:      -6.8      5.318      7.951
REMARK  Name = 
REMARK  11 active torsions:
REMARK  status: ('A' for Active; 'I' for Inactive)
REMARK    1  A    between atoms: C_1  and  C_2
REMARK    2  A    between atoms: C_3  and  C_4
REMARK    3  A    between atoms: C_5  and  C_6
REMARK    4  A    between atoms: C_6  and  C_7
REMARK    5  A    between atoms: C_8  and  C_9
REMARK    6  A    between atoms: C_10  and  C_11
REMARK    7  A    between atoms: C_11  and  C_12
REMARK    8  A    between atoms: C_13  and  C_14
REMARK    9  A    between atoms: C_14  and  O_16
REMARK   10  A    between atoms: C_17  and  C_18
REMARK   11  A    between atoms: C_17  and  C_19
REMARK                            x       y       z     vdW  Elec       q    Type
REMARK                         _______ _______ _______ _____ _____    ______ ____
ROOT
ATOM      1  C   UNL     1       0.857   9.342  20.016  0.00  0.00    +0.000 C 
ATOM      2  C   UNL     1       1.062   8.077  20.440  0.00  0.00    +0.000 C 
ENDROOT
BRANCH   1   5
ATOM      3  C   UNL     1       0.332   9.591  23.022  0.00  0.00    +0.000 C 
ATOM      4  C   UNL     1      -0.304  10.414  21.929  0.00  0.00    +0.000 C 
ATOM      5  C   UNL     1      -0.056  10.340  20.597  0.00  0.00    +0.000 C 
ATOM      6  C   UNL     1      -0.597  11.411  19.613  0.00  0.00    +0.000 C 
ATOM      7  C   UNL     1      -0.882  10.896  18.182  0.00  0.00    +0.000 C 
ATOM      8  C   UNL     1       0.443  12.552  19.499  0.00  0.00    +0.000 C 
ATOM      9  C   UNL     1      -1.939  11.972  20.130  0.00  0.00    +0.000 C 
ATOM     10  C   UNL     1      -1.877  12.462  21.560  0.00  0.00    +0.000 C 
ATOM     11  C   UNL     1      -1.227  11.468  22.483  0.00  0.00    +0.000 C 
ATOM     12  O   UNL     1      -1.423  11.548  23.696  0.00  0.00    +0.000 OA
ENDBRANCH   1   5
BRANCH   2  13
ATOM     13  C   UNL     1       1.965   7.074  19.840  0.00  0.00    +0.000 C 
ATOM     14  C   UNL     1       2.175   5.747  20.542  0.00  0.00    +0.000 C 
ATOM     15  C   UNL     1       2.608   7.331  18.672  0.00  0.00    +0.000 C 
BRANCH  15  16
ATOM     16  C   UNL     1       3.558   6.420  18.028  0.00  0.00    +0.000 C 
ATOM     17  C   UNL     1       4.464   6.730  17.089  0.00  0.00    +0.000 C 
BRANCH  17  18
ATOM     18  C   UNL     1       5.436   5.769  16.536  0.00  0.00    +0.000 C 
ATOM     19  C   UNL     1       6.222   4.900  17.496  0.00  0.00    +0.000 C 
ATOM     20  C   UNL     1       5.632   5.692  15.201  0.00  0.00    +0.000 C 
BRANCH  20  21
ATOM     21  C   UNL     1       6.596   4.753  14.562  0.00  0.00    +0.000 C 
ATOM     22  O   UNL     1       6.357   3.606  14.226  0.00  0.00    +0.000 OA
BRANCH  21  23
ATOM     23  O   UNL     1       7.806   5.319  14.379  0.00  0.00    +0.000 OA
ATOM     24  H   UNL     1       8.073   5.974  15.047  0.00  0.00    +0.000 HD
ENDBRANCH  21  23
ENDBRANCH  20  21
ENDBRANCH  17  18
ENDBRANCH  15  16
ENDBRANCH   2  13
TORSDOF 6
ENDMDL
