MODEL 1
REMARK VINA RESULT:      -8.2      0.000      0.000
REMARK  Name = 
REMARK  9 active torsions:
REMARK  status: ('A' for Active; 'I' for Inactive)
REMARK    1  A    between atoms: C_1  and  C_2
REMARK    2  A    between atoms: C_2  and  C_3
REMARK    3  A    between atoms: C_3  and  N_4
REMARK    4  A    between atoms: C_10  and  N_11
REMARK    5  A    between atoms: N_11  and  S_12
REMARK    6  A    between atoms: S_12  and  C_15
REMARK    7  A    between atoms: C_18  and  C_19
REMARK    8  A    between atoms: C_19  and  C_20
REMARK    9  A    between atoms: C_19  and  C_21
REMARK                            x       y       z     vdW  Elec       q    Type
REMARK                         _______ _______ _______ _____ _____    ______ ____
ROOT
ATOM      1  N   UNL     1       3.144   2.269  19.124  0.00  0.00    +0.000 N 
ATOM      2  H   UNL     1       3.384   1.313  19.378  0.00  0.00    +0.000 HD
ENDROOT
BRANCH   1   9
ATOM      3  N   UNL     1       6.958   5.626  16.967  0.00  0.00    +0.000 N 
ATOM      4  C   UNL     1       6.853   5.217  15.650  0.00  0.00    +0.000 A 
ATOM      5  O   UNL     1       7.510   5.627  14.708  0.00  0.00    +0.000 OA
ATOM      6  O   UNL     1       5.852   4.229  15.522  0.00  0.00    +0.000 OA
ATOM      7  C   UNL     1       5.398   4.072  16.828  0.00  0.00    +0.000 A 
ATOM      8  C   UNL     1       4.416   3.192  17.244  0.00  0.00    +0.000 A 
ATOM      9  C   UNL     1       4.128   3.156  18.613  0.00  0.00    +0.000 A 
ATOM     10  C   UNL     1       4.789   4.020  19.510  0.00  0.00    +0.000 A 
ATOM     11  C   UNL     1       5.779   4.902  19.062  0.00  0.00    +0.000 A 
ATOM     12  C   UNL     1       6.059   4.897  17.711  0.00  0.00    +0.000 A 
BRANCH   3  13
ATOM     13  C   UNL     1       7.879   6.608  17.485  0.00  0.00    +0.000 C 
BRANCH  13  15
ATOM     14  C   UNL     1       8.275   9.034  18.031  0.00  0.00    +0.000 C 
ATOM     15  C   UNL     1       7.274   8.012  17.515  0.00  0.00    +0.000 C 
ENDBRANCH  13  15
ENDBRANCH   3  13
ENDBRANCH   1   9
BRANCH   1  16
ATOM     16  S   UNL     1       1.592   2.806  19.486  0.00  0.00    +0.000 S 
ATOM     17  O   UNL     1       0.758   2.443  18.359  0.00  0.00    +0.000 OA
ATOM     18  O   UNL     1       1.254   2.397  20.833  0.00  0.00    +0.000 OA
BRANCH  16  19
ATOM     19  C   UNL     1       1.764   4.580  19.480  0.00  0.00    +0.000 A 
ATOM     20  C   UNL     1       1.724   5.329  20.658  0.00  0.00    +0.000 A 
ATOM     21  C   UNL     1       1.761   6.728  20.576  0.00  0.00    +0.000 A 
ATOM     22  C   UNL     1       1.876   7.384  19.334  0.00  0.00    +0.000 A 
ATOM     23  C   UNL     1       2.017   6.602  18.179  0.00  0.00    +0.000 A 
ATOM     24  C   UNL     1       1.956   5.212  18.249  0.00  0.00    +0.000 A 
BRANCH  22  25
ATOM     25  C   UNL     1       1.818   8.903  19.274  0.00  0.00    +0.000 C 
ATOM     26  C   UNL     1       1.466   9.426  17.881  0.00  0.00    +0.000 C 
ATOM     27  C   UNL     1       0.849   9.490  20.308  0.00  0.00    +0.000 C 
ENDBRANCH  22  25
ENDBRANCH  16  19
ENDBRANCH   1  16
TORSDOF 6
ENDMDL
MODEL 2
REMARK VINA RESULT:      -8.1      3.286      6.890
REMARK  Name = 
REMARK  9 active torsions:
REMARK  status: ('A' for Active; 'I' for Inactive)
REMARK    1  A    between atoms: C_1  and  C_2
REMARK    2  A    between atoms: C_2  and  C_3
REMARK    3  A    between atoms: C_3  and  N_4
REMARK    4  A    between atoms: C_10  and  N_11
REMARK    5  A    between atoms: N_11  and  S_12
REMARK    6  A    between atoms: S_12  and  C_15
REMARK    7  A    between atoms: C_18  and  C_19
REMARK    8  A    between atoms: C_19  and  C_20
REMARK    9  A    between atoms: C_19  and  C_21
REMARK                            x       y       z     vdW  Elec       q    Type
REMARK                         _______ _______ _______ _____ _____    ______ ____
ROOT
ATOM      1  N   UNL     1       3.419   4.737  18.796  0.00  0.00    +0.000 N 
ATOM      2  H   UNL     1       2.866   3.944  18.475  0.00  0.00    +0.000 HD
ENDROOT
BRANCH   1   9
ATOM      3  N   UNL     1       1.058   9.657  19.624  0.00  0.00    +0.000 N 
ATOM      4  C   UNL     1       0.698   9.477  20.947  0.00  0.00    +0.000 A 
ATOM      5  O   UNL     1       0.098  10.274  21.650  0.00  0.00    +0.000 OA
ATOM      6  O   UNL     1       1.126   8.212  21.404  0.00  0.00    +0.000 OA
ATOM      7  C   UNL     1       1.732   7.661  20.279  0.00  0.00    +0.000 A 
ATOM      8  C   UNL     1       2.303   6.404  20.202  0.00  0.00    +0.000 A 
ATOM      9  C   UNL     1       2.829   6.017  18.964  0.00  0.00    +0.000 A 
ATOM     10  C   UNL     1       2.809   6.900  17.866  0.00  0.00    +0.000 A 
ATOM     11  C   UNL     1       2.224   8.167  17.973  0.00  0.00    +0.000 A 
ATOM     12  C   UNL     1       1.692   8.511  19.197  0.00  0.00    +0.000 A 
BRANCH   3  13
ATOM     13  C   UNL     1       0.782  10.817  18.812  0.00  0.00    +0.000 C 
BRANCH  13  15
ATOM     14  C   UNL     1       2.610  12.372  18.054  0.00  0.00    +0.000 C 
ATOM     15  C   UNL     1       1.661  12.010  19.185  0.00  0.00    +0.000 C 
ENDBRANCH  13  15
ENDBRANCH   3  13
ENDBRANCH   1   9
BRANCH   1  16
ATOM     16  S   UNL     1       5.079   4.516  18.954  0.00  0.00    +0.000 S 
ATOM     17  O   UNL     1       5.593   5.712  19.589  0.00  0.00    +0.000 OA
ATOM     18  O   UNL     1       5.329   3.204  19.512  0.00  0.00    +0.000 OA
BRANCH  16  19
ATOM     19  C   UNL     1       5.652   4.513  17.267  0.00  0.00    +0.000 A 
ATOM     20  C   UNL     1       6.946   4.915  16.926  0.00  0.00    +0.000 A 
ATOM     21  C   UNL     1       7.301   4.988  15.572  0.00  0.00    +0.000 A 
ATOM     22  C   UNL     1       6.391   4.628  14.558  0.00  0.00    +0.000 A 
ATOM     23  C   UNL     1       5.136   4.130  14.936  0.00  0.00    +0.000 A 
ATOM     24  C   UNL     1       4.766   4.078  16.278  0.00  0.00    +0.000 A 
BRANCH  22  25
ATOM     25  C   UNL     1       6.777   4.809  13.098  0.00  0.00    +0.000 C 
ATOM     26  C   UNL     1       8.206   5.324  12.925  0.00  0.00    +0.000 C 
ATOM     27  C   UNL     1       6.587   3.525  12.281  0.00  0.00    +0.000 C 
ENDBRANCH  22  25
ENDBRANCH  16  19
ENDBRANCH   1  16
TORSDOF 6
ENDMDL
MODEL 3
REMARK VINA RESULT:      -8.1      3.357      6.899
REMARK  Name = 
REMARK  9 active torsions:
REMARK  status: ('A' for Active; 'I' for Inactive)
REMARK    1  A    between atoms: C_1  and  C_2
REMARK    2  A    between atoms: C_2  and  C_3
REMARK    3  A    between atoms: C_3  and  N_4
REMARK    4  A    between atoms: C_10  and  N_11
REMARK    5  A    between atoms: N_11  and  S_12
REMARK    6  A    between atoms: S_12  and  C_15
REMARK    7  A    between atoms: C_18  and  C_19
REMARK    8  A    between atoms: C_19  and  C_20
REMARK    9  A    between atoms: C_19  and  C_21
REMARK                            x       y       z     vdW  Elec       q    Type
REMARK                         _______ _______ _______ _____ _____    ______ ____
ROOT
ATOM      1  N   UNL     1       3.329   4.762  18.975  0.00  0.00    +0.000 N 
ATOM      2  H   UNL     1       2.737   3.962  18.761  0.00  0.00    +0.000 HD
ENDROOT
BRANCH   1   9
ATOM      3  N   UNL     1       1.146   9.806  19.483  0.00  0.00    +0.000 N 
ATOM      4  C   UNL     1       0.809   9.737  20.823  0.00  0.00    +0.000 A 
ATOM      5  O   UNL     1       0.251  10.603  21.476  0.00  0.00    +0.000 OA
ATOM      6  O   UNL     1       1.206   8.494  21.364  0.00  0.00    +0.000 OA
ATOM      7  C   UNL     1       1.769   7.843  20.271  0.00  0.00    +0.000 A 
ATOM      8  C   UNL     1       2.298   6.565  20.276  0.00  0.00    +0.000 A 
ATOM      9  C   UNL     1       2.784   6.071  19.060  0.00  0.00    +0.000 A 
ATOM     10  C   UNL     1       2.768   6.871  17.900  0.00  0.00    +0.000 A 
ATOM     11  C   UNL     1       2.228   8.162  17.924  0.00  0.00    +0.000 A 
ATOM     12  C   UNL     1       1.733   8.612  19.130  0.00  0.00    +0.000 A 
BRANCH   3  13
ATOM     13  C   UNL     1       0.890  10.913  18.594  0.00  0.00    +0.000 C 
BRANCH  13  15
ATOM     14  C   UNL     1       1.643  13.312  18.461  0.00  0.00    +0.000 C 
ATOM     15  C   UNL     1       2.087  11.857  18.480  0.00  0.00    +0.000 C 
ENDBRANCH  13  15
ENDBRANCH   3  13
ENDBRANCH   1   9
BRANCH   1  16
ATOM     16  S   UNL     1       4.989   4.504  19.057  0.00  0.00    +0.000 S 
ATOM     17  O   UNL     1       5.563   5.703  19.634  0.00  0.00    +0.000 OA
ATOM     18  O   UNL     1       5.235   3.201  19.636  0.00  0.00    +0.000 OA
BRANCH  16  19
ATOM     19  C   UNL     1       5.477   4.444  17.344  0.00  0.00    +0.000 A 
ATOM     20  C   UNL     1       4.584   4.074  16.335  0.00  0.00    +0.000 A 
ATOM     21  C   UNL     1       5.057   3.947  15.022  0.00  0.00    +0.000 A 
ATOM     22  C   UNL     1       6.401   4.222  14.700  0.00  0.00    +0.000 A 
ATOM     23  C   UNL     1       7.246   4.691  15.715  0.00  0.00    +0.000 A 
ATOM     24  C   UNL     1       6.791   4.797  17.028  0.00  0.00    +0.000 A 
BRANCH  22  25
ATOM     25  C   UNL     1       6.902   3.983  13.283  0.00  0.00    +0.000 C 
ATOM     26  C   UNL     1       5.791   3.545  12.330  0.00  0.00    +0.000 C 
ATOM     27  C   UNL     1       7.628   5.205  12.708  0.00  0.00    +0.000 C 
ENDBRANCH  22  25
ENDBRANCH  16  19
ENDBRANCH   1  16
TORSDOF 6
ENDMDL
MODEL 4
REMARK VINA RESULT:      -7.9      5.426      8.904
REMARK  Name = 
REMARK  9 active torsions:
REMARK  status: ('A' for Active; 'I' for Inactive)
REMARK    1  A    between atoms: C_1  and  C_2
REMARK    2  A    between atoms: C_2  and  C_3
REMARK    3  A    between atoms: C_3  and  N_4
REMARK    4  A    between atoms: C_10  and  N_11
REMARK    5  A    between atoms: N_11  and  S_12
REMARK    6  A    between atoms: S_12  and  C_15
REMARK    7  A    between atoms: C_18  and  C_19
REMARK    8  A    between atoms: C_19  and  C_20
REMARK    9  A    between atoms: C_19  and  C_21
REMARK                            x       y       z     vdW  Elec       q    Type
REMARK                         _______ _______ _______ _____ _____    ______ ____
ROOT
ATOM      1  N   UNL     1       0.777  10.306  20.178  0.00  0.00    +0.000 N 
ATOM      2  H   UNL     1       1.544  10.975  20.193  0.00  0.00    +0.000 HD
ENDROOT
BRANCH   1   9
ATOM      3  N   UNL     1      -3.717  11.220  17.106  0.00  0.00    +0.000 N 
ATOM      4  C   UNL     1      -3.365  10.447  16.014  0.00  0.00    +0.000 A 
ATOM      5  O   UNL     1      -4.011  10.303  14.989  0.00  0.00    +0.000 OA
ATOM      6  O   UNL     1      -2.121   9.819  16.240  0.00  0.00    +0.000 OA
ATOM      7  C   UNL     1      -1.761  10.280  17.502  0.00  0.00    +0.000 A 
ATOM      8  C   UNL     1      -0.596   9.965  18.177  0.00  0.00    +0.000 A 
ATOM      9  C   UNL     1      -0.400  10.564  19.426  0.00  0.00    +0.000 A 
ATOM     10  C   UNL     1      -1.379  11.415  19.978  0.00  0.00    +0.000 A 
ATOM     11  C   UNL     1      -2.550  11.716  19.273  0.00  0.00    +0.000 A 
ATOM     12  C   UNL     1      -2.704  11.131  18.034  0.00  0.00    +0.000 A 
BRANCH   3  13
ATOM     13  C   UNL     1      -4.911  12.019  17.238  0.00  0.00    +0.000 C 
BRANCH  13  15
ATOM     14  C   UNL     1      -6.316  11.838  19.319  0.00  0.00    +0.000 C 
ATOM     15  C   UNL     1      -6.041  11.265  17.937  0.00  0.00    +0.000 C 
ENDBRANCH  13  15
ENDBRANCH   3  13
ENDBRANCH   1   9
BRANCH   1  16
ATOM     16  S   UNL     1       0.883   8.975  21.200  0.00  0.00    +0.000 S 
ATOM     17  O   UNL     1       1.815   9.336  22.249  0.00  0.00    +0.000 OA
ATOM     18  O   UNL     1      -0.453   8.512  21.511  0.00  0.00    +0.000 OA
BRANCH  16  19
ATOM     19  C   UNL     1       1.668   7.741  20.182  0.00  0.00    +0.000 A 
ATOM     20  C   UNL     1       2.286   8.067  18.972  0.00  0.00    +0.000 A 
ATOM     21  C   UNL     1       2.793   7.037  18.169  0.00  0.00    +0.000 A 
ATOM     22  C   UNL     1       2.725   5.690  18.578  0.00  0.00    +0.000 A 
ATOM     23  C   UNL     1       2.192   5.406  19.843  0.00  0.00    +0.000 A 
ATOM     24  C   UNL     1       1.662   6.420  20.637  0.00  0.00    +0.000 A 
BRANCH  22  25
ATOM     25  C   UNL     1       3.200   4.591  17.640  0.00  0.00    +0.000 C 
ATOM     26  C   UNL     1       4.679   4.252  17.829  0.00  0.00    +0.000 C 
ATOM     27  C   UNL     1       2.356   3.316  17.763  0.00  0.00    +0.000 C 
ENDBRANCH  22  25
ENDBRANCH  16  19
ENDBRANCH   1  16
TORSDOF 6
ENDMDL
MODEL 5
REMARK VINA RESULT:      -7.9      3.263      7.069
REMARK  Name = 
REMARK  9 active torsions:
REMARK  status: ('A' for Active; 'I' for Inactive)
REMARK    1  A    between atoms: C_1  and  C_2
REMARK    2  A    between atoms: C_2  and  C_3
REMARK    3  A    between atoms: C_3  and  N_4
REMARK    4  A    between atoms: C_10  and  N_11
REMARK    5  A    between atoms: N_11  and  S_12
REMARK    6  A    between atoms: S_12  and  C_15
REMARK    7  A    between atoms: C_18  and  C_19
REMARK    8  A    between atoms: C_19  and  C_20
REMARK    9  A    between atoms: C_19  and  C_21
REMARK                            x       y       z     vdW  Elec       q    Type
REMARK                         _______ _______ _______ _____ _____    ______ ____
ROOT
ATOM      1  N   UNL     1       3.304   4.661  18.985  0.00  0.00    +0.000 N 
ATOM      2  H   UNL     1       2.715   3.859  18.770  0.00  0.00    +0.000 HD
ENDROOT
BRANCH   1   9
ATOM      3  N   UNL     1       1.065   9.645  19.766  0.00  0.00    +0.000 N 
ATOM      4  C   UNL     1       0.772   9.516  21.112  0.00  0.00    +0.000 A 
ATOM      5  O   UNL     1       0.222  10.346  21.817  0.00  0.00    +0.000 OA
ATOM      6  O   UNL     1       1.204   8.260  21.589  0.00  0.00    +0.000 OA
ATOM      7  C   UNL     1       1.741   7.661  20.454  0.00  0.00    +0.000 A 
ATOM      8  C   UNL     1       2.288   6.393  20.390  0.00  0.00    +0.000 A 
ATOM      9  C   UNL     1       2.742   5.956  19.140  0.00  0.00    +0.000 A 
ATOM     10  C   UNL     1       2.678   6.802  18.015  0.00  0.00    +0.000 A 
ATOM     11  C   UNL     1       2.120   8.082  18.109  0.00  0.00    +0.000 A 
ATOM     12  C   UNL     1       1.658   8.476  19.347  0.00  0.00    +0.000 A 
BRANCH   3  13
ATOM     13  C   UNL     1       0.764  10.782  18.931  0.00  0.00    +0.000 C 
BRANCH  13  15
ATOM     14  C   UNL     1      -1.213  10.048  17.556  0.00  0.00    +0.000 C 
ATOM     15  C   UNL     1      -0.736  10.944  18.688  0.00  0.00    +0.000 C 
ENDBRANCH  13  15
ENDBRANCH   3  13
ENDBRANCH   1   9
BRANCH   1  16
ATOM     16  S   UNL     1       4.969   4.428  18.984  0.00  0.00    +0.000 S 
ATOM     17  O   UNL     1       5.541   5.552  19.697  0.00  0.00    +0.000 OA
ATOM     18  O   UNL     1       5.256   3.065  19.378  0.00  0.00    +0.000 OA
BRANCH  16  19
ATOM     19  C   UNL     1       5.403   4.605  17.264  0.00  0.00    +0.000 A 
ATOM     20  C   UNL     1       4.512   4.276  16.241  0.00  0.00    +0.000 A 
ATOM     21  C   UNL     1       4.950   4.339  14.911  0.00  0.00    +0.000 A 
ATOM     22  C   UNL     1       6.255   4.763  14.592  0.00  0.00    +0.000 A 
ATOM     23  C   UNL     1       7.092   5.184  15.634  0.00  0.00    +0.000 A 
ATOM     24  C   UNL     1       6.674   5.101  16.961  0.00  0.00    +0.000 A 
BRANCH  22  25
ATOM     25  C   UNL     1       6.727   4.728  13.145  0.00  0.00    +0.000 C 
ATOM     26  C   UNL     1       8.170   5.208  12.984  0.00  0.00    +0.000 C 
ATOM     27  C   UNL     1       6.569   3.340  12.514  0.00  0.00    +0.000 C 
ENDBRANCH  22  25
ENDBRANCH  16  19
ENDBRANCH   1  16
TORSDOF 6
ENDMDL
MODEL 6
REMARK VINA RESULT:      -7.9      1.326      2.619
REMARK  Name = 
REMARK  9 active torsions:
REMARK  status: ('A' for Active; 'I' for Inactive)
REMARK    1  A    between atoms: C_1  and  C_2
REMARK    2  A    between atoms: C_2  and  C_3
REMARK    3  A    between atoms: C_3  and  N_4
REMARK    4  A    between atoms: C_10  and  N_11
REMARK    5  A    between atoms: N_11  and  S_12
REMARK    6  A    between atoms: S_12  and  C_15
REMARK    7  A    between atoms: C_18  and  C_19
REMARK    8  A    between atoms: C_19  and  C_20
REMARK    9  A    between atoms: C_19  and  C_21
REMARK                            x       y       z     vdW  Elec       q    Type
REMARK                         _______ _______ _______ _____ _____    ______ ____
ROOT
ATOM      1  N   UNL     1       3.529   2.347  19.964  0.00  0.00    +0.000 N 
ATOM      2  H   UNL     1       4.016   1.647  20.520  0.00  0.00    +0.000 HD
ENDROOT
BRANCH   1   9
ATOM      3  N   UNL     1       6.216   5.210  16.085  0.00  0.00    +0.000 N 
ATOM      4  C   UNL     1       7.005   5.977  16.924  0.00  0.00    +0.000 A 
ATOM      5  O   UNL     1       7.803   6.835  16.584  0.00  0.00    +0.000 OA
ATOM      6  O   UNL     1       6.766   5.633  18.272  0.00  0.00    +0.000 OA
ATOM      7  C   UNL     1       5.789   4.647  18.175  0.00  0.00    +0.000 A 
ATOM      8  C   UNL     1       5.194   3.991  19.237  0.00  0.00    +0.000 A 
ATOM      9  C   UNL     1       4.200   3.054  18.932  0.00  0.00    +0.000 A 
ATOM     10  C   UNL     1       3.863   2.772  17.592  0.00  0.00    +0.000 A 
ATOM     11  C   UNL     1       4.482   3.452  16.537  0.00  0.00    +0.000 A 
ATOM     12  C   UNL     1       5.440   4.387  16.869  0.00  0.00    +0.000 A 
BRANCH   3  13
ATOM     13  C   UNL     1       6.174   5.286  14.645  0.00  0.00    +0.000 C 
BRANCH  13  15
ATOM     14  C   UNL     1       5.864   3.576  12.824  0.00  0.00    +0.000 C 
ATOM     15  C   UNL     1       6.740   4.031  13.981  0.00  0.00    +0.000 C 
ENDBRANCH  13  15
ENDBRANCH   3  13
ENDBRANCH   1   9
BRANCH   1  16
ATOM     16  S   UNL     1       1.961   2.752  20.420  0.00  0.00    +0.000 S 
ATOM     17  O   UNL     1       1.075   2.023  19.535  0.00  0.00    +0.000 OA
ATOM     18  O   UNL     1       1.844   2.639  21.858  0.00  0.00    +0.000 OA
BRANCH  16  19
ATOM     19  C   UNL     1       1.847   4.479  19.994  0.00  0.00    +0.000 A 
ATOM     20  C   UNL     1       1.800   4.910  18.666  0.00  0.00    +0.000 A 
ATOM     21  C   UNL     1       1.815   6.285  18.397  0.00  0.00    +0.000 A 
ATOM     22  C   UNL     1       1.838   7.233  19.438  0.00  0.00    +0.000 A 
ATOM     23  C   UNL     1       1.781   6.771  20.760  0.00  0.00    +0.000 A 
ATOM     24  C   UNL     1       1.791   5.405  21.038  0.00  0.00    +0.000 A 
BRANCH  22  25
ATOM     25  C   UNL     1       1.950   8.715  19.109  0.00  0.00    +0.000 C 
ATOM     26  C   UNL     1       1.957   8.986  17.605  0.00  0.00    +0.000 C 
ATOM     27  C   UNL     1       0.849   9.545  19.781  0.00  0.00    +0.000 C 
ENDBRANCH  22  25
ENDBRANCH  16  19
ENDBRANCH   1  16
TORSDOF 6
ENDMDL
MODEL 7
REMARK VINA RESULT:      -7.8      2.074      3.323
REMARK  Name = 
REMARK  9 active torsions:
REMARK  status: ('A' for Active; 'I' for Inactive)
REMARK    1  A    between atoms: C_1  and  C_2
REMARK    2  A    between atoms: C_2  and  C_3
REMARK    3  A    between atoms: C_3  and  N_4
REMARK    4  A    between atoms: C_10  and  N_11
REMARK    5  A    between atoms: N_11  and  S_12
REMARK    6  A    between atoms: S_12  and  C_15
REMARK    7  A    between atoms: C_18  and  C_19
REMARK    8  A    between atoms: C_19  and  C_20
REMARK    9  A    between atoms: C_19  and  C_21
REMARK                            x       y       z     vdW  Elec       q    Type
REMARK                         _______ _______ _______ _____ _____    ______ ____
ROOT
ATOM      1  N   UNL     1       4.306   4.873  19.573  0.00  0.00    +0.000 N 
ATOM      2  H   UNL     1       4.915   5.103  20.355  0.00  0.00    +0.000 HD
ENDROOT
BRANCH   1   9
ATOM      3  N   UNL     1       6.457   4.294  14.523  0.00  0.00    +0.000 N 
ATOM      4  C   UNL     1       7.371   5.331  14.582  0.00  0.00    +0.000 A 
ATOM      5  O   UNL     1       8.126   5.684  13.692  0.00  0.00    +0.000 OA
ATOM      6  O   UNL     1       7.321   5.955  15.848  0.00  0.00    +0.000 OA
ATOM      7  C   UNL     1       6.325   5.245  16.509  0.00  0.00    +0.000 A 
ATOM      8  C   UNL     1       5.877   5.485  17.795  0.00  0.00    +0.000 A 
ATOM      9  C   UNL     1       4.834   4.681  18.269  0.00  0.00    +0.000 A 
ATOM     10  C   UNL     1       4.304   3.647  17.472  0.00  0.00    +0.000 A 
ATOM     11  C   UNL     1       4.777   3.425  16.174  0.00  0.00    +0.000 A 
ATOM     12  C   UNL     1       5.788   4.249  15.725  0.00  0.00    +0.000 A 
BRANCH   3  13
ATOM     13  C   UNL     1       6.211   3.436  13.390  0.00  0.00    +0.000 C 
BRANCH  13  15
ATOM     14  C   UNL     1       4.667   2.906  11.473  0.00  0.00    +0.000 C 
ATOM     15  C   UNL     1       5.057   3.937  12.522  0.00  0.00    +0.000 C 
ENDBRANCH  13  15
ENDBRANCH   3  13
ENDBRANCH   1   9
BRANCH   1  16
ATOM     16  S   UNL     1       2.646   4.893  19.845  0.00  0.00    +0.000 S 
ATOM     17  O   UNL     1       2.050   4.073  18.810  0.00  0.00    +0.000 OA
ATOM     18  O   UNL     1       2.395   4.632  21.247  0.00  0.00    +0.000 OA
BRANCH  16  19
ATOM     19  C   UNL     1       2.201   6.587  19.515  0.00  0.00    +0.000 A 
ATOM     20  C   UNL     1       1.761   7.445  20.525  0.00  0.00    +0.000 A 
ATOM     21  C   UNL     1       1.328   8.733  20.183  0.00  0.00    +0.000 A 
ATOM     22  C   UNL     1       1.365   9.185  18.849  0.00  0.00    +0.000 A 
ATOM     23  C   UNL     1       1.907   8.338  17.874  0.00  0.00    +0.000 A 
ATOM     24  C   UNL     1       2.317   7.047  18.200  0.00  0.00    +0.000 A 
BRANCH  22  25
ATOM     25  C   UNL     1       0.799  10.554  18.500  0.00  0.00    +0.000 C 
ATOM     26  C   UNL     1      -0.596  10.783  19.083  0.00  0.00    +0.000 C 
ATOM     27  C   UNL     1       1.732  11.695  18.923  0.00  0.00    +0.000 C 
ENDBRANCH  22  25
ENDBRANCH  16  19
ENDBRANCH   1  16
TORSDOF 6
ENDMDL
MODEL 8
REMARK VINA RESULT:      -7.8      3.443      6.922
REMARK  Name = 
REMARK  9 active torsions:
REMARK  status: ('A' for Active; 'I' for Inactive)
REMARK    1  A    between atoms: C_1  and  C_2
REMARK    2  A    between atoms: C_2  and  C_3
REMARK    3  A    between atoms: C_3  and  N_4
REMARK    4  A    between atoms: C_10  and  N_11
REMARK    5  A    between atoms: N_11  and  S_12
REMARK    6  A    between atoms: S_12  and  C_15
REMARK    7  A    between atoms: C_18  and  C_19
REMARK    8  A    between atoms: C_19  and  C_20
REMARK    9  A    between atoms: C_19  and  C_21
REMARK                            x       y       z     vdW  Elec       q    Type
REMARK                         _______ _______ _______ _____ _____    ______ ____
ROOT
ATOM      1  N   UNL     1       3.221   4.790  18.903  0.00  0.00    +0.000 N 
ATOM      2  H   UNL     1       2.657   4.048  18.492  0.00  0.00    +0.000 HD
ENDROOT
BRANCH   1   9
ATOM      3  N   UNL     1       1.087   9.781  19.904  0.00  0.00    +0.000 N 
ATOM      4  C   UNL     1       1.364  10.359  18.678  0.00  0.00    +0.000 A 
ATOM      5  O   UNL     1       1.122  11.508  18.347  0.00  0.00    +0.000 OA
ATOM      6  O   UNL     1       1.984   9.421  17.824  0.00  0.00    +0.000 OA
ATOM      7  C   UNL     1       2.070   8.282  18.618  0.00  0.00    +0.000 A 
ATOM      8  C   UNL     1       2.627   7.074  18.242  0.00  0.00    +0.000 A 
ATOM      9  C   UNL     1       2.653   6.056  19.203  0.00  0.00    +0.000 A 
ATOM     10  C   UNL     1       2.092   6.258  20.480  0.00  0.00    +0.000 A 
ATOM     11  C   UNL     1       1.534   7.492  20.834  0.00  0.00    +0.000 A 
ATOM     12  C   UNL     1       1.545   8.483  19.875  0.00  0.00    +0.000 A 
BRANCH   3  13
ATOM     13  C   UNL     1       0.470  10.430  21.035  0.00  0.00    +0.000 C 
BRANCH  13  15
ATOM     14  C   UNL     1      -0.814  10.142  23.181  0.00  0.00    +0.000 C 
ATOM     15  C   UNL     1      -0.151   9.431  22.011  0.00  0.00    +0.000 C 
ENDBRANCH  13  15
ENDBRANCH   3  13
ENDBRANCH   1   9
BRANCH   1  16
ATOM     16  S   UNL     1       4.874   4.519  19.055  0.00  0.00    +0.000 S 
ATOM     17  O   UNL     1       5.430   5.708  19.668  0.00  0.00    +0.000 OA
ATOM     18  O   UNL     1       5.086   3.208  19.631  0.00  0.00    +0.000 OA
BRANCH  16  19
ATOM     19  C   UNL     1       5.435   4.472  17.364  0.00  0.00    +0.000 A 
ATOM     20  C   UNL     1       4.561   4.227  16.303  0.00  0.00    +0.000 A 
ATOM     21  C   UNL     1       5.082   4.100  15.008  0.00  0.00    +0.000 A 
ATOM     22  C   UNL     1       6.460   4.252  14.757  0.00  0.00    +0.000 A 
ATOM     23  C   UNL     1       7.297   4.599  15.826  0.00  0.00    +0.000 A 
ATOM     24  C   UNL     1       6.792   4.703  17.121  0.00  0.00    +0.000 A 
BRANCH  22  25
ATOM     25  C   UNL     1       7.003   4.014  13.356  0.00  0.00    +0.000 C 
ATOM     26  C   UNL     1       5.935   3.505  12.387  0.00  0.00    +0.000 C 
ATOM     27  C   UNL     1       7.679   5.262  12.773  0.00  0.00    +0.000 C 
ENDBRANCH  22  25
ENDBRANCH  16  19
ENDBRANCH   1  16
TORSDOF 6
ENDMDL
MODEL 9
REMARK VINA RESULT:      -7.6      3.480      7.234
REMARK  Name = 
REMARK  9 active torsions:
REMARK  status: ('A' for Active; 'I' for Inactive)
REMARK    1  A    between atoms: C_1  and  C_2
REMARK    2  A    between atoms: C_2  and  C_3
REMARK    3  A    between atoms: C_3  and  N_4
REMARK    4  A    between atoms: C_10  and  N_11
REMARK    5  A    between atoms: N_11  and  S_12
REMARK    6  A    between atoms: S_12  and  C_15
REMARK    7  A    between atoms: C_18  and  C_19
REMARK    8  A    between atoms: C_19  and  C_20
REMARK    9  A    between atoms: C_19  and  C_21
REMARK                            x       y       z     vdW  Elec       q    Type
REMARK                         _______ _______ _______ _____ _____    ______ ____
ROOT
ATOM      1  N   UNL     1       3.924   5.387  18.509  0.00  0.00    +0.000 N 
ATOM      2  H   UNL     1       3.489   4.483  18.335  0.00  0.00    +0.000 HD
ENDROOT
BRANCH   1   9
ATOM      3  N   UNL     1       0.791   9.825  19.484  0.00  0.00    +0.000 N 
ATOM      4  C   UNL     1       0.423   9.520  20.782  0.00  0.00    +0.000 A 
ATOM      5  O   UNL     1      -0.316  10.175  21.499  0.00  0.00    +0.000 OA
ATOM      6  O   UNL     1       1.032   8.314  21.193  0.00  0.00    +0.000 OA
ATOM      7  C   UNL     1       1.751   7.927  20.067  0.00  0.00    +0.000 A 
ATOM      8  C   UNL     1       2.516   6.780  19.951  0.00  0.00    +0.000 A 
ATOM      9  C   UNL     1       3.134   6.548  18.717  0.00  0.00    +0.000 A 
ATOM     10  C   UNL     1       3.008   7.475  17.663  0.00  0.00    +0.000 A 
ATOM     11  C   UNL     1       2.227   8.628  17.809  0.00  0.00    +0.000 A 
ATOM     12  C   UNL     1       1.610   8.818  19.027  0.00  0.00    +0.000 A 
BRANCH   3  13
ATOM     13  C   UNL     1       0.359  10.970  18.720  0.00  0.00    +0.000 C 
BRANCH  13  15
ATOM     14  C   UNL     1       2.417  12.342  18.249  0.00  0.00    +0.000 C 
ATOM     15  C   UNL     1       1.144  12.234  19.073  0.00  0.00    +0.000 C 
ENDBRANCH  13  15
ENDBRANCH   3  13
ENDBRANCH   1   9
BRANCH   1  16
ATOM     16  S   UNL     1       5.598   5.486  18.376  0.00  0.00    +0.000 S 
ATOM     17  O   UNL     1       5.927   6.896  18.378  0.00  0.00    +0.000 OA
ATOM     18  O   UNL     1       6.201   4.573  19.324  0.00  0.00    +0.000 OA
BRANCH  16  19
ATOM     19  C   UNL     1       5.913   4.861  16.737  0.00  0.00    +0.000 A 
ATOM     20  C   UNL     1       7.013   5.282  15.986  0.00  0.00    +0.000 A 
ATOM     21  C   UNL     1       7.147   4.831  14.666  0.00  0.00    +0.000 A 
ATOM     22  C   UNL     1       6.217   3.936  14.101  0.00  0.00    +0.000 A 
ATOM     23  C   UNL     1       5.182   3.452  14.913  0.00  0.00    +0.000 A 
ATOM     24  C   UNL     1       5.026   3.913  16.219  0.00  0.00    +0.000 A 
BRANCH  22  25
ATOM     25  C   UNL     1       6.340   3.542  12.637  0.00  0.00    +0.000 C 
ATOM     26  C   UNL     1       4.982   3.383  11.952  0.00  0.00    +0.000 C 
ATOM     27  C   UNL     1       7.211   4.522  11.841  0.00  0.00    +0.000 C 
ENDBRANCH  22  25
ENDBRANCH  16  19
ENDBRANCH   1  16
TORSDOF 6
ENDMDL
