MODEL 1
REMARK VINA RESULT:      -7.1      0.000      0.000
REMARK  Name = 
REMARK  5 active torsions:
REMARK  status: ('A' for Active; 'I' for Inactive)
REMARK    1  A    between atoms: C_1  and  N_2
REMARK    2  A    between atoms: C_5  and  C_6
REMARK    3  A    between atoms: C_6  and  C_8
REMARK    4  A    between atoms: N_11  and  C_12
REMARK    5  A    between atoms: C_21  and  O_22
REMARK                            x       y       z     vdW  Elec       q    Type
REMARK                         _______ _______ _______ _____ _____    ______ ____
ROOT
ATOM      1  C   UNL     1       6.725   5.404  15.436  0.00  0.00    +0.000 C 
ATOM      2  C   UNL     1       5.202   5.607  15.432  0.00  0.00    +0.000 C 
ATOM      3  C   UNL     1       4.622   5.630  16.846  0.00  0.00    +0.000 C 
ATOM      4  N   UNL     1       4.956   4.444  17.641  0.00  0.00    +0.000 NA
ATOM      5  C   UNL     1       6.419   4.313  17.724  0.00  0.00    +0.000 C 
ATOM      6  C   UNL     1       7.129   4.256  16.367  0.00  0.00    +0.000 C 
ENDROOT
BRANCH   4   7
ATOM      7  C   UNL     1       4.263   3.169  17.276  0.00  0.00    +0.000 C 
ATOM      8  C   UNL     1       2.712   3.152  17.417  0.00  0.00    +0.000 C 
ATOM      9  C   UNL     1       2.246   3.206  18.851  0.00  0.00    +0.000 A 
ATOM     10  C   UNL     1       0.973   3.719  19.143  0.00  0.00    +0.000 A 
ATOM     11  C   UNL     1       0.567   3.893  20.464  0.00  0.00    +0.000 A 
ATOM     12  C   UNL     1       1.416   3.530  21.505  0.00  0.00    +0.000 A 
ATOM     13  C   UNL     1       2.651   2.945  21.224  0.00  0.00    +0.000 A 
ATOM     14  C   UNL     1       3.071   2.761  19.897  0.00  0.00    +0.000 A 
ATOM     15  C   UNL     1       4.428   2.145  19.635  0.00  0.00    +0.000 C 
ATOM     16  C   UNL     1       4.781   1.980  18.145  0.00  0.00    +0.000 C 
BRANCH  16  17
ATOM     17  O   UNL     1       4.274   0.728  17.647  0.00  0.00    +0.000 OA
ATOM     18  H   UNL     1       3.347   0.867  17.380  0.00  0.00    +0.000 HD
ENDBRANCH  16  17
ENDBRANCH   4   7
BRANCH   1  19
ATOM     19  C   UNL     1       7.234   5.117  14.018  0.00  0.00    +0.000 C 
ATOM     20  O   UNL     1       8.200   5.743  13.565  0.00  0.00    +0.000 OA
BRANCH  19  25
ATOM     21  C   UNL     1       6.262   1.326  10.889  0.00  0.00    +0.000 C 
ATOM     22  N   UNL     1       6.080   2.450  11.781  0.00  0.00    +0.000 N 
ATOM     23  C   UNL     1       4.879   3.003  12.121  0.00  0.00    +0.000 A 
ATOM     24  C   UNL     1       5.130   4.050  12.980  0.00  0.00    +0.000 A 
ATOM     25  C   UNL     1       6.543   4.137  13.176  0.00  0.00    +0.000 A 
ATOM     26  C   UNL     1       7.096   3.121  12.413  0.00  0.00    +0.000 A 
ENDBRANCH  19  25
ENDBRANCH   1  19
TORSDOF 4
ENDMDL
MODEL 2
REMARK VINA RESULT:      -7.0      4.991      8.523
REMARK  Name = 
REMARK  5 active torsions:
REMARK  status: ('A' for Active; 'I' for Inactive)
REMARK    1  A    between atoms: C_1  and  N_2
REMARK    2  A    between atoms: C_5  and  C_6
REMARK    3  A    between atoms: C_6  and  C_8
REMARK    4  A    between atoms: N_11  and  C_12
REMARK    5  A    between atoms: C_21  and  O_22
REMARK                            x       y       z     vdW  Elec       q    Type
REMARK                         _______ _______ _______ _____ _____    ______ ____
ROOT
ATOM      1  C   UNL     1       1.254   7.791  20.030  0.00  0.00    +0.000 C 
ATOM      2  C   UNL     1       1.989   8.215  18.749  0.00  0.00    +0.000 C 
ATOM      3  C   UNL     1       2.304   7.021  17.848  0.00  0.00    +0.000 C 
ATOM      4  N   UNL     1       3.061   5.958  18.518  0.00  0.00    +0.000 NA
ATOM      5  C   UNL     1       2.302   5.489  19.688  0.00  0.00    +0.000 C 
ATOM      6  C   UNL     1       1.937   6.589  20.690  0.00  0.00    +0.000 C 
ENDROOT
BRANCH   4   7
ATOM      7  C   UNL     1       4.501   6.237  18.813  0.00  0.00    +0.000 C 
ATOM      8  C   UNL     1       5.371   6.745  17.626  0.00  0.00    +0.000 C 
ATOM      9  C   UNL     1       5.604   5.695  16.568  0.00  0.00    +0.000 A 
ATOM     10  C   UNL     1       5.880   6.092  15.252  0.00  0.00    +0.000 A 
ATOM     11  C   UNL     1       5.979   5.146  14.233  0.00  0.00    +0.000 A 
ATOM     12  C   UNL     1       5.830   3.794  14.525  0.00  0.00    +0.000 A 
ATOM     13  C   UNL     1       5.633   3.384  15.844  0.00  0.00    +0.000 A 
ATOM     14  C   UNL     1       5.536   4.326  16.880  0.00  0.00    +0.000 A 
ATOM     15  C   UNL     1       5.299   3.841  18.294  0.00  0.00    +0.000 C 
ATOM     16  C   UNL     1       5.220   4.959  19.350  0.00  0.00    +0.000 C 
BRANCH  16  17
ATOM     17  O   UNL     1       6.537   5.284  19.833  0.00  0.00    +0.000 OA
ATOM     18  H   UNL     1       7.139   5.301  19.068  0.00  0.00    +0.000 HD
ENDBRANCH  16  17
ENDBRANCH   4   7
BRANCH   1  19
ATOM     19  C   UNL     1       1.193   8.957  21.027  0.00  0.00    +0.000 C 
ATOM     20  O   UNL     1       1.666   8.830  22.162  0.00  0.00    +0.000 OA
BRANCH  19  25
ATOM     21  C   UNL     1      -2.148  12.280  19.323  0.00  0.00    +0.000 C 
ATOM     22  N   UNL     1      -0.949  11.711  19.898  0.00  0.00    +0.000 N 
ATOM     23  C   UNL     1       0.133  12.422  20.333  0.00  0.00    +0.000 A 
ATOM     24  C   UNL     1       1.063  11.521  20.803  0.00  0.00    +0.000 A 
ATOM     25  C   UNL     1       0.525  10.206  20.652  0.00  0.00    +0.000 A 
ATOM     26  C   UNL     1      -0.729  10.371  20.088  0.00  0.00    +0.000 A 
ENDBRANCH  19  25
ENDBRANCH   1  19
TORSDOF 4
ENDMDL
MODEL 3
REMARK VINA RESULT:      -6.9      4.907      7.872
REMARK  Name = 
REMARK  5 active torsions:
REMARK  status: ('A' for Active; 'I' for Inactive)
REMARK    1  A    between atoms: C_1  and  N_2
REMARK    2  A    between atoms: C_5  and  C_6
REMARK    3  A    between atoms: C_6  and  C_8
REMARK    4  A    between atoms: N_11  and  C_12
REMARK    5  A    between atoms: C_21  and  O_22
REMARK                            x       y       z     vdW  Elec       q    Type
REMARK                         _______ _______ _______ _____ _____    ______ ____
ROOT
ATOM      1  C   UNL     1       1.890   8.850  18.927  0.00  0.00    +0.000 C 
ATOM      2  C   UNL     1       1.674   7.594  19.786  0.00  0.00    +0.000 C 
ATOM      3  C   UNL     1       2.907   6.693  19.805  0.00  0.00    +0.000 C 
ATOM      4  N   UNL     1       3.373   6.299  18.471  0.00  0.00    +0.000 NA
ATOM      5  C   UNL     1       3.673   7.509  17.688  0.00  0.00    +0.000 C 
ATOM      6  C   UNL     1       2.507   8.495  17.570  0.00  0.00    +0.000 C 
ENDROOT
BRANCH   4   7
ATOM      7  C   UNL     1       2.539   5.302  17.732  0.00  0.00    +0.000 C 
ATOM      8  C   UNL     1       1.382   4.632  18.530  0.00  0.00    +0.000 C 
ATOM      9  C   UNL     1       1.868   3.696  19.609  0.00  0.00    +0.000 A 
ATOM     10  C   UNL     1       1.049   3.438  20.718  0.00  0.00    +0.000 A 
ATOM     11  C   UNL     1       1.522   2.676  21.785  0.00  0.00    +0.000 A 
ATOM     12  C   UNL     1       2.806   2.142  21.740  0.00  0.00    +0.000 A 
ATOM     13  C   UNL     1       3.599   2.327  20.607  0.00  0.00    +0.000 A 
ATOM     14  C   UNL     1       3.132   3.089  19.524  0.00  0.00    +0.000 A 
ATOM     15  C   UNL     1       4.033   3.286  18.323  0.00  0.00    +0.000 C 
ATOM     16  C   UNL     1       3.416   4.129  17.191  0.00  0.00    +0.000 C 
BRANCH  16  17
ATOM     17  O   UNL     1       2.652   3.291  16.304  0.00  0.00    +0.000 OA
ATOM     18  H   UNL     1       3.075   3.322  15.427  0.00  0.00    +0.000 HD
ENDBRANCH  16  17
ENDBRANCH   4   7
BRANCH   1  19
ATOM     19  C   UNL     1       0.563   9.589  18.709  0.00  0.00    +0.000 C 
ATOM     20  O   UNL     1       0.002   9.547  17.608  0.00  0.00    +0.000 OA
BRANCH  19  25
ATOM     21  C   UNL     1      -1.253  11.054  23.143  0.00  0.00    +0.000 C 
ATOM     22  N   UNL     1      -0.831  11.071  21.759  0.00  0.00    +0.000 N 
ATOM     23  C   UNL     1      -0.913  12.146  20.921  0.00  0.00    +0.000 A 
ATOM     24  C   UNL     1      -0.419  11.758  19.696  0.00  0.00    +0.000 A 
ATOM     25  C   UNL     1      -0.016  10.390  19.791  0.00  0.00    +0.000 A 
ATOM     26  C   UNL     1      -0.287  10.003  21.092  0.00  0.00    +0.000 A 
ENDBRANCH  19  25
ENDBRANCH   1  19
TORSDOF 4
ENDMDL
MODEL 4
REMARK VINA RESULT:      -6.8     10.023     11.991
REMARK  Name = 
REMARK  5 active torsions:
REMARK  status: ('A' for Active; 'I' for Inactive)
REMARK    1  A    between atoms: C_1  and  N_2
REMARK    2  A    between atoms: C_5  and  C_6
REMARK    3  A    between atoms: C_6  and  C_8
REMARK    4  A    between atoms: N_11  and  C_12
REMARK    5  A    between atoms: C_21  and  O_22
REMARK                            x       y       z     vdW  Elec       q    Type
REMARK                         _______ _______ _______ _____ _____    ______ ____
ROOT
ATOM      1  C   UNL     1       3.391  15.133  19.010  0.00  0.00    +0.000 C 
ATOM      2  C   UNL     1       2.685  14.831  20.341  0.00  0.00    +0.000 C 
ATOM      3  C   UNL     1       2.537  13.330  20.584  0.00  0.00    +0.000 C 
ATOM      4  N   UNL     1       1.856  12.618  19.497  0.00  0.00    +0.000 NA
ATOM      5  C   UNL     1       2.596  12.831  18.243  0.00  0.00    +0.000 C 
ATOM      6  C   UNL     1       2.798  14.303  17.867  0.00  0.00    +0.000 C 
ENDROOT
BRANCH   4   7
ATOM      7  C   UNL     1       0.383  12.838  19.365  0.00  0.00    +0.000 C 
ATOM      8  C   UNL     1      -0.449  12.800  20.681  0.00  0.00    +0.000 C 
ATOM      9  C   UNL     1      -0.527  11.424  21.295  0.00  0.00    +0.000 A 
ATOM     10  C   UNL     1      -0.751  11.297  22.674  0.00  0.00    +0.000 A 
ATOM     11  C   UNL     1      -0.706  10.046  23.286  0.00  0.00    +0.000 A 
ATOM     12  C   UNL     1      -0.464   8.909  22.522  0.00  0.00    +0.000 A 
ATOM     13  C   UNL     1      -0.318   9.017  21.138  0.00  0.00    +0.000 A 
ATOM     14  C   UNL     1      -0.366  10.271  20.509  0.00  0.00    +0.000 A 
ATOM     15  C   UNL     1      -0.179  10.348  19.009  0.00  0.00    +0.000 C 
ATOM     16  C   UNL     1      -0.261  11.770  18.425  0.00  0.00    +0.000 C 
BRANCH  16  17
ATOM     17  O   UNL     1      -1.628  12.112  18.130  0.00  0.00    +0.000 OA
ATOM     18  H   UNL     1      -1.779  13.025  18.432  0.00  0.00    +0.000 HD
ENDBRANCH  16  17
ENDBRANCH   4   7
BRANCH   1  19
ATOM     19  C   UNL     1       3.283  16.625  18.670  0.00  0.00    +0.000 C 
ATOM     20  O   UNL     1       4.257  17.371  18.827  0.00  0.00    +0.000 OA
BRANCH  19  25
ATOM     21  C   UNL     1      -1.529  17.996  18.397  0.00  0.00    +0.000 C 
ATOM     22  N   UNL     1      -0.135  17.804  18.059  0.00  0.00    +0.000 N 
ATOM     23  C   UNL     1       0.460  18.209  16.899  0.00  0.00    +0.000 A 
ATOM     24  C   UNL     1       1.784  17.836  16.957  0.00  0.00    +0.000 A 
ATOM     25  C   UNL     1       2.008  17.181  18.207  0.00  0.00    +0.000 A 
ATOM     26  C   UNL     1       0.788  17.185  18.863  0.00  0.00    +0.000 A 
ENDBRANCH  19  25
ENDBRANCH   1  19
TORSDOF 4
ENDMDL
MODEL 5
REMARK VINA RESULT:      -6.6      4.653      8.679
REMARK  Name = 
REMARK  5 active torsions:
REMARK  status: ('A' for Active; 'I' for Inactive)
REMARK    1  A    between atoms: C_1  and  N_2
REMARK    2  A    between atoms: C_5  and  C_6
REMARK    3  A    between atoms: C_6  and  C_8
REMARK    4  A    between atoms: N_11  and  C_12
REMARK    5  A    between atoms: C_21  and  O_22
REMARK                            x       y       z     vdW  Elec       q    Type
REMARK                         _______ _______ _______ _____ _____    ______ ____
ROOT
ATOM      1  C   UNL     1       1.178   7.429  20.201  0.00  0.00    +0.000 C 
ATOM      2  C   UNL     1       2.292   7.600  19.157  0.00  0.00    +0.000 C 
ATOM      3  C   UNL     1       2.325   6.444  18.159  0.00  0.00    +0.000 C 
ATOM      4  N   UNL     1       2.439   5.123  18.786  0.00  0.00    +0.000 NA
ATOM      5  C   UNL     1       1.311   4.928  19.711  0.00  0.00    +0.000 C 
ATOM      6  C   UNL     1       1.176   6.012  20.784  0.00  0.00    +0.000 C 
ENDROOT
BRANCH   4   7
ATOM      7  C   UNL     1       3.766   4.771  19.381  0.00  0.00    +0.000 C 
ATOM      8  C   UNL     1       5.003   5.543  18.834  0.00  0.00    +0.000 C 
ATOM      9  C   UNL     1       5.344   5.184  17.408  0.00  0.00    +0.000 A 
ATOM     10  C   UNL     1       6.036   6.108  16.612  0.00  0.00    +0.000 A 
ATOM     11  C   UNL     1       6.256   5.853  15.260  0.00  0.00    +0.000 A 
ATOM     12  C   UNL     1       5.811   4.660  14.698  0.00  0.00    +0.000 A 
ATOM     13  C   UNL     1       5.191   3.701  15.500  0.00  0.00    +0.000 A 
ATOM     14  C   UNL     1       4.968   3.944  16.864  0.00  0.00    +0.000 A 
ATOM     15  C   UNL     1       4.270   2.888  17.694  0.00  0.00    +0.000 C 
ATOM     16  C   UNL     1       4.087   3.256  19.178  0.00  0.00    +0.000 C 
BRANCH  16  17
ATOM     17  O   UNL     1       5.253   2.879  19.934  0.00  0.00    +0.000 OA
ATOM     18  H   UNL     1       5.768   3.687  20.110  0.00  0.00    +0.000 HD
ENDBRANCH  16  17
ENDBRANCH   4   7
BRANCH   1  19
ATOM     19  C   UNL     1       1.341   8.450  21.335  0.00  0.00    +0.000 C 
ATOM     20  O   UNL     1       2.227   8.300  22.184  0.00  0.00    +0.000 OA
BRANCH  19  25
ATOM     21  C   UNL     1      -1.889  11.842  23.117  0.00  0.00    +0.000 C 
ATOM     22  N   UNL     1      -1.034  11.103  22.214  0.00  0.00    +0.000 N 
ATOM     23  C   UNL     1      -0.869  11.370  20.885  0.00  0.00    +0.000 A 
ATOM     24  C   UNL     1       0.015  10.444  20.379  0.00  0.00    +0.000 A 
ATOM     25  C   UNL     1       0.410   9.577  21.445  0.00  0.00    +0.000 A 
ATOM     26  C   UNL     1      -0.264  10.025  22.569  0.00  0.00    +0.000 A 
ENDBRANCH  19  25
ENDBRANCH   1  19
TORSDOF 4
ENDMDL
MODEL 6
REMARK VINA RESULT:      -6.6      4.883      8.765
REMARK  Name = 
REMARK  5 active torsions:
REMARK  status: ('A' for Active; 'I' for Inactive)
REMARK    1  A    between atoms: C_1  and  N_2
REMARK    2  A    between atoms: C_5  and  C_6
REMARK    3  A    between atoms: C_6  and  C_8
REMARK    4  A    between atoms: N_11  and  C_12
REMARK    5  A    between atoms: C_21  and  O_22
REMARK                            x       y       z     vdW  Elec       q    Type
REMARK                         _______ _______ _______ _____ _____    ______ ____
ROOT
ATOM      1  C   UNL     1       1.258   8.196  19.358  0.00  0.00    +0.000 C 
ATOM      2  C   UNL     1       2.026   8.135  18.028  0.00  0.00    +0.000 C 
ATOM      3  C   UNL     1       2.345   6.698  17.616  0.00  0.00    +0.000 C 
ATOM      4  N   UNL     1       3.074   5.938  18.637  0.00  0.00    +0.000 NA
ATOM      5  C   UNL     1       2.284   5.917  19.879  0.00  0.00    +0.000 C 
ATOM      6  C   UNL     1       1.911   7.302  20.417  0.00  0.00    +0.000 C 
ENDROOT
BRANCH   4   7
ATOM      7  C   UNL     1       4.510   6.297  18.850  0.00  0.00    +0.000 C 
ATOM      8  C   UNL     1       5.294   6.806  17.604  0.00  0.00    +0.000 C 
ATOM      9  C   UNL     1       5.528   5.732  16.571  0.00  0.00    +0.000 A 
ATOM     10  C   UNL     1       5.719   6.096  15.230  0.00  0.00    +0.000 A 
ATOM     11  C   UNL     1       5.815   5.122  14.238  0.00  0.00    +0.000 A 
ATOM     12  C   UNL     1       5.750   3.775  14.581  0.00  0.00    +0.000 A 
ATOM     13  C   UNL     1       5.639   3.402  15.921  0.00  0.00    +0.000 A 
ATOM     14  C   UNL     1       5.546   4.374  16.929  0.00  0.00    +0.000 A 
ATOM     15  C   UNL     1       5.403   3.927  18.369  0.00  0.00    +0.000 C 
ATOM     16  C   UNL     1       5.319   5.076  19.391  0.00  0.00    +0.000 C 
BRANCH  16  17
ATOM     17  O   UNL     1       6.640   5.482  19.796  0.00  0.00    +0.000 OA
ATOM     18  H   UNL     1       6.876   4.974  20.593  0.00  0.00    +0.000 HD
ENDBRANCH  16  17
ENDBRANCH   4   7
BRANCH   1  19
ATOM     19  C   UNL     1       1.190   9.639  19.875  0.00  0.00    +0.000 C 
ATOM     20  O   UNL     1       1.809  10.537  19.294  0.00  0.00    +0.000 OA
BRANCH  19  25
ATOM     21  C   UNL     1      -1.994  11.706  23.145  0.00  0.00    +0.000 C 
ATOM     22  N   UNL     1      -0.978  10.850  22.573  0.00  0.00    +0.000 N 
ATOM     23  C   UNL     1      -0.306   9.866  23.240  0.00  0.00    +0.000 A 
ATOM     24  C   UNL     1       0.576   9.289  22.354  0.00  0.00    +0.000 A 
ATOM     25  C   UNL     1       0.434   9.945  21.093  0.00  0.00    +0.000 A 
ATOM     26  C   UNL     1      -0.545  10.908  21.273  0.00  0.00    +0.000 A 
ENDBRANCH  19  25
ENDBRANCH   1  19
TORSDOF 4
ENDMDL
MODEL 7
REMARK VINA RESULT:      -6.6      5.231      7.881
REMARK  Name = 
REMARK  5 active torsions:
REMARK  status: ('A' for Active; 'I' for Inactive)
REMARK    1  A    between atoms: C_1  and  N_2
REMARK    2  A    between atoms: C_5  and  C_6
REMARK    3  A    between atoms: C_6  and  C_8
REMARK    4  A    between atoms: N_11  and  C_12
REMARK    5  A    between atoms: C_21  and  O_22
REMARK                            x       y       z     vdW  Elec       q    Type
REMARK                         _______ _______ _______ _____ _____    ______ ____
ROOT
ATOM      1  C   UNL     1       1.838   8.925  18.852  0.00  0.00    +0.000 C 
ATOM      2  C   UNL     1       1.552   7.710  19.748  0.00  0.00    +0.000 C 
ATOM      3  C   UNL     1       2.754   6.772  19.843  0.00  0.00    +0.000 C 
ATOM      4  N   UNL     1       3.252   6.313  18.541  0.00  0.00    +0.000 NA
ATOM      5  C   UNL     1       3.618   7.483  17.725  0.00  0.00    +0.000 C 
ATOM      6  C   UNL     1       2.489   8.500  17.531  0.00  0.00    +0.000 C 
ENDROOT
BRANCH   4   7
ATOM      7  C   UNL     1       2.410   5.316  17.810  0.00  0.00    +0.000 C 
ATOM      8  C   UNL     1       1.299   4.602  18.635  0.00  0.00    +0.000 C 
ATOM      9  C   UNL     1       1.845   3.652  19.671  0.00  0.00    +0.000 A 
ATOM     10  C   UNL     1       1.076   3.350  20.804  0.00  0.00    +0.000 A 
ATOM     11  C   UNL     1       1.605   2.574  21.834  0.00  0.00    +0.000 A 
ATOM     12  C   UNL     1       2.897   2.069  21.727  0.00  0.00    +0.000 A 
ATOM     13  C   UNL     1       3.641   2.298  20.569  0.00  0.00    +0.000 A 
ATOM     14  C   UNL     1       3.118   3.074  19.524  0.00  0.00    +0.000 A 
ATOM     15  C   UNL     1       3.967   3.319  18.295  0.00  0.00    +0.000 C 
ATOM     16  C   UNL     1       3.290   4.175  17.208  0.00  0.00    +0.000 C 
BRANCH  16  17
ATOM     17  O   UNL     1       2.510   3.342  16.330  0.00  0.00    +0.000 OA
ATOM     18  H   UNL     1       2.109   2.637  16.868  0.00  0.00    +0.000 HD
ENDBRANCH  16  17
ENDBRANCH   4   7
BRANCH   1  19
ATOM     19  C   UNL     1       0.544   9.697  18.561  0.00  0.00    +0.000 C 
ATOM     20  O   UNL     1      -0.153   9.396  17.585  0.00  0.00    +0.000 OA
BRANCH  19  25
ATOM     21  C   UNL     1      -0.780  14.260  20.153  0.00  0.00    +0.000 C 
ATOM     22  N   UNL     1      -0.432  12.855  20.148  0.00  0.00    +0.000 N 
ATOM     23  C   UNL     1      -0.359  12.054  21.251  0.00  0.00    +0.000 A 
ATOM     24  C   UNL     1       0.007  10.796  20.830  0.00  0.00    +0.000 A 
ATOM     25  C   UNL     1       0.160  10.828  19.409  0.00  0.00    +0.000 A 
ATOM     26  C   UNL     1      -0.126  12.128  19.026  0.00  0.00    +0.000 A 
ENDBRANCH  19  25
ENDBRANCH   1  19
TORSDOF 4
ENDMDL
MODEL 8
REMARK VINA RESULT:      -6.5      4.705      8.513
REMARK  Name = 
REMARK  5 active torsions:
REMARK  status: ('A' for Active; 'I' for Inactive)
REMARK    1  A    between atoms: C_1  and  N_2
REMARK    2  A    between atoms: C_5  and  C_6
REMARK    3  A    between atoms: C_6  and  C_8
REMARK    4  A    between atoms: N_11  and  C_12
REMARK    5  A    between atoms: C_21  and  O_22
REMARK                            x       y       z     vdW  Elec       q    Type
REMARK                         _______ _______ _______ _____ _____    ______ ____
ROOT
ATOM      1  C   UNL     1       1.211   7.500  20.264  0.00  0.00    +0.000 C 
ATOM      2  C   UNL     1       2.294   7.642  19.183  0.00  0.00    +0.000 C 
ATOM      3  C   UNL     1       2.289   6.466  18.208  0.00  0.00    +0.000 C 
ATOM      4  N   UNL     1       2.415   5.157  18.858  0.00  0.00    +0.000 NA
ATOM      5  C   UNL     1       1.314   4.988  19.821  0.00  0.00    +0.000 C 
ATOM      6  C   UNL     1       1.218   6.095  20.875  0.00  0.00    +0.000 C 
ENDROOT
BRANCH   4   7
ATOM      7  C   UNL     1       3.757   4.808  19.419  0.00  0.00    +0.000 C 
ATOM      8  C   UNL     1       4.979   5.577  18.837  0.00  0.00    +0.000 C 
ATOM      9  C   UNL     1       5.282   5.211  17.404  0.00  0.00    +0.000 A 
ATOM     10  C   UNL     1       5.953   6.131  16.586  0.00  0.00    +0.000 A 
ATOM     11  C   UNL     1       6.137   5.869  15.229  0.00  0.00    +0.000 A 
ATOM     12  C   UNL     1       5.678   4.674  14.685  0.00  0.00    +0.000 A 
ATOM     13  C   UNL     1       5.079   3.719  15.508  0.00  0.00    +0.000 A 
ATOM     14  C   UNL     1       4.892   3.969  16.876  0.00  0.00    +0.000 A 
ATOM     15  C   UNL     1       4.217   2.917  17.730  0.00  0.00    +0.000 C 
ATOM     16  C   UNL     1       4.073   3.292  19.216  0.00  0.00    +0.000 C 
BRANCH  16  17
ATOM     17  O   UNL     1       5.258   2.919  19.943  0.00  0.00    +0.000 OA
ATOM     18  H   UNL     1       5.985   2.828  19.301  0.00  0.00    +0.000 HD
ENDBRANCH  16  17
ENDBRANCH   4   7
BRANCH   1  19
ATOM     19  C   UNL     1       1.414   8.542  21.371  0.00  0.00    +0.000 C 
ATOM     20  O   UNL     1       2.207   8.322  22.295  0.00  0.00    +0.000 OA
BRANCH  19  25
ATOM     21  C   UNL     1      -0.534  12.975  20.083  0.00  0.00    +0.000 C 
ATOM     22  N   UNL     1      -0.257  11.758  20.815  0.00  0.00    +0.000 N 
ATOM     23  C   UNL     1      -0.826  11.404  22.005  0.00  0.00    +0.000 A 
ATOM     24  C   UNL     1      -0.298  10.187  22.374  0.00  0.00    +0.000 A 
ATOM     25  C   UNL     1       0.629   9.779  21.366  0.00  0.00    +0.000 A 
ATOM     26  C   UNL     1       0.622  10.785  20.413  0.00  0.00    +0.000 A 
ENDBRANCH  19  25
ENDBRANCH   1  19
TORSDOF 4
ENDMDL
MODEL 9
REMARK VINA RESULT:      -6.4     10.234     12.654
REMARK  Name = 
REMARK  5 active torsions:
REMARK  status: ('A' for Active; 'I' for Inactive)
REMARK    1  A    between atoms: C_1  and  N_2
REMARK    2  A    between atoms: C_5  and  C_6
REMARK    3  A    between atoms: C_6  and  C_8
REMARK    4  A    between atoms: N_11  and  C_12
REMARK    5  A    between atoms: C_21  and  O_22
REMARK                            x       y       z     vdW  Elec       q    Type
REMARK                         _______ _______ _______ _____ _____    ______ ____
ROOT
ATOM      1  C   UNL     1      -0.365  11.233  21.116  0.00  0.00    +0.000 C 
ATOM      2  C   UNL     1      -1.582  11.681  20.291  0.00  0.00    +0.000 C 
ATOM      3  C   UNL     1      -2.082  13.063  20.711  0.00  0.00    +0.000 C 
ATOM      4  N   UNL     1      -2.394  13.170  22.140  0.00  0.00    +0.000 NA
ATOM      5  C   UNL     1      -1.193  12.836  22.923  0.00  0.00    +0.000 C 
ATOM      6  C   UNL     1      -0.597  11.458  22.614  0.00  0.00    +0.000 C 
ENDROOT
BRANCH   4   7
ATOM      7  C   UNL     1      -3.629  12.474  22.616  0.00  0.00    +0.000 C 
ATOM      8  C   UNL     1      -4.981  12.968  22.024  0.00  0.00    +0.000 C 
ATOM      9  C   UNL     1      -5.363  14.352  22.491  0.00  0.00    +0.000 A 
ATOM     10  C   UNL     1      -6.210  15.138  21.696  0.00  0.00    +0.000 A 
ATOM     11  C   UNL     1      -6.480  16.461  22.043  0.00  0.00    +0.000 A 
ATOM     12  C   UNL     1      -5.929  17.000  23.201  0.00  0.00    +0.000 A 
ATOM     13  C   UNL     1      -5.150  16.201  24.039  0.00  0.00    +0.000 A 
ATOM     14  C   UNL     1      -4.874  14.867  23.703  0.00  0.00    +0.000 A 
ATOM     15  C   UNL     1      -4.004  14.041  24.627  0.00  0.00    +0.000 C 
ATOM     16  C   UNL     1      -3.776  12.590  24.166  0.00  0.00    +0.000 C 
BRANCH  16  17
ATOM     17  O   UNL     1      -4.839  11.742  24.640  0.00  0.00    +0.000 OA
ATOM     18  H   UNL     1      -5.682  12.205  24.482  0.00  0.00    +0.000 HD
ENDBRANCH  16  17
ENDBRANCH   4   7
BRANCH   1  19
ATOM     19  C   UNL     1      -0.058   9.752  20.862  0.00  0.00    +0.000 C 
ATOM     20  O   UNL     1      -0.510   8.884  21.618  0.00  0.00    +0.000 OA
BRANCH  19  25
ATOM     21  C   UNL     1       3.253   7.318  17.995  0.00  0.00    +0.000 C 
ATOM     22  N   UNL     1       2.294   8.299  18.452  0.00  0.00    +0.000 N 
ATOM     23  C   UNL     1       1.889   9.397  17.748  0.00  0.00    +0.000 A 
ATOM     24  C   UNL     1       0.979  10.079  18.525  0.00  0.00    +0.000 A 
ATOM     25  C   UNL     1       0.819   9.365  19.753  0.00  0.00    +0.000 A 
ATOM     26  C   UNL     1       1.653   8.264  19.664  0.00  0.00    +0.000 A 
ENDBRANCH  19  25
ENDBRANCH   1  19
TORSDOF 4
ENDMDL
