MODEL 1
REMARK VINA RESULT:      -5.8      0.000      0.000
REMARK  Name = 
REMARK  11 active torsions:
REMARK  status: ('A' for Active; 'I' for Inactive)
REMARK    1  A    between atoms: N_1  and  C_2
REMARK    2  A    between atoms: C_2  and  C_3
REMARK    3  A    between atoms: C_3  and  C_4
REMARK    4  A    between atoms: C_4  and  C_5
REMARK    5  A    between atoms: C_5  and  C_6
REMARK    6  A    between atoms: C_6  and  C_7
REMARK    7  A    between atoms: C_7  and  C_8
REMARK    8  A    between atoms: C_8  and  C_9
REMARK    9  A    between atoms: C_9  and  C_10
REMARK   10  A    between atoms: C_10  and  C_11
REMARK   11  A    between atoms: C_11  and  C_12
REMARK                            x       y       z     vdW  Elec       q    Type
REMARK                         _______ _______ _______ _____ _____    ______ ____
ROOT
ATOM      1  C   UNL     1       2.919   5.968  19.929  0.00  0.00    +0.000 C 
ENDROOT
BRANCH   1   2
ATOM      2  C   UNL     1       1.649   5.350  20.488  0.00  0.00    +0.000 C 
BRANCH   2   3
ATOM      3  C   UNL     1       1.818   3.847  20.626  0.00  0.00    +0.000 C 
BRANCH   3   4
ATOM      4  C   UNL     1       0.731   3.127  19.847  0.00  0.00    +0.000 C 
BRANCH   4   5
ATOM      5  C   UNL     1       1.351   2.234  18.785  0.00  0.00    +0.000 C 
BRANCH   5   6
ATOM      6  C   UNL     1       2.800   2.632  18.540  0.00  0.00    +0.000 C 
BRANCH   6   7
ATOM      7  C   UNL     1       3.714   1.422  18.682  0.00  0.00    +0.000 C 
BRANCH   7   8
ATOM      8  N   UNL     1       4.850   1.764  19.521  0.00  0.00    +0.000 NA
ATOM      9  H   UNL     1       4.830   1.188  20.365  0.00  0.00    +0.000 HD
ATOM     10  H   UNL     1       4.765   2.730  19.833  0.00  0.00    +0.000 HD
ENDBRANCH   7   8
ENDBRANCH   6   7
ENDBRANCH   5   6
ENDBRANCH   4   5
ENDBRANCH   3   4
ENDBRANCH   2   3
ENDBRANCH   1   2
BRANCH   1  11
ATOM     11  C   UNL     1       2.575   6.997  18.866  0.00  0.00    +0.000 C 
BRANCH  11  12
ATOM     12  C   UNL     1       3.529   6.873  17.688  0.00  0.00    +0.000 C 
BRANCH  12  13
ATOM     13  C   UNL     1       3.719   5.409  17.311  0.00  0.00    +0.000 C 
BRANCH  13  14
ATOM     14  C   UNL     1       5.155   5.124  16.976  0.00  0.00    +0.000 A 
ATOM     15  C   UNL     1       5.564   5.002  15.645  0.00  0.00    +0.000 A 
ATOM     16  C   UNL     1       6.895   4.716  15.391  0.00  0.00    +0.000 A 
ATOM     17  N   UNL     1       7.823   4.527  16.354  0.00  0.00    +0.000 NA
ATOM     18  C   UNL     1       7.401   4.633  17.633  0.00  0.00    +0.000 A 
ATOM     19  C   UNL     1       6.094   4.925  17.989  0.00  0.00    +0.000 A 
ENDBRANCH  13  14
ENDBRANCH  12  13
ENDBRANCH  11  12
ENDBRANCH   1  11
TORSDOF 11
ENDMDL
MODEL 2
REMARK VINA RESULT:      -5.7      2.295      5.215
REMARK  Name = 
REMARK  11 active torsions:
REMARK  status: ('A' for Active; 'I' for Inactive)
REMARK    1  A    between atoms: N_1  and  C_2
REMARK    2  A    between atoms: C_2  and  C_3
REMARK    3  A    between atoms: C_3  and  C_4
REMARK    4  A    between atoms: C_4  and  C_5
REMARK    5  A    between atoms: C_5  and  C_6
REMARK    6  A    between atoms: C_6  and  C_7
REMARK    7  A    between atoms: C_7  and  C_8
REMARK    8  A    between atoms: C_8  and  C_9
REMARK    9  A    between atoms: C_9  and  C_10
REMARK   10  A    between atoms: C_10  and  C_11
REMARK   11  A    between atoms: C_11  and  C_12
REMARK                            x       y       z     vdW  Elec       q    Type
REMARK                         _______ _______ _______ _____ _____    ______ ____
ROOT
ATOM      1  C   UNL     1       1.220   2.293  18.913  0.00  0.00    +0.000 C 
ENDROOT
BRANCH   1   2
ATOM      2  C   UNL     1       2.544   2.076  18.202  0.00  0.00    +0.000 C 
BRANCH   2   3
ATOM      3  C   UNL     1       2.827   3.236  17.262  0.00  0.00    +0.000 C 
BRANCH   3   4
ATOM      4  C   UNL     1       4.170   3.862  17.596  0.00  0.00    +0.000 C 
BRANCH   4   5
ATOM      5  C   UNL     1       4.696   4.642  16.402  0.00  0.00    +0.000 C 
BRANCH   5   6
ATOM      6  C   UNL     1       5.947   3.977  15.846  0.00  0.00    +0.000 C 
BRANCH   6   7
ATOM      7  C   UNL     1       7.191   4.538  16.523  0.00  0.00    +0.000 C 
BRANCH   7   8
ATOM      8  N   UNL     1       7.289   5.964  16.262  0.00  0.00    +0.000 NA
ATOM      9  H   UNL     1       7.962   6.379  16.908  0.00  0.00    +0.000 HD
ATOM     10  H   UNL     1       6.393   6.409  16.458  0.00  0.00    +0.000 HD
ENDBRANCH   7   8
ENDBRANCH   6   7
ENDBRANCH   5   6
ENDBRANCH   4   5
ENDBRANCH   3   4
ENDBRANCH   2   3
ENDBRANCH   1   2
BRANCH   1  11
ATOM     11  C   UNL     1       1.462   2.762  20.337  0.00  0.00    +0.000 C 
BRANCH  11  12
ATOM     12  C   UNL     1       1.104   4.235  20.471  0.00  0.00    +0.000 C 
BRANCH  12  13
ATOM     13  C   UNL     1       2.367   5.086  20.514  0.00  0.00    +0.000 C 
BRANCH  13  14
ATOM     14  C   UNL     1       2.109   6.455  19.953  0.00  0.00    +0.000 A 
ATOM     15  C   UNL     1       2.530   6.786  18.663  0.00  0.00    +0.000 A 
ATOM     16  C   UNL     1       2.288   8.069  18.202  0.00  0.00    +0.000 A 
ATOM     17  N   UNL     1       1.685   9.032  18.932  0.00  0.00    +0.000 NA
ATOM     18  C   UNL     1       1.302   8.694  20.183  0.00  0.00    +0.000 A 
ATOM     19  C   UNL     1       1.490   7.435  20.730  0.00  0.00    +0.000 A 
ENDBRANCH  13  14
ENDBRANCH  12  13
ENDBRANCH  11  12
ENDBRANCH   1  11
TORSDOF 11
ENDMDL
MODEL 3
REMARK VINA RESULT:      -5.6      2.820      4.875
REMARK  Name = 
REMARK  11 active torsions:
REMARK  status: ('A' for Active; 'I' for Inactive)
REMARK    1  A    between atoms: N_1  and  C_2
REMARK    2  A    between atoms: C_2  and  C_3
REMARK    3  A    between atoms: C_3  and  C_4
REMARK    4  A    between atoms: C_4  and  C_5
REMARK    5  A    between atoms: C_5  and  C_6
REMARK    6  A    between atoms: C_6  and  C_7
REMARK    7  A    between atoms: C_7  and  C_8
REMARK    8  A    between atoms: C_8  and  C_9
REMARK    9  A    between atoms: C_9  and  C_10
REMARK   10  A    between atoms: C_10  and  C_11
REMARK   11  A    between atoms: C_11  and  C_12
REMARK                            x       y       z     vdW  Elec       q    Type
REMARK                         _______ _______ _______ _____ _____    ______ ____
ROOT
ATOM      1  C   UNL     1       3.999   4.144  18.187  0.00  0.00    +0.000 C 
ENDROOT
BRANCH   1   2
ATOM      2  C   UNL     1       3.829   2.771  17.559  0.00  0.00    +0.000 C 
BRANCH   2   3
ATOM      3  C   UNL     1       2.620   2.072  18.155  0.00  0.00    +0.000 C 
BRANCH   3   4
ATOM      4  C   UNL     1       1.464   3.049  18.285  0.00  0.00    +0.000 C 
BRANCH   4   5
ATOM      5  C   UNL     1       0.796   2.895  19.641  0.00  0.00    +0.000 C 
BRANCH   5   6
ATOM      6  C   UNL     1       1.037   4.133  20.492  0.00  0.00    +0.000 C 
BRANCH   6   7
ATOM      7  C   UNL     1       2.180   3.892  21.470  0.00  0.00    +0.000 C 
BRANCH   7   8
ATOM      8  N   UNL     1       2.125   2.524  21.958  0.00  0.00    +0.000 NA
ATOM      9  H   UNL     1       3.063   2.227  22.234  0.00  0.00    +0.000 HD
ATOM     10  H   UNL     1       1.840   1.903  21.202  0.00  0.00    +0.000 HD
ENDBRANCH   7   8
ENDBRANCH   6   7
ENDBRANCH   5   6
ENDBRANCH   4   5
ENDBRANCH   3   4
ENDBRANCH   2   3
ENDBRANCH   1   2
BRANCH   1  11
ATOM     11  C   UNL     1       4.152   5.199  17.104  0.00  0.00    +0.000 C 
BRANCH  11  12
ATOM     12  C   UNL     1       4.024   6.590  17.706  0.00  0.00    +0.000 C 
BRANCH  12  13
ATOM     13  C   UNL     1       3.197   6.540  18.985  0.00  0.00    +0.000 C 
BRANCH  13  14
ATOM     14  C   UNL     1       2.261   7.712  19.065  0.00  0.00    +0.000 A 
ATOM     15  C   UNL     1       2.044   8.525  17.950  0.00  0.00    +0.000 A 
ATOM     16  C   UNL     1       1.189   9.607  18.083  0.00  0.00    +0.000 A 
ATOM     17  N   UNL     1       0.564   9.938  19.233  0.00  0.00    +0.000 NA
ATOM     18  C   UNL     1       0.803   9.147  20.303  0.00  0.00    +0.000 A 
ATOM     19  C   UNL     1       1.634   8.038  20.267  0.00  0.00    +0.000 A 
ENDBRANCH  13  14
ENDBRANCH  12  13
ENDBRANCH  11  12
ENDBRANCH   1  11
TORSDOF 11
ENDMDL
MODEL 4
REMARK VINA RESULT:      -5.6      2.208      4.076
REMARK  Name = 
REMARK  11 active torsions:
REMARK  status: ('A' for Active; 'I' for Inactive)
REMARK    1  A    between atoms: N_1  and  C_2
REMARK    2  A    between atoms: C_2  and  C_3
REMARK    3  A    between atoms: C_3  and  C_4
REMARK    4  A    between atoms: C_4  and  C_5
REMARK    5  A    between atoms: C_5  and  C_6
REMARK    6  A    between atoms: C_6  and  C_7
REMARK    7  A    between atoms: C_7  and  C_8
REMARK    8  A    between atoms: C_8  and  C_9
REMARK    9  A    between atoms: C_9  and  C_10
REMARK   10  A    between atoms: C_10  and  C_11
REMARK   11  A    between atoms: C_11  and  C_12
REMARK                            x       y       z     vdW  Elec       q    Type
REMARK                         _______ _______ _______ _____ _____    ______ ____
ROOT
ATOM      1  C   UNL     1       1.686   2.455  19.474  0.00  0.00    +0.000 C 
ENDROOT
BRANCH   1   2
ATOM      2  C   UNL     1       1.158   3.709  20.150  0.00  0.00    +0.000 C 
BRANCH   2   3
ATOM      3  C   UNL     1       2.277   4.724  20.313  0.00  0.00    +0.000 C 
BRANCH   3   4
ATOM      4  C   UNL     1       1.923   6.011  19.589  0.00  0.00    +0.000 C 
BRANCH   4   5
ATOM      5  C   UNL     1       3.187   6.719  19.129  0.00  0.00    +0.000 C 
BRANCH   5   6
ATOM      6  C   UNL     1       2.869   7.687  17.999  0.00  0.00    +0.000 C 
BRANCH   6   7
ATOM      7  C   UNL     1       1.986   8.822  18.504  0.00  0.00    +0.000 C 
BRANCH   7   8
ATOM      8  N   UNL     1       1.695   9.737  17.414  0.00  0.00    +0.000 NA
ATOM      9  H   UNL     1       0.701   9.682  17.185  0.00  0.00    +0.000 HD
ATOM     10  H   UNL     1       2.198   9.444  16.578  0.00  0.00    +0.000 HD
ENDBRANCH   7   8
ENDBRANCH   6   7
ENDBRANCH   5   6
ENDBRANCH   4   5
ENDBRANCH   3   4
ENDBRANCH   2   3
ENDBRANCH   1   2
BRANCH   1  11
ATOM     11  C   UNL     1       3.200   2.514  19.372  0.00  0.00    +0.000 C 
BRANCH  11  12
ATOM     12  C   UNL     1       3.636   2.326  17.927  0.00  0.00    +0.000 C 
BRANCH  12  13
ATOM     13  C   UNL     1       3.610   3.658  17.188  0.00  0.00    +0.000 C 
BRANCH  13  14
ATOM     14  C   UNL     1       4.995   4.072  16.780  0.00  0.00    +0.000 A 
ATOM     15  C   UNL     1       5.907   4.540  17.730  0.00  0.00    +0.000 A 
ATOM     16  C   UNL     1       7.164   4.930  17.298  0.00  0.00    +0.000 A 
ATOM     17  N   UNL     1       7.559   4.904  16.007  0.00  0.00    +0.000 NA
ATOM     18  C   UNL     1       6.655   4.464  15.104  0.00  0.00    +0.000 A 
ATOM     19  C   UNL     1       5.378   4.043  15.439  0.00  0.00    +0.000 A 
ENDBRANCH  13  14
ENDBRANCH  12  13
ENDBRANCH  11  12
ENDBRANCH   1  11
TORSDOF 11
ENDMDL
MODEL 5
REMARK VINA RESULT:      -5.5      5.115      6.605
REMARK  Name = 
REMARK  11 active torsions:
REMARK  status: ('A' for Active; 'I' for Inactive)
REMARK    1  A    between atoms: N_1  and  C_2
REMARK    2  A    between atoms: C_2  and  C_3
REMARK    3  A    between atoms: C_3  and  C_4
REMARK    4  A    between atoms: C_4  and  C_5
REMARK    5  A    between atoms: C_5  and  C_6
REMARK    6  A    between atoms: C_6  and  C_7
REMARK    7  A    between atoms: C_7  and  C_8
REMARK    8  A    between atoms: C_8  and  C_9
REMARK    9  A    between atoms: C_9  and  C_10
REMARK   10  A    between atoms: C_10  and  C_11
REMARK   11  A    between atoms: C_11  and  C_12
REMARK                            x       y       z     vdW  Elec       q    Type
REMARK                         _______ _______ _______ _____ _____    ______ ____
ROOT
ATOM      1  C   UNL     1       7.706   6.143  18.170  0.00  0.00    +0.000 C 
ENDROOT
BRANCH   1   2
ATOM      2  C   UNL     1       6.358   5.707  18.720  0.00  0.00    +0.000 C 
BRANCH   2   3
ATOM      3  C   UNL     1       5.246   6.149  17.785  0.00  0.00    +0.000 C 
BRANCH   3   4
ATOM      4  C   UNL     1       4.348   4.970  17.448  0.00  0.00    +0.000 C 
BRANCH   4   5
ATOM      5  C   UNL     1       4.946   4.165  16.306  0.00  0.00    +0.000 C 
BRANCH   5   6
ATOM      6  C   UNL     1       5.446   5.095  15.210  0.00  0.00    +0.000 C 
BRANCH   6   7
ATOM      7  C   UNL     1       6.644   4.479  14.498  0.00  0.00    +0.000 C 
BRANCH   7   8
ATOM      8  N   UNL     1       7.731   5.443  14.450  0.00  0.00    +0.000 NA
ATOM      9  H   UNL     1       8.397   5.162  13.727  0.00  0.00    +0.000 HD
ATOM     10  H   UNL     1       8.241   5.426  15.331  0.00  0.00    +0.000 HD
ENDBRANCH   7   8
ENDBRANCH   6   7
ENDBRANCH   5   6
ENDBRANCH   4   5
ENDBRANCH   3   4
ENDBRANCH   2   3
ENDBRANCH   1   2
BRANCH   1  11
ATOM     11  C   UNL     1       7.617   7.561  17.633  0.00  0.00    +0.000 C 
BRANCH  11  12
ATOM     12  C   UNL     1       8.483   8.492  18.467  0.00  0.00    +0.000 C 
BRANCH  12  13
ATOM     13  C   UNL     1       8.409   9.914  17.923  0.00  0.00    +0.000 C 
BRANCH  13  14
ATOM     14  C   UNL     1       9.407  10.802  18.610  0.00  0.00    +0.000 A 
ATOM     15  C   UNL     1      10.358  11.509  17.871  0.00  0.00    +0.000 A 
ATOM     16  C   UNL     1      11.269  12.297  18.555  0.00  0.00    +0.000 A 
ATOM     17  N   UNL     1      11.308  12.410  19.900  0.00  0.00    +0.000 NA
ATOM     18  C   UNL     1      10.389  11.704  20.595  0.00  0.00    +0.000 A 
ATOM     19  C   UNL     1       9.431  10.897  20.002  0.00  0.00    +0.000 A 
ENDBRANCH  13  14
ENDBRANCH  12  13
ENDBRANCH  11  12
ENDBRANCH   1  11
TORSDOF 11
ENDMDL
MODEL 6
REMARK VINA RESULT:      -5.5      2.020      3.666
REMARK  Name = 
REMARK  11 active torsions:
REMARK  status: ('A' for Active; 'I' for Inactive)
REMARK    1  A    between atoms: N_1  and  C_2
REMARK    2  A    between atoms: C_2  and  C_3
REMARK    3  A    between atoms: C_3  and  C_4
REMARK    4  A    between atoms: C_4  and  C_5
REMARK    5  A    between atoms: C_5  and  C_6
REMARK    6  A    between atoms: C_6  and  C_7
REMARK    7  A    between atoms: C_7  and  C_8
REMARK    8  A    between atoms: C_8  and  C_9
REMARK    9  A    between atoms: C_9  and  C_10
REMARK   10  A    between atoms: C_10  and  C_11
REMARK   11  A    between atoms: C_11  and  C_12
REMARK                            x       y       z     vdW  Elec       q    Type
REMARK                         _______ _______ _______ _____ _____    ______ ____
ROOT
ATOM      1  C   UNL     1       1.792   1.996  18.758  0.00  0.00    +0.000 C 
ENDROOT
BRANCH   1   2
ATOM      2  C   UNL     1       1.149   3.283  19.246  0.00  0.00    +0.000 C 
BRANCH   2   3
ATOM      3  C   UNL     1       1.440   3.485  20.723  0.00  0.00    +0.000 C 
BRANCH   3   4
ATOM      4  C   UNL     1       2.223   4.770  20.929  0.00  0.00    +0.000 C 
BRANCH   4   5
ATOM      5  C   UNL     1       1.461   5.948  20.345  0.00  0.00    +0.000 C 
BRANCH   5   6
ATOM      6  C   UNL     1       2.431   7.009  19.846  0.00  0.00    +0.000 C 
BRANCH   6   7
ATOM      7  C   UNL     1       2.302   7.178  18.337  0.00  0.00    +0.000 C 
BRANCH   7   8
ATOM      8  N   UNL     1       2.450   8.580  17.988  0.00  0.00    +0.000 NA
ATOM      9  H   UNL     1       1.556   9.056  18.118  0.00  0.00    +0.000 HD
ATOM     10  H   UNL     1       2.677   8.664  16.998  0.00  0.00    +0.000 HD
ENDBRANCH   7   8
ENDBRANCH   6   7
ENDBRANCH   5   6
ENDBRANCH   4   5
ENDBRANCH   3   4
ENDBRANCH   2   3
ENDBRANCH   1   2
BRANCH   1  11
ATOM     11  C   UNL     1       2.945   2.311  17.821  0.00  0.00    +0.000 C 
BRANCH  11  12
ATOM     12  C   UNL     1       2.930   3.786  17.448  0.00  0.00    +0.000 C 
BRANCH  12  13
ATOM     13  C   UNL     1       4.115   4.118  16.551  0.00  0.00    +0.000 C 
BRANCH  13  14
ATOM     14  C   UNL     1       5.330   4.451  17.369  0.00  0.00    +0.000 A 
ATOM     15  C   UNL     1       5.198   4.974  18.658  0.00  0.00    +0.000 A 
ATOM     16  C   UNL     1       6.350   5.286  19.361  0.00  0.00    +0.000 A 
ATOM     17  N   UNL     1       7.598   5.133  18.870  0.00  0.00    +0.000 NA
ATOM     18  C   UNL     1       7.701   4.641  17.616  0.00  0.00    +0.000 A 
ATOM     19  C   UNL     1       6.610   4.291  16.836  0.00  0.00    +0.000 A 
ENDBRANCH  13  14
ENDBRANCH  12  13
ENDBRANCH  11  12
ENDBRANCH   1  11
TORSDOF 11
ENDMDL
MODEL 7
REMARK VINA RESULT:      -5.5      2.385      5.943
REMARK  Name = 
REMARK  11 active torsions:
REMARK  status: ('A' for Active; 'I' for Inactive)
REMARK    1  A    between atoms: N_1  and  C_2
REMARK    2  A    between atoms: C_2  and  C_3
REMARK    3  A    between atoms: C_3  and  C_4
REMARK    4  A    between atoms: C_4  and  C_5
REMARK    5  A    between atoms: C_5  and  C_6
REMARK    6  A    between atoms: C_6  and  C_7
REMARK    7  A    between atoms: C_7  and  C_8
REMARK    8  A    between atoms: C_8  and  C_9
REMARK    9  A    between atoms: C_9  and  C_10
REMARK   10  A    between atoms: C_10  and  C_11
REMARK   11  A    between atoms: C_11  and  C_12
REMARK                            x       y       z     vdW  Elec       q    Type
REMARK                         _______ _______ _______ _____ _____    ______ ____
ROOT
ATOM      1  C   UNL     1       5.062   5.968  18.200  0.00  0.00    +0.000 C 
ENDROOT
BRANCH   1   2
ATOM      2  C   UNL     1       5.708   5.098  17.136  0.00  0.00    +0.000 C 
BRANCH   2   3
ATOM      3  C   UNL     1       5.472   5.695  15.760  0.00  0.00    +0.000 C 
BRANCH   3   4
ATOM      4  C   UNL     1       6.326   4.979  14.727  0.00  0.00    +0.000 C 
BRANCH   4   5
ATOM      5  C   UNL     1       5.465   4.047  13.891  0.00  0.00    +0.000 C 
BRANCH   5   6
ATOM      6  C   UNL     1       6.265   3.501  12.716  0.00  0.00    +0.000 C 
BRANCH   6   7
ATOM      7  C   UNL     1       5.364   2.696  11.788  0.00  0.00    +0.000 C 
BRANCH   7   8
ATOM      8  N   UNL     1       6.038   1.470  11.395  0.00  0.00    +0.000 NA
ATOM      9  H   UNL     1       5.582   0.676  11.847  0.00  0.00    +0.000 HD
ATOM     10  H   UNL     1       6.997   1.483  11.738  0.00  0.00    +0.000 HD
ENDBRANCH   7   8
ENDBRANCH   6   7
ENDBRANCH   5   6
ENDBRANCH   4   5
ENDBRANCH   3   4
ENDBRANCH   2   3
ENDBRANCH   1   2
BRANCH   1  11
ATOM     11  C   UNL     1       3.971   6.825  17.583  0.00  0.00    +0.000 C 
BRANCH  11  12
ATOM     12  C   UNL     1       2.654   6.601  18.309  0.00  0.00    +0.000 C 
BRANCH  12  13
ATOM     13  C   UNL     1       2.036   5.273  17.887  0.00  0.00    +0.000 C 
BRANCH  13  14
ATOM     14  C   UNL     1       1.909   4.344  19.060  0.00  0.00    +0.000 A 
ATOM     15  C   UNL     1       2.145   4.801  20.359  0.00  0.00    +0.000 A 
ATOM     16  C   UNL     1       2.037   3.898  21.404  0.00  0.00    +0.000 A 
ATOM     17  N   UNL     1       1.735   2.592  21.243  0.00  0.00    +0.000 NA
ATOM     18  C   UNL     1       1.527   2.169  19.976  0.00  0.00    +0.000 A 
ATOM     19  C   UNL     1       1.602   2.997  18.868  0.00  0.00    +0.000 A 
ENDBRANCH  13  14
ENDBRANCH  12  13
ENDBRANCH  11  12
ENDBRANCH   1  11
TORSDOF 11
ENDMDL
MODEL 8
REMARK VINA RESULT:      -5.5      1.708      2.565
REMARK  Name = 
REMARK  11 active torsions:
REMARK  status: ('A' for Active; 'I' for Inactive)
REMARK    1  A    between atoms: N_1  and  C_2
REMARK    2  A    between atoms: C_2  and  C_3
REMARK    3  A    between atoms: C_3  and  C_4
REMARK    4  A    between atoms: C_4  and  C_5
REMARK    5  A    between atoms: C_5  and  C_6
REMARK    6  A    between atoms: C_6  and  C_7
REMARK    7  A    between atoms: C_7  and  C_8
REMARK    8  A    between atoms: C_8  and  C_9
REMARK    9  A    between atoms: C_9  and  C_10
REMARK   10  A    between atoms: C_10  and  C_11
REMARK   11  A    between atoms: C_11  and  C_12
REMARK                            x       y       z     vdW  Elec       q    Type
REMARK                         _______ _______ _______ _____ _____    ______ ____
ROOT
ATOM      1  C   UNL     1       2.203   5.312  18.512  0.00  0.00    +0.000 C 
ENDROOT
BRANCH   1   2
ATOM      2  C   UNL     1       2.099   4.303  17.382  0.00  0.00    +0.000 C 
BRANCH   2   3
ATOM      3  C   UNL     1       2.924   3.069  17.707  0.00  0.00    +0.000 C 
BRANCH   3   4
ATOM      4  C   UNL     1       3.738   3.303  18.968  0.00  0.00    +0.000 C 
BRANCH   4   5
ATOM      5  C   UNL     1       3.381   2.269  20.023  0.00  0.00    +0.000 C 
BRANCH   5   6
ATOM      6  C   UNL     1       2.906   2.955  21.296  0.00  0.00    +0.000 C 
BRANCH   6   7
ATOM      7  C   UNL     1       1.451   2.603  21.578  0.00  0.00    +0.000 C 
BRANCH   7   8
ATOM      8  N   UNL     1       0.620   3.038  20.468  0.00  0.00    +0.000 NA
ATOM      9  H   UNL     1       0.943   2.590  19.609  0.00  0.00    +0.000 HD
ATOM     10  H   UNL     1       0.734   4.041  20.328  0.00  0.00    +0.000 HD
ENDBRANCH   7   8
ENDBRANCH   6   7
ENDBRANCH   5   6
ENDBRANCH   4   5
ENDBRANCH   3   4
ENDBRANCH   2   3
ENDBRANCH   1   2
BRANCH   1  11
ATOM     11  C   UNL     1       2.322   6.718  17.948  0.00  0.00    +0.000 C 
BRANCH  11  12
ATOM     12  C   UNL     1       3.768   7.185  18.007  0.00  0.00    +0.000 C 
BRANCH  12  13
ATOM     13  C   UNL     1       4.439   7.002  16.651  0.00  0.00    +0.000 C 
BRANCH  13  14
ATOM     14  C   UNL     1       5.587   6.037  16.747  0.00  0.00    +0.000 A 
ATOM     15  C   UNL     1       6.295   5.891  17.942  0.00  0.00    +0.000 A 
ATOM     16  C   UNL     1       7.359   5.004  17.970  0.00  0.00    +0.000 A 
ATOM     17  N   UNL     1       7.769   4.283  16.905  0.00  0.00    +0.000 NA
ATOM     18  C   UNL     1       7.079   4.454  15.755  0.00  0.00    +0.000 A 
ATOM     19  C   UNL     1       5.995   5.309  15.629  0.00  0.00    +0.000 A 
ENDBRANCH  13  14
ENDBRANCH  12  13
ENDBRANCH  11  12
ENDBRANCH   1  11
TORSDOF 11
ENDMDL
MODEL 9
REMARK VINA RESULT:      -5.4      2.545      5.706
REMARK  Name = 
REMARK  11 active torsions:
REMARK  status: ('A' for Active; 'I' for Inactive)
REMARK    1  A    between atoms: N_1  and  C_2
REMARK    2  A    between atoms: C_2  and  C_3
REMARK    3  A    between atoms: C_3  and  C_4
REMARK    4  A    between atoms: C_4  and  C_5
REMARK    5  A    between atoms: C_5  and  C_6
REMARK    6  A    between atoms: C_6  and  C_7
REMARK    7  A    between atoms: C_7  and  C_8
REMARK    8  A    between atoms: C_8  and  C_9
REMARK    9  A    between atoms: C_9  and  C_10
REMARK   10  A    between atoms: C_10  and  C_11
REMARK   11  A    between atoms: C_11  and  C_12
REMARK                            x       y       z     vdW  Elec       q    Type
REMARK                         _______ _______ _______ _____ _____    ______ ____
ROOT
ATOM      1  C   UNL     1       7.052   6.054  16.902  0.00  0.00    +0.000 C 
ENDROOT
BRANCH   1   2
ATOM      2  C   UNL     1       7.138   4.672  16.278  0.00  0.00    +0.000 C 
BRANCH   2   3
ATOM      3  C   UNL     1       6.861   4.755  14.787  0.00  0.00    +0.000 C 
BRANCH   3   4
ATOM      4  C   UNL     1       5.559   4.045  14.457  0.00  0.00    +0.000 C 
BRANCH   4   5
ATOM      5  C   UNL     1       5.320   4.057  12.957  0.00  0.00    +0.000 C 
BRANCH   5   6
ATOM      6  C   UNL     1       6.326   3.156  12.254  0.00  0.00    +0.000 C 
BRANCH   6   7
ATOM      7  C   UNL     1       5.607   2.043  11.503  0.00  0.00    +0.000 C 
BRANCH   7   8
ATOM      8  N   UNL     1       6.550   0.987  11.175  0.00  0.00    +0.000 NA
ATOM      9  H   UNL     1       6.410   0.700  10.204  0.00  0.00    +0.000 HD
ATOM     10  H   UNL     1       6.356   0.166  11.746  0.00  0.00    +0.000 HD
ENDBRANCH   7   8
ENDBRANCH   6   7
ENDBRANCH   5   6
ENDBRANCH   4   5
ENDBRANCH   3   4
ENDBRANCH   2   3
ENDBRANCH   1   2
BRANCH   1  11
ATOM     11  C   UNL     1       5.873   6.124  17.857  0.00  0.00    +0.000 C 
BRANCH  11  12
ATOM     12  C   UNL     1       4.592   6.406  17.088  0.00  0.00    +0.000 C 
BRANCH  12  13
ATOM     13  C   UNL     1       3.376   6.148  17.970  0.00  0.00    +0.000 C 
BRANCH  13  14
ATOM     14  C   UNL     1       3.263   4.690  18.312  0.00  0.00    +0.000 A 
ATOM     15  C   UNL     1       3.026   3.741  17.315  0.00  0.00    +0.000 A 
ATOM     16  C   UNL     1       2.907   2.412  17.687  0.00  0.00    +0.000 A 
ATOM     17  N   UNL     1       2.987   1.976  18.962  0.00  0.00    +0.000 NA
ATOM     18  C   UNL     1       3.201   2.913  19.912  0.00  0.00    +0.000 A 
ATOM     19  C   UNL     1       3.343   4.265  19.639  0.00  0.00    +0.000 A 
ENDBRANCH  13  14
ENDBRANCH  12  13
ENDBRANCH  11  12
ENDBRANCH   1  11
TORSDOF 11
ENDMDL
