MODEL 1
REMARK VINA RESULT:      -6.6      0.000      0.000
REMARK  Name = 
REMARK  6 active torsions:
REMARK  status: ('A' for Active; 'I' for Inactive)
REMARK    1  A    between atoms: C_2  and  O_3
REMARK    2  A    between atoms: C_2  and  C_4
REMARK    3  A    between atoms: C_7  and  C_8
REMARK    4  A    between atoms: C_8  and  O_9
REMARK    5  A    between atoms: O_9  and  C_10
REMARK    6  A    between atoms: C_10  and  C_11
REMARK                            x       y       z     vdW  Elec       q    Type
REMARK                         _______ _______ _______ _____ _____    ______ ____
ROOT
ATOM      1  C   UNL     1       5.523   4.915  15.853  0.00  0.00    +0.000 A 
ATOM      2  C   UNL     1       5.297   6.236  16.256  0.00  0.00    +0.000 A 
ATOM      3  C   UNL     1       4.316   6.516  17.210  0.00  0.00    +0.000 A 
ATOM      4  C   UNL     1       3.542   5.485  17.767  0.00  0.00    +0.000 A 
ATOM      5  C   UNL     1       3.780   4.164  17.362  0.00  0.00    +0.000 A 
ATOM      6  C   UNL     1       4.770   3.877  16.425  0.00  0.00    +0.000 A 
ENDROOT
BRANCH   1   8
ATOM      7  O   UNL     1       7.560   5.338  14.697  0.00  0.00    +0.000 OA
ATOM      8  C   UNL     1       6.585   4.628  14.860  0.00  0.00    +0.000 C 
BRANCH   8   9
ATOM      9  O   UNL     1       6.354   3.510  14.136  0.00  0.00    +0.000 OA
ATOM     10  H   UNL     1       6.755   2.700  14.498  0.00  0.00    +0.000 HD
ENDBRANCH   8   9
ENDBRANCH   1   8
BRANCH   4  11
ATOM     11  C   UNL     1       2.477   5.796  18.788  0.00  0.00    +0.000 C 
BRANCH  11  12
ATOM     12  O   UNL     1       2.820   5.133  19.999  0.00  0.00    +0.000 OA
BRANCH  12  13
ATOM     13  C   UNL     1       1.665   4.717  20.740  0.00  0.00    +0.000 C 
BRANCH  13  14
ATOM     14  C   UNL     1       1.376   3.223  20.569  0.00  0.00    +0.000 C 
ATOM     15  F   UNL     1       0.397   2.976  19.671  0.00  0.00    +0.000 F 
ATOM     16  F   UNL     1       2.483   2.565  20.154  0.00  0.00    +0.000 F 
ATOM     17  F   UNL     1       0.997   2.671  21.745  0.00  0.00    +0.000 F 
ENDBRANCH  13  14
ENDBRANCH  12  13
ENDBRANCH  11  12
ENDBRANCH   4  11
TORSDOF 6
ENDMDL
MODEL 2
REMARK VINA RESULT:      -6.6      1.679      1.874
REMARK  Name = 
REMARK  6 active torsions:
REMARK  status: ('A' for Active; 'I' for Inactive)
REMARK    1  A    between atoms: C_2  and  O_3
REMARK    2  A    between atoms: C_2  and  C_4
REMARK    3  A    between atoms: C_7  and  C_8
REMARK    4  A    between atoms: C_8  and  O_9
REMARK    5  A    between atoms: O_9  and  C_10
REMARK    6  A    between atoms: C_10  and  C_11
REMARK                            x       y       z     vdW  Elec       q    Type
REMARK                         _______ _______ _______ _____ _____    ______ ____
ROOT
ATOM      1  C   UNL     1       5.684   5.037  17.066  0.00  0.00    +0.000 A 
ATOM      2  C   UNL     1       4.913   6.061  17.629  0.00  0.00    +0.000 A 
ATOM      3  C   UNL     1       3.565   5.838  17.921  0.00  0.00    +0.000 A 
ATOM      4  C   UNL     1       2.967   4.596  17.650  0.00  0.00    +0.000 A 
ATOM      5  C   UNL     1       3.749   3.576  17.092  0.00  0.00    +0.000 A 
ATOM      6  C   UNL     1       5.098   3.786  16.814  0.00  0.00    +0.000 A 
ENDROOT
BRANCH   1   8
ATOM      7  O   UNL     1       7.550   6.331  16.353  0.00  0.00    +0.000 OA
ATOM      8  C   UNL     1       7.119   5.278  16.784  0.00  0.00    +0.000 C 
BRANCH   8   9
ATOM      9  O   UNL     1       7.901   4.204  17.034  0.00  0.00    +0.000 OA
ATOM     10  H   UNL     1       8.839   4.319  16.799  0.00  0.00    +0.000 HD
ENDBRANCH   8   9
ENDBRANCH   1   8
BRANCH   4  11
ATOM     11  C   UNL     1       1.510   4.367  17.958  0.00  0.00    +0.000 C 
BRANCH  11  12
ATOM     12  O   UNL     1       1.382   3.082  18.554  0.00  0.00    +0.000 OA
BRANCH  12  13
ATOM     13  C   UNL     1       0.762   3.137  19.846  0.00  0.00    +0.000 C 
BRANCH  13  14
ATOM     14  C   UNL     1       1.791   3.222  20.977  0.00  0.00    +0.000 C 
ATOM     15  F   UNL     1       2.982   2.678  20.647  0.00  0.00    +0.000 F 
ATOM     16  F   UNL     1       2.016   4.511  21.325  0.00  0.00    +0.000 F 
ATOM     17  F   UNL     1       1.343   2.581  22.082  0.00  0.00    +0.000 F 
ENDBRANCH  13  14
ENDBRANCH  12  13
ENDBRANCH  11  12
ENDBRANCH   4  11
TORSDOF 6
ENDMDL
MODEL 3
REMARK VINA RESULT:      -6.6      0.062      1.534
REMARK  Name = 
REMARK  6 active torsions:
REMARK  status: ('A' for Active; 'I' for Inactive)
REMARK    1  A    between atoms: C_2  and  O_3
REMARK    2  A    between atoms: C_2  and  C_4
REMARK    3  A    between atoms: C_7  and  C_8
REMARK    4  A    between atoms: C_8  and  O_9
REMARK    5  A    between atoms: O_9  and  C_10
REMARK    6  A    between atoms: C_10  and  C_11
REMARK                            x       y       z     vdW  Elec       q    Type
REMARK                         _______ _______ _______ _____ _____    ______ ____
ROOT
ATOM      1  C   UNL     1       5.560   4.968  15.870  0.00  0.00    +0.000 A 
ATOM      2  C   UNL     1       4.787   3.937  16.417  0.00  0.00    +0.000 A 
ATOM      3  C   UNL     1       3.793   4.233  17.353  0.00  0.00    +0.000 A 
ATOM      4  C   UNL     1       3.561   5.557  17.760  0.00  0.00    +0.000 A 
ATOM      5  C   UNL     1       4.336   6.583  17.201  0.00  0.00    +0.000 A 
ATOM      6  C   UNL     1       5.317   6.296  16.255  0.00  0.00    +0.000 A 
ENDROOT
BRANCH   1   8
ATOM      7  O   UNL     1       7.563   5.348  14.642  0.00  0.00    +0.000 OA
ATOM      8  C   UNL     1       6.594   4.644  14.859  0.00  0.00    +0.000 C 
BRANCH   8   9
ATOM      9  O   UNL     1       6.344   3.500  14.185  0.00  0.00    +0.000 OA
ATOM     10  H   UNL     1       7.051   3.222  13.576  0.00  0.00    +0.000 HD
ENDBRANCH   8   9
ENDBRANCH   1   8
BRANCH   4  11
ATOM     11  C   UNL     1       2.493   5.867  18.778  0.00  0.00    +0.000 C 
BRANCH  11  12
ATOM     12  O   UNL     1       2.778   5.125  19.957  0.00  0.00    +0.000 OA
BRANCH  12  13
ATOM     13  C   UNL     1       1.589   4.720  20.649  0.00  0.00    +0.000 C 
BRANCH  13  14
ATOM     14  C   UNL     1       1.351   3.210  20.556  0.00  0.00    +0.000 C 
ATOM     15  F   UNL     1       0.970   2.664  21.730  0.00  0.00    +0.000 F 
ATOM     16  F   UNL     1       0.388   2.932  19.646  0.00  0.00    +0.000 F 
ATOM     17  F   UNL     1       2.477   2.573  20.156  0.00  0.00    +0.000 F 
ENDBRANCH  13  14
ENDBRANCH  12  13
ENDBRANCH  11  12
ENDBRANCH   4  11
TORSDOF 6
ENDMDL
MODEL 4
REMARK VINA RESULT:      -6.5      1.697      2.244
REMARK  Name = 
REMARK  6 active torsions:
REMARK  status: ('A' for Active; 'I' for Inactive)
REMARK    1  A    between atoms: C_2  and  O_3
REMARK    2  A    between atoms: C_2  and  C_4
REMARK    3  A    between atoms: C_7  and  C_8
REMARK    4  A    between atoms: C_8  and  O_9
REMARK    5  A    between atoms: O_9  and  C_10
REMARK    6  A    between atoms: C_10  and  C_11
REMARK                            x       y       z     vdW  Elec       q    Type
REMARK                         _______ _______ _______ _____ _____    ______ ____
ROOT
ATOM      1  C   UNL     1       5.740   4.938  17.148  0.00  0.00    +0.000 A 
ATOM      2  C   UNL     1       5.055   3.812  16.676  0.00  0.00    +0.000 A 
ATOM      3  C   UNL     1       3.688   3.673  16.925  0.00  0.00    +0.000 A 
ATOM      4  C   UNL     1       2.987   4.648  17.653  0.00  0.00    +0.000 A 
ATOM      5  C   UNL     1       3.681   5.775  18.115  0.00  0.00    +0.000 A 
ATOM      6  C   UNL     1       5.041   5.929  17.855  0.00  0.00    +0.000 A 
ENDROOT
BRANCH   1   8
ATOM      7  O   UNL     1       8.037   4.330  17.281  0.00  0.00    +0.000 OA
ATOM      8  C   UNL     1       7.185   5.087  16.855  0.00  0.00    +0.000 C 
BRANCH   8   9
ATOM      9  O   UNL     1       7.467   6.161  16.083  0.00  0.00    +0.000 OA
ATOM     10  H   UNL     1       7.583   5.964  15.137  0.00  0.00    +0.000 HD
ENDBRANCH   8   9
ENDBRANCH   1   8
BRANCH   4  11
ATOM     11  C   UNL     1       1.514   4.486  17.926  0.00  0.00    +0.000 C 
BRANCH  11  12
ATOM     12  O   UNL     1       1.339   3.322  18.725  0.00  0.00    +0.000 OA
BRANCH  12  13
ATOM     13  C   UNL     1       0.905   3.633  20.056  0.00  0.00    +0.000 C 
BRANCH  13  14
ATOM     14  C   UNL     1       2.036   3.495  21.079  0.00  0.00    +0.000 C 
ATOM     15  F   UNL     1       3.162   2.968  20.551  0.00  0.00    +0.000 F 
ATOM     16  F   UNL     1       2.359   4.701  21.603  0.00  0.00    +0.000 F 
ATOM     17  F   UNL     1       1.658   2.698  22.106  0.00  0.00    +0.000 F 
ENDBRANCH  13  14
ENDBRANCH  12  13
ENDBRANCH  11  12
ENDBRANCH   4  11
TORSDOF 6
ENDMDL
MODEL 5
REMARK VINA RESULT:      -6.5      0.147      1.242
REMARK  Name = 
REMARK  6 active torsions:
REMARK  status: ('A' for Active; 'I' for Inactive)
REMARK    1  A    between atoms: C_2  and  O_3
REMARK    2  A    between atoms: C_2  and  C_4
REMARK    3  A    between atoms: C_7  and  C_8
REMARK    4  A    between atoms: C_8  and  O_9
REMARK    5  A    between atoms: O_9  and  C_10
REMARK    6  A    between atoms: C_10  and  C_11
REMARK                            x       y       z     vdW  Elec       q    Type
REMARK                         _______ _______ _______ _____ _____    ______ ____
ROOT
ATOM      1  C   UNL     1       5.449   4.993  15.816  0.00  0.00    +0.000 A 
ATOM      2  C   UNL     1       5.258   6.325  16.202  0.00  0.00    +0.000 A 
ATOM      3  C   UNL     1       4.323   6.636  17.193  0.00  0.00    +0.000 A 
ATOM      4  C   UNL     1       3.562   5.627  17.804  0.00  0.00    +0.000 A 
ATOM      5  C   UNL     1       3.765   4.296  17.415  0.00  0.00    +0.000 A 
ATOM      6  C   UNL     1       4.709   3.977  16.440  0.00  0.00    +0.000 A 
ENDROOT
BRANCH   1   8
ATOM      7  O   UNL     1       6.314   3.803  13.946  0.00  0.00    +0.000 OA
ATOM      8  C   UNL     1       6.463   4.674  14.782  0.00  0.00    +0.000 C 
BRANCH   8   9
ATOM      9  O   UNL     1       7.578   5.431  14.875  0.00  0.00    +0.000 OA
ATOM     10  H   UNL     1       8.403   4.928  14.998  0.00  0.00    +0.000 HD
ENDBRANCH   8   9
ENDBRANCH   1   8
BRANCH   4  11
ATOM     11  C   UNL     1       2.548   5.972  18.865  0.00  0.00    +0.000 C 
BRANCH  11  12
ATOM     12  O   UNL     1       2.811   5.165  20.006  0.00  0.00    +0.000 OA
BRANCH  12  13
ATOM     13  C   UNL     1       1.610   4.753  20.673  0.00  0.00    +0.000 C 
BRANCH  13  14
ATOM     14  C   UNL     1       1.362   3.248  20.539  0.00  0.00    +0.000 C 
ATOM     15  F   UNL     1       0.991   2.669  21.701  0.00  0.00    +0.000 F 
ATOM     16  F   UNL     1       0.387   3.001  19.633  0.00  0.00    +0.000 F 
ATOM     17  F   UNL     1       2.479   2.615  20.108  0.00  0.00    +0.000 F 
ENDBRANCH  13  14
ENDBRANCH  12  13
ENDBRANCH  11  12
ENDBRANCH   4  11
TORSDOF 6
ENDMDL
MODEL 6
REMARK VINA RESULT:      -6.5      1.679      1.932
REMARK  Name = 
REMARK  6 active torsions:
REMARK  status: ('A' for Active; 'I' for Inactive)
REMARK    1  A    between atoms: C_2  and  O_3
REMARK    2  A    between atoms: C_2  and  C_4
REMARK    3  A    between atoms: C_7  and  C_8
REMARK    4  A    between atoms: C_8  and  O_9
REMARK    5  A    between atoms: O_9  and  C_10
REMARK    6  A    between atoms: C_10  and  C_11
REMARK                            x       y       z     vdW  Elec       q    Type
REMARK                         _______ _______ _______ _____ _____    ______ ____
ROOT
ATOM      1  C   UNL     1       5.708   5.068  17.073  0.00  0.00    +0.000 A 
ATOM      2  C   UNL     1       4.941   6.120  17.587  0.00  0.00    +0.000 A 
ATOM      3  C   UNL     1       3.591   5.916  17.885  0.00  0.00    +0.000 A 
ATOM      4  C   UNL     1       2.988   4.667  17.667  0.00  0.00    +0.000 A 
ATOM      5  C   UNL     1       3.767   3.618  17.158  0.00  0.00    +0.000 A 
ATOM      6  C   UNL     1       5.118   3.810  16.876  0.00  0.00    +0.000 A 
ENDROOT
BRANCH   1   8
ATOM      7  O   UNL     1       7.989   4.416  16.873  0.00  0.00    +0.000 OA
ATOM      8  C   UNL     1       7.146   5.289  16.786  0.00  0.00    +0.000 C 
BRANCH   8   9
ATOM      9  O   UNL     1       7.432   6.564  16.438  0.00  0.00    +0.000 OA
ATOM     10  H   UNL     1       7.310   7.217  17.149  0.00  0.00    +0.000 HD
ENDBRANCH   8   9
ENDBRANCH   1   8
BRANCH   4  11
ATOM     11  C   UNL     1       1.529   4.458  17.981  0.00  0.00    +0.000 C 
BRANCH  11  12
ATOM     12  O   UNL     1       1.375   3.149  18.517  0.00  0.00    +0.000 OA
BRANCH  12  13
ATOM     13  C   UNL     1       0.709   3.153  19.787  0.00  0.00    +0.000 C 
BRANCH  13  14
ATOM     14  C   UNL     1       1.698   3.166  20.957  0.00  0.00    +0.000 C 
ATOM     15  F   UNL     1       1.234   2.514  22.045  0.00  0.00    +0.000 F 
ATOM     16  F   UNL     1       2.868   2.585  20.602  0.00  0.00    +0.000 F 
ATOM     17  F   UNL     1       1.978   4.436  21.333  0.00  0.00    +0.000 F 
ENDBRANCH  13  14
ENDBRANCH  12  13
ENDBRANCH  11  12
ENDBRANCH   4  11
TORSDOF 6
ENDMDL
MODEL 7
REMARK VINA RESULT:      -6.4      2.179      2.893
REMARK  Name = 
REMARK  6 active torsions:
REMARK  status: ('A' for Active; 'I' for Inactive)
REMARK    1  A    between atoms: C_2  and  O_3
REMARK    2  A    between atoms: C_2  and  C_4
REMARK    3  A    between atoms: C_7  and  C_8
REMARK    4  A    between atoms: C_8  and  O_9
REMARK    5  A    between atoms: O_9  and  C_10
REMARK    6  A    between atoms: C_10  and  C_11
REMARK                            x       y       z     vdW  Elec       q    Type
REMARK                         _______ _______ _______ _____ _____    ______ ____
ROOT
ATOM      1  C   UNL     1       6.425   5.910  17.874  0.00  0.00    +0.000 A 
ATOM      2  C   UNL     1       6.150   5.198  19.048  0.00  0.00    +0.000 A 
ATOM      3  C   UNL     1       5.129   4.245  19.060  0.00  0.00    +0.000 A 
ATOM      4  C   UNL     1       4.365   3.995  17.909  0.00  0.00    +0.000 A 
ATOM      5  C   UNL     1       4.653   4.709  16.738  0.00  0.00    +0.000 A 
ATOM      6  C   UNL     1       5.682   5.648  16.713  0.00  0.00    +0.000 A 
ENDROOT
BRANCH   1   8
ATOM      7  O   UNL     1       7.735   7.666  16.943  0.00  0.00    +0.000 OA
ATOM      8  C   UNL     1       7.529   6.900  17.866  0.00  0.00    +0.000 C 
BRANCH   8   9
ATOM      9  O   UNL     1       8.297   6.855  18.977  0.00  0.00    +0.000 OA
ATOM     10  H   UNL     1       8.868   7.632  19.109  0.00  0.00    +0.000 HD
ENDBRANCH   8   9
ENDBRANCH   1   8
BRANCH   4  11
ATOM     11  C   UNL     1       3.258   2.972  17.934  0.00  0.00    +0.000 C 
BRANCH  11  12
ATOM     12  O   UNL     1       3.159   2.460  19.257  0.00  0.00    +0.000 OA
BRANCH  12  13
ATOM     13  C   UNL     1       1.799   2.321  19.689  0.00  0.00    +0.000 C 
BRANCH  13  14
ATOM     14  C   UNL     1       1.468   3.249  20.862  0.00  0.00    +0.000 C 
ATOM     15  F   UNL     1       0.990   2.587  21.938  0.00  0.00    +0.000 F 
ATOM     16  F   UNL     1       2.568   3.931  21.260  0.00  0.00    +0.000 F 
ATOM     17  F   UNL     1       0.537   4.163  20.501  0.00  0.00    +0.000 F 
ENDBRANCH  13  14
ENDBRANCH  12  13
ENDBRANCH  11  12
ENDBRANCH   4  11
TORSDOF 6
ENDMDL
MODEL 8
REMARK VINA RESULT:      -6.4      1.926      2.384
REMARK  Name = 
REMARK  6 active torsions:
REMARK  status: ('A' for Active; 'I' for Inactive)
REMARK    1  A    between atoms: C_2  and  O_3
REMARK    2  A    between atoms: C_2  and  C_4
REMARK    3  A    between atoms: C_7  and  C_8
REMARK    4  A    between atoms: C_8  and  O_9
REMARK    5  A    between atoms: O_9  and  C_10
REMARK    6  A    between atoms: C_10  and  C_11
REMARK                            x       y       z     vdW  Elec       q    Type
REMARK                         _______ _______ _______ _____ _____    ______ ____
ROOT
ATOM      1  C   UNL     1       5.814   4.789  17.521  0.00  0.00    +0.000 A 
ATOM      2  C   UNL     1       5.104   4.046  16.571  0.00  0.00    +0.000 A 
ATOM      3  C   UNL     1       3.731   3.842  16.731  0.00  0.00    +0.000 A 
ATOM      4  C   UNL     1       3.051   4.367  17.841  0.00  0.00    +0.000 A 
ATOM      5  C   UNL     1       3.771   5.115  18.784  0.00  0.00    +0.000 A 
ATOM      6  C   UNL     1       5.137   5.337  18.621  0.00  0.00    +0.000 A 
ENDROOT
BRANCH   1   8
ATOM      7  O   UNL     1       7.720   6.022  16.808  0.00  0.00    +0.000 OA
ATOM      8  C   UNL     1       7.266   5.020  17.326  0.00  0.00    +0.000 C 
BRANCH   8   9
ATOM      9  O   UNL     1       8.034   3.997  17.762  0.00  0.00    +0.000 OA
ATOM     10  H   UNL     1       8.937   3.981  17.398  0.00  0.00    +0.000 HD
ENDBRANCH   8   9
ENDBRANCH   1   8
BRANCH   4  11
ATOM     11  C   UNL     1       1.572   4.134  18.012  0.00  0.00    +0.000 C 
BRANCH  11  12
ATOM     12  O   UNL     1       1.398   3.004  18.858  0.00  0.00    +0.000 OA
BRANCH  12  13
ATOM     13  C   UNL     1       0.831   3.355  20.128  0.00  0.00    +0.000 C 
BRANCH  13  14
ATOM     14  C   UNL     1       1.806   3.109  21.284  0.00  0.00    +0.000 C 
ATOM     15  F   UNL     1       2.289   4.252  21.817  0.00  0.00    +0.000 F 
ATOM     16  F   UNL     1       1.204   2.419  22.281  0.00  0.00    +0.000 F 
ATOM     17  F   UNL     1       2.864   2.374  20.869  0.00  0.00    +0.000 F 
ENDBRANCH  13  14
ENDBRANCH  12  13
ENDBRANCH  11  12
ENDBRANCH   4  11
TORSDOF 6
ENDMDL
MODEL 9
REMARK VINA RESULT:      -6.4      2.180      2.810
REMARK  Name = 
REMARK  6 active torsions:
REMARK  status: ('A' for Active; 'I' for Inactive)
REMARK    1  A    between atoms: C_2  and  O_3
REMARK    2  A    between atoms: C_2  and  C_4
REMARK    3  A    between atoms: C_7  and  C_8
REMARK    4  A    between atoms: C_8  and  O_9
REMARK    5  A    between atoms: O_9  and  C_10
REMARK    6  A    between atoms: C_10  and  C_11
REMARK                            x       y       z     vdW  Elec       q    Type
REMARK                         _______ _______ _______ _____ _____    ______ ____
ROOT
ATOM      1  C   UNL     1       6.387   5.930  17.901  0.00  0.00    +0.000 A 
ATOM      2  C   UNL     1       5.547   5.801  16.788  0.00  0.00    +0.000 A 
ATOM      3  C   UNL     1       4.495   4.882  16.812  0.00  0.00    +0.000 A 
ATOM      4  C   UNL     1       4.272   4.075  17.939  0.00  0.00    +0.000 A 
ATOM      5  C   UNL     1       5.115   4.216  19.050  0.00  0.00    +0.000 A 
ATOM      6  C   UNL     1       6.154   5.143  19.040  0.00  0.00    +0.000 A 
ENDROOT
BRANCH   1   8
ATOM      7  O   UNL     1       7.661   7.702  16.953  0.00  0.00    +0.000 OA
ATOM      8  C   UNL     1       7.484   6.927  17.873  0.00  0.00    +0.000 C 
BRANCH   8   9
ATOM      9  O   UNL     1       8.282   6.874  18.963  0.00  0.00    +0.000 OA
ATOM     10  H   UNL     1       8.200   6.059  19.489  0.00  0.00    +0.000 HD
ENDBRANCH   8   9
ENDBRANCH   1   8
BRANCH   4  11
ATOM     11  C   UNL     1       3.141   3.079  17.953  0.00  0.00    +0.000 C 
BRANCH  11  12
ATOM     12  O   UNL     1       3.106   2.469  19.237  0.00  0.00    +0.000 OA
BRANCH  12  13
ATOM     13  C   UNL     1       1.768   2.300  19.725  0.00  0.00    +0.000 C 
BRANCH  13  14
ATOM     14  C   UNL     1       1.428   3.297  20.837  0.00  0.00    +0.000 C 
ATOM     15  F   UNL     1       0.497   4.201  20.466  0.00  0.00    +0.000 F 
ATOM     16  F   UNL     1       0.957   2.653  21.931  0.00  0.00    +0.000 F 
ATOM     17  F   UNL     1       2.532   3.982  21.218  0.00  0.00    +0.000 F 
ENDBRANCH  13  14
ENDBRANCH  12  13
ENDBRANCH  11  12
ENDBRANCH   4  11
TORSDOF 6
ENDMDL
