MODEL 1
REMARK VINA RESULT:      -7.4      0.000      0.000
REMARK  Name = 
REMARK  9 active torsions:
REMARK  status: ('A' for Active; 'I' for Inactive)
REMARK    1  A    between atoms: C_1  and  O_2
REMARK    2  A    between atoms: O_2  and  C_3
REMARK    3  A    between atoms: C_3  and  C_5
REMARK    4  A    between atoms: C_5  and  C_6
REMARK    5  A    between atoms: C_6  and  C_7
REMARK    6  A    between atoms: C_6  and  C_8
REMARK    7  A    between atoms: C_6  and  C_9
REMARK    8  A    between atoms: C_9  and  C_10
REMARK    9  A    between atoms: C_15  and  C_16
REMARK                            x       y       z     vdW  Elec       q    Type
REMARK                         _______ _______ _______ _____ _____    ______ ____
ROOT
ATOM      1  C   UNL     1       5.632   4.792  18.940  0.00  0.00    +0.000 C 
ATOM      2  O   UNL     1       6.611   4.127  19.293  0.00  0.00    +0.000 OA
ATOM      3  N   UNL     1       4.343   4.292  19.041  0.00  0.00    +0.000 N 
ATOM      4  C   UNL     1       4.146   3.008  19.712  0.00  0.00    +0.000 C 
ATOM      5  C   UNL     1       3.585   1.984  18.733  0.00  0.00    +0.000 C 
ATOM      6  C   UNL     1       2.288   2.478  18.071  0.00  0.00    +0.000 C 
ATOM      7  C   UNL     1       2.519   3.868  17.450  0.00  0.00    +0.000 C 
ATOM      8  C   UNL     1       3.135   4.861  18.443  0.00  0.00    +0.000 C 
ENDROOT
BRANCH   6   9
ATOM      9  C   UNL     1       1.091   2.460  19.026  0.00  0.00    +0.000 C 
ATOM     10  F   UNL     1       1.349   1.784  20.166  0.00  0.00    +0.000 F 
ATOM     11  F   UNL     1       0.686   3.700  19.374  0.00  0.00    +0.000 F 
ATOM     12  F   UNL     1       0.036   1.852  18.433  0.00  0.00    +0.000 F 
ENDBRANCH   6   9
BRANCH   1  13
ATOM     13  C   UNL     1       5.853   6.213  18.434  0.00  0.00    +0.000 C 
BRANCH  13  14
ATOM     14  C   UNL     1       6.338   6.339  16.961  0.00  0.00    +0.000 C 
ATOM     15  C   UNL     1       7.417   7.446  16.945  0.00  0.00    +0.000 C 
ATOM     16  C   UNL     1       5.179   6.774  16.048  0.00  0.00    +0.000 C 
BRANCH  14  17
ATOM     17  C   UNL     1       6.946   4.997  16.479  0.00  0.00    +0.000 C 
BRANCH  17  18
ATOM     18  C   UNL     1       7.029   4.842  14.977  0.00  0.00    +0.000 C 
ATOM     19  O   UNL     1       7.804   5.458  14.260  0.00  0.00    +0.000 OA
BRANCH  18  21
ATOM     20  C   UNL     1       6.172   3.668  13.141  0.00  0.00    +0.000 C 
ATOM     21  O   UNL     1       6.102   3.944  14.539  0.00  0.00    +0.000 OA
ENDBRANCH  18  21
ENDBRANCH  17  18
ENDBRANCH  14  17
ENDBRANCH  13  14
ENDBRANCH   1  13
TORSDOF 6
ENDMDL
MODEL 2
REMARK VINA RESULT:      -7.3      1.550      2.360
REMARK  Name = 
REMARK  9 active torsions:
REMARK  status: ('A' for Active; 'I' for Inactive)
REMARK    1  A    between atoms: C_1  and  O_2
REMARK    2  A    between atoms: O_2  and  C_3
REMARK    3  A    between atoms: C_3  and  C_5
REMARK    4  A    between atoms: C_5  and  C_6
REMARK    5  A    between atoms: C_6  and  C_7
REMARK    6  A    between atoms: C_6  and  C_8
REMARK    7  A    between atoms: C_6  and  C_9
REMARK    8  A    between atoms: C_9  and  C_10
REMARK    9  A    between atoms: C_15  and  C_16
REMARK                            x       y       z     vdW  Elec       q    Type
REMARK                         _______ _______ _______ _____ _____    ______ ____
ROOT
ATOM      1  C   UNL     1       3.958   6.183  17.841  0.00  0.00    +0.000 C 
ATOM      2  O   UNL     1       3.797   7.383  18.084  0.00  0.00    +0.000 OA
ATOM      3  N   UNL     1       3.192   5.209  18.464  0.00  0.00    +0.000 N 
ATOM      4  C   UNL     1       2.082   5.637  19.313  0.00  0.00    +0.000 C 
ATOM      5  C   UNL     1       2.324   5.201  20.754  0.00  0.00    +0.000 C 
ATOM      6  C   UNL     1       2.562   3.685  20.858  0.00  0.00    +0.000 C 
ATOM      7  C   UNL     1       3.681   3.266  19.886  0.00  0.00    +0.000 C 
ATOM      8  C   UNL     1       3.437   3.768  18.457  0.00  0.00    +0.000 C 
ENDROOT
BRANCH   6   9
ATOM      9  C   UNL     1       1.282   2.869  20.656  0.00  0.00    +0.000 C 
ATOM     10  F   UNL     1       0.307   3.579  20.050  0.00  0.00    +0.000 F 
ATOM     11  F   UNL     1       1.487   1.755  19.921  0.00  0.00    +0.000 F 
ATOM     12  F   UNL     1       0.796   2.466  21.854  0.00  0.00    +0.000 F 
ENDBRANCH   6   9
BRANCH   1  13
ATOM     13  C   UNL     1       4.986   5.776  16.792  0.00  0.00    +0.000 C 
BRANCH  13  14
ATOM     14  C   UNL     1       6.463   5.716  17.279  0.00  0.00    +0.000 C 
ATOM     15  C   UNL     1       6.419   5.328  18.775  0.00  0.00    +0.000 C 
ATOM     16  C   UNL     1       7.128   7.097  17.153  0.00  0.00    +0.000 C 
BRANCH  14  17
ATOM     17  C   UNL     1       7.250   4.649  16.476  0.00  0.00    +0.000 C 
BRANCH  17  18
ATOM     18  C   UNL     1       7.089   4.738  14.975  0.00  0.00    +0.000 C 
ATOM     19  O   UNL     1       7.679   5.538  14.262  0.00  0.00    +0.000 OA
BRANCH  18  21
ATOM     20  C   UNL     1       6.207   3.597  13.130  0.00  0.00    +0.000 C 
ATOM     21  O   UNL     1       6.177   3.825  14.539  0.00  0.00    +0.000 OA
ENDBRANCH  18  21
ENDBRANCH  17  18
ENDBRANCH  14  17
ENDBRANCH  13  14
ENDBRANCH   1  13
TORSDOF 6
ENDMDL
MODEL 3
REMARK VINA RESULT:      -7.2      1.046      1.651
REMARK  Name = 
REMARK  9 active torsions:
REMARK  status: ('A' for Active; 'I' for Inactive)
REMARK    1  A    between atoms: C_1  and  O_2
REMARK    2  A    between atoms: O_2  and  C_3
REMARK    3  A    between atoms: C_3  and  C_5
REMARK    4  A    between atoms: C_5  and  C_6
REMARK    5  A    between atoms: C_6  and  C_7
REMARK    6  A    between atoms: C_6  and  C_8
REMARK    7  A    between atoms: C_6  and  C_9
REMARK    8  A    between atoms: C_9  and  C_10
REMARK    9  A    between atoms: C_15  and  C_16
REMARK                            x       y       z     vdW  Elec       q    Type
REMARK                         _______ _______ _______ _____ _____    ______ ____
ROOT
ATOM      1  C   UNL     1       5.627   4.612  18.810  0.00  0.00    +0.000 C 
ATOM      2  O   UNL     1       6.175   4.874  19.886  0.00  0.00    +0.000 OA
ATOM      3  N   UNL     1       4.313   4.176  18.754  0.00  0.00    +0.000 N 
ATOM      4  C   UNL     1       3.531   4.167  19.990  0.00  0.00    +0.000 C 
ATOM      5  C   UNL     1       3.125   2.741  20.344  0.00  0.00    +0.000 C 
ATOM      6  C   UNL     1       2.367   2.060  19.192  0.00  0.00    +0.000 C 
ATOM      7  C   UNL     1       3.190   2.166  17.894  0.00  0.00    +0.000 C 
ATOM      8  C   UNL     1       3.630   3.604  17.594  0.00  0.00    +0.000 C 
ENDROOT
BRANCH   6   9
ATOM      9  C   UNL     1       0.942   2.595  19.022  0.00  0.00    +0.000 C 
ATOM     10  F   UNL     1       0.896   3.708  18.260  0.00  0.00    +0.000 F 
ATOM     11  F   UNL     1       0.111   1.688  18.465  0.00  0.00    +0.000 F 
ATOM     12  F   UNL     1       0.422   2.917  20.230  0.00  0.00    +0.000 F 
ENDBRANCH   6   9
BRANCH   1  13
ATOM     13  C   UNL     1       6.406   4.830  17.518  0.00  0.00    +0.000 C 
BRANCH  13  14
ATOM     14  C   UNL     1       6.119   6.165  16.773  0.00  0.00    +0.000 C 
ATOM     15  C   UNL     1       7.402   7.020  16.888  0.00  0.00    +0.000 C 
ATOM     16  C   UNL     1       4.965   6.923  17.450  0.00  0.00    +0.000 C 
BRANCH  14  17
ATOM     17  C   UNL     1       5.798   5.889  15.281  0.00  0.00    +0.000 C 
BRANCH  17  18
ATOM     18  C   UNL     1       6.677   4.850  14.623  0.00  0.00    +0.000 C 
ATOM     19  O   UNL     1       6.397   3.663  14.534  0.00  0.00    +0.000 OA
BRANCH  18  21
ATOM     20  C   UNL     1       8.037   5.292  12.768  0.00  0.00    +0.000 C 
ATOM     21  O   UNL     1       7.832   5.418  14.175  0.00  0.00    +0.000 OA
ENDBRANCH  18  21
ENDBRANCH  17  18
ENDBRANCH  14  17
ENDBRANCH  13  14
ENDBRANCH   1  13
TORSDOF 6
ENDMDL
MODEL 4
REMARK VINA RESULT:      -7.1      3.784      6.654
REMARK  Name = 
REMARK  9 active torsions:
REMARK  status: ('A' for Active; 'I' for Inactive)
REMARK    1  A    between atoms: C_1  and  O_2
REMARK    2  A    between atoms: O_2  and  C_3
REMARK    3  A    between atoms: C_3  and  C_5
REMARK    4  A    between atoms: C_5  and  C_6
REMARK    5  A    between atoms: C_6  and  C_7
REMARK    6  A    between atoms: C_6  and  C_8
REMARK    7  A    between atoms: C_6  and  C_9
REMARK    8  A    between atoms: C_9  and  C_10
REMARK    9  A    between atoms: C_15  and  C_16
REMARK                            x       y       z     vdW  Elec       q    Type
REMARK                         _______ _______ _______ _____ _____    ______ ____
ROOT
ATOM      1  C   UNL     1       4.126   3.270  17.974  0.00  0.00    +0.000 C 
ATOM      2  O   UNL     1       4.134   2.451  17.051  0.00  0.00    +0.000 OA
ATOM      3  N   UNL     1       4.920   4.406  17.940  0.00  0.00    +0.000 N 
ATOM      4  C   UNL     1       5.667   4.695  16.717  0.00  0.00    +0.000 C 
ATOM      5  C   UNL     1       7.166   4.656  16.995  0.00  0.00    +0.000 C 
ATOM      6  C   UNL     1       7.559   5.611  18.135  0.00  0.00    +0.000 C 
ATOM      7  C   UNL     1       6.691   5.326  19.375  0.00  0.00    +0.000 C 
ATOM      8  C   UNL     1       5.191   5.317  19.052  0.00  0.00    +0.000 C 
ENDROOT
BRANCH   6   9
ATOM      9  C   UNL     1       7.512   7.083  17.718  0.00  0.00    +0.000 C 
ATOM     10  F   UNL     1       6.261   7.590  17.752  0.00  0.00    +0.000 F 
ATOM     11  F   UNL     1       8.287   7.868  18.496  0.00  0.00    +0.000 F 
ATOM     12  F   UNL     1       7.962   7.219  16.448  0.00  0.00    +0.000 F 
ENDBRANCH   6   9
BRANCH   1  13
ATOM     13  C   UNL     1       3.179   3.047  19.147  0.00  0.00    +0.000 C 
BRANCH  13  14
ATOM     14  C   UNL     1       1.684   3.387  18.883  0.00  0.00    +0.000 C 
ATOM     15  C   UNL     1       0.991   2.060  18.497  0.00  0.00    +0.000 C 
ATOM     16  C   UNL     1       1.554   4.366  17.704  0.00  0.00    +0.000 C 
BRANCH  14  17
ATOM     17  C   UNL     1       1.033   3.974  20.162  0.00  0.00    +0.000 C 
BRANCH  17  18
ATOM     18  C   UNL     1       1.992   4.231  21.302  0.00  0.00    +0.000 C 
ATOM     19  O   UNL     1       2.229   3.435  22.199  0.00  0.00    +0.000 OA
BRANCH  18  21
ATOM     20  C   UNL     1       1.598   6.481  20.783  0.00  0.00    +0.000 C 
ATOM     21  O   UNL     1       2.526   5.481  21.202  0.00  0.00    +0.000 OA
ENDBRANCH  18  21
ENDBRANCH  17  18
ENDBRANCH  14  17
ENDBRANCH  13  14
ENDBRANCH   1  13
TORSDOF 6
ENDMDL
MODEL 5
REMARK VINA RESULT:      -7.1      1.487      2.104
REMARK  Name = 
REMARK  9 active torsions:
REMARK  status: ('A' for Active; 'I' for Inactive)
REMARK    1  A    between atoms: C_1  and  O_2
REMARK    2  A    between atoms: O_2  and  C_3
REMARK    3  A    between atoms: C_3  and  C_5
REMARK    4  A    between atoms: C_5  and  C_6
REMARK    5  A    between atoms: C_6  and  C_7
REMARK    6  A    between atoms: C_6  and  C_8
REMARK    7  A    between atoms: C_6  and  C_9
REMARK    8  A    between atoms: C_9  and  C_10
REMARK    9  A    between atoms: C_15  and  C_16
REMARK                            x       y       z     vdW  Elec       q    Type
REMARK                         _______ _______ _______ _____ _____    ______ ____
ROOT
ATOM      1  C   UNL     1       4.106   6.541  17.543  0.00  0.00    +0.000 C 
ATOM      2  O   UNL     1       3.851   7.674  17.963  0.00  0.00    +0.000 OA
ATOM      3  N   UNL     1       3.310   5.453  17.867  0.00  0.00    +0.000 N 
ATOM      4  C   UNL     1       2.071   5.694  18.606  0.00  0.00    +0.000 C 
ATOM      5  C   UNL     1       2.131   5.013  19.968  0.00  0.00    +0.000 C 
ATOM      6  C   UNL     1       2.428   3.510  19.842  0.00  0.00    +0.000 C 
ATOM      7  C   UNL     1       3.693   3.300  18.988  0.00  0.00    +0.000 C 
ATOM      8  C   UNL     1       3.627   4.043  17.647  0.00  0.00    +0.000 C 
ENDROOT
BRANCH   6   9
ATOM      9  C   UNL     1       1.233   2.711  19.315  0.00  0.00    +0.000 C 
ATOM     10  F   UNL     1       1.496   1.391  19.218  0.00  0.00    +0.000 F 
ATOM     11  F   UNL     1       0.135   2.848  20.089  0.00  0.00    +0.000 F 
ATOM     12  F   UNL     1       0.898   3.143  18.076  0.00  0.00    +0.000 F 
ENDBRANCH   6   9
BRANCH   1  13
ATOM     13  C   UNL     1       5.290   6.355  16.602  0.00  0.00    +0.000 C 
BRANCH  13  14
ATOM     14  C   UNL     1       6.653   6.041  17.284  0.00  0.00    +0.000 C 
ATOM     15  C   UNL     1       6.344   5.723  18.765  0.00  0.00    +0.000 C 
ATOM     16  C   UNL     1       7.578   7.269  17.231  0.00  0.00    +0.000 C 
BRANCH  14  17
ATOM     17  C   UNL     1       7.322   4.817  16.607  0.00  0.00    +0.000 C 
BRANCH  17  18
ATOM     18  C   UNL     1       7.185   4.770  15.102  0.00  0.00    +0.000 C 
ATOM     19  O   UNL     1       7.785   5.504  14.330  0.00  0.00    +0.000 OA
BRANCH  18  21
ATOM     20  C   UNL     1       6.113   3.685  13.325  0.00  0.00    +0.000 C 
ATOM     21  O   UNL     1       6.281   3.818  14.736  0.00  0.00    +0.000 OA
ENDBRANCH  18  21
ENDBRANCH  17  18
ENDBRANCH  14  17
ENDBRANCH  13  14
ENDBRANCH   1  13
TORSDOF 6
ENDMDL
MODEL 6
REMARK VINA RESULT:      -7.1      1.789      2.462
REMARK  Name = 
REMARK  9 active torsions:
REMARK  status: ('A' for Active; 'I' for Inactive)
REMARK    1  A    between atoms: C_1  and  O_2
REMARK    2  A    between atoms: O_2  and  C_3
REMARK    3  A    between atoms: C_3  and  C_5
REMARK    4  A    between atoms: C_5  and  C_6
REMARK    5  A    between atoms: C_6  and  C_7
REMARK    6  A    between atoms: C_6  and  C_8
REMARK    7  A    between atoms: C_6  and  C_9
REMARK    8  A    between atoms: C_9  and  C_10
REMARK    9  A    between atoms: C_15  and  C_16
REMARK                            x       y       z     vdW  Elec       q    Type
REMARK                         _______ _______ _______ _____ _____    ______ ____
ROOT
ATOM      1  C   UNL     1       3.686   4.578  17.455  0.00  0.00    +0.000 C 
ATOM      2  O   UNL     1       3.538   3.896  16.436  0.00  0.00    +0.000 OA
ATOM      3  N   UNL     1       3.257   4.130  18.695  0.00  0.00    +0.000 N 
ATOM      4  C   UNL     1       2.750   2.763  18.802  0.00  0.00    +0.000 C 
ATOM      5  C   UNL     1       1.284   2.777  19.216  0.00  0.00    +0.000 C 
ATOM      6  C   UNL     1       1.067   3.563  20.521  0.00  0.00    +0.000 C 
ATOM      7  C   UNL     1       1.689   4.966  20.392  0.00  0.00    +0.000 C 
ATOM      8  C   UNL     1       3.148   4.921  19.920  0.00  0.00    +0.000 C 
ENDROOT
BRANCH   6   9
ATOM      9  C   UNL     1       1.575   2.813  21.756  0.00  0.00    +0.000 C 
ATOM     10  F   UNL     1       0.570   2.338  22.521  0.00  0.00    +0.000 F 
ATOM     11  F   UNL     1       2.370   1.770  21.438  0.00  0.00    +0.000 F 
ATOM     12  F   UNL     1       2.308   3.646  22.532  0.00  0.00    +0.000 F 
ENDBRANCH   6   9
BRANCH   1  13
ATOM     13  C   UNL     1       4.407   5.916  17.345  0.00  0.00    +0.000 C 
BRANCH  13  14
ATOM     14  C   UNL     1       5.811   5.875  16.674  0.00  0.00    +0.000 C 
ATOM     15  C   UNL     1       6.503   4.588  17.177  0.00  0.00    +0.000 C 
ATOM     16  C   UNL     1       6.653   7.085  17.113  0.00  0.00    +0.000 C 
BRANCH  14  17
ATOM     17  C   UNL     1       5.668   5.833  15.131  0.00  0.00    +0.000 C 
BRANCH  17  18
ATOM     18  C   UNL     1       6.707   4.997  14.419  0.00  0.00    +0.000 C 
ATOM     19  O   UNL     1       7.861   5.348  14.223  0.00  0.00    +0.000 OA
BRANCH  18  21
ATOM     20  C   UNL     1       6.369   3.535  12.621  0.00  0.00    +0.000 C 
ATOM     21  O   UNL     1       6.167   3.817  14.006  0.00  0.00    +0.000 OA
ENDBRANCH  18  21
ENDBRANCH  17  18
ENDBRANCH  14  17
ENDBRANCH  13  14
ENDBRANCH   1  13
TORSDOF 6
ENDMDL
MODEL 7
REMARK VINA RESULT:      -7.0      1.076      1.451
REMARK  Name = 
REMARK  9 active torsions:
REMARK  status: ('A' for Active; 'I' for Inactive)
REMARK    1  A    between atoms: C_1  and  O_2
REMARK    2  A    between atoms: O_2  and  C_3
REMARK    3  A    between atoms: C_3  and  C_5
REMARK    4  A    between atoms: C_5  and  C_6
REMARK    5  A    between atoms: C_6  and  C_7
REMARK    6  A    between atoms: C_6  and  C_8
REMARK    7  A    between atoms: C_6  and  C_9
REMARK    8  A    between atoms: C_9  and  C_10
REMARK    9  A    between atoms: C_15  and  C_16
REMARK                            x       y       z     vdW  Elec       q    Type
REMARK                         _______ _______ _______ _____ _____    ______ ____
ROOT
ATOM      1  C   UNL     1       5.676   4.592  18.691  0.00  0.00    +0.000 C 
ATOM      2  O   UNL     1       6.155   5.074  19.722  0.00  0.00    +0.000 OA
ATOM      3  N   UNL     1       4.358   4.165  18.636  0.00  0.00    +0.000 N 
ATOM      4  C   UNL     1       3.494   4.429  19.786  0.00  0.00    +0.000 C 
ATOM      5  C   UNL     1       3.032   3.116  20.407  0.00  0.00    +0.000 C 
ATOM      6  C   UNL     1       2.337   2.210  19.376  0.00  0.00    +0.000 C 
ATOM      7  C   UNL     1       3.248   2.028  18.148  0.00  0.00    +0.000 C 
ATOM      8  C   UNL     1       3.742   3.364  17.579  0.00  0.00    +0.000 C 
ENDROOT
BRANCH   6   9
ATOM      9  C   UNL     1       0.940   2.708  18.995  0.00  0.00    +0.000 C 
ATOM     10  F   UNL     1       0.266   3.213  20.050  0.00  0.00    +0.000 F 
ATOM     11  F   UNL     1       0.973   3.663  18.041  0.00  0.00    +0.000 F 
ATOM     12  F   UNL     1       0.203   1.685  18.503  0.00  0.00    +0.000 F 
ENDBRANCH   6   9
BRANCH   1  13
ATOM     13  C   UNL     1       6.544   4.520  17.440  0.00  0.00    +0.000 C 
BRANCH  13  14
ATOM     14  C   UNL     1       6.575   5.804  16.563  0.00  0.00    +0.000 C 
ATOM     15  C   UNL     1       7.551   6.786  17.249  0.00  0.00    +0.000 C 
ATOM     16  C   UNL     1       5.182   6.456  16.513  0.00  0.00    +0.000 C 
BRANCH  14  17
ATOM     17  C   UNL     1       7.077   5.468  15.135  0.00  0.00    +0.000 C 
BRANCH  17  18
ATOM     18  C   UNL     1       6.204   4.502  14.366  0.00  0.00    +0.000 C 
ATOM     19  O   UNL     1       5.041   4.248  14.646  0.00  0.00    +0.000 OA
BRANCH  18  21
ATOM     20  C   UNL     1       6.087   3.377  12.315  0.00  0.00    +0.000 C 
ATOM     21  O   UNL     1       6.904   3.937  13.343  0.00  0.00    +0.000 OA
ENDBRANCH  18  21
ENDBRANCH  17  18
ENDBRANCH  14  17
ENDBRANCH  13  14
ENDBRANCH   1  13
TORSDOF 6
ENDMDL
MODEL 8
REMARK VINA RESULT:      -6.8      1.781      2.414
REMARK  Name = 
REMARK  9 active torsions:
REMARK  status: ('A' for Active; 'I' for Inactive)
REMARK    1  A    between atoms: C_1  and  O_2
REMARK    2  A    between atoms: O_2  and  C_3
REMARK    3  A    between atoms: C_3  and  C_5
REMARK    4  A    between atoms: C_5  and  C_6
REMARK    5  A    between atoms: C_6  and  C_7
REMARK    6  A    between atoms: C_6  and  C_8
REMARK    7  A    between atoms: C_6  and  C_9
REMARK    8  A    between atoms: C_9  and  C_10
REMARK    9  A    between atoms: C_15  and  C_16
REMARK                            x       y       z     vdW  Elec       q    Type
REMARK                         _______ _______ _______ _____ _____    ______ ____
ROOT
ATOM      1  C   UNL     1       4.217   4.334  17.341  0.00  0.00    +0.000 C 
ATOM      2  O   UNL     1       4.168   3.533  16.403  0.00  0.00    +0.000 OA
ATOM      3  N   UNL     1       3.687   4.026  18.584  0.00  0.00    +0.000 N 
ATOM      4  C   UNL     1       3.192   2.669  18.811  0.00  0.00    +0.000 C 
ATOM      5  C   UNL     1       1.695   2.696  19.093  0.00  0.00    +0.000 C 
ATOM      6  C   UNL     1       1.352   3.625  20.270  0.00  0.00    +0.000 C 
ATOM      7  C   UNL     1       1.963   5.018  20.027  0.00  0.00    +0.000 C 
ATOM      8  C   UNL     1       3.459   4.954  19.691  0.00  0.00    +0.000 C 
ENDROOT
BRANCH   6   9
ATOM      9  C   UNL     1       1.760   3.040  21.625  0.00  0.00    +0.000 C 
ATOM     10  F   UNL     1       2.338   3.957  22.430  0.00  0.00    +0.000 F 
ATOM     11  F   UNL     1       0.716   2.512  22.298  0.00  0.00    +0.000 F 
ATOM     12  F   UNL     1       2.660   2.044  21.447  0.00  0.00    +0.000 F 
ENDBRANCH   6   9
BRANCH   1  13
ATOM     13  C   UNL     1       4.926   5.667  17.132  0.00  0.00    +0.000 C 
BRANCH  13  14
ATOM     14  C   UNL     1       6.474   5.640  17.280  0.00  0.00    +0.000 C 
ATOM     15  C   UNL     1       6.772   5.211  18.735  0.00  0.00    +0.000 C 
ATOM     16  C   UNL     1       7.061   7.044  17.056  0.00  0.00    +0.000 C 
BRANCH  14  17
ATOM     17  C   UNL     1       7.091   4.620  16.289  0.00  0.00    +0.000 C 
BRANCH  17  18
ATOM     18  C   UNL     1       6.903   4.961  14.828  0.00  0.00    +0.000 C 
ATOM     19  O   UNL     1       5.904   4.690  14.177  0.00  0.00    +0.000 OA
BRANCH  18  21
ATOM     20  C   UNL     1       8.142   5.512  12.918  0.00  0.00    +0.000 C 
ATOM     21  O   UNL     1       8.012   5.583  14.338  0.00  0.00    +0.000 OA
ENDBRANCH  18  21
ENDBRANCH  17  18
ENDBRANCH  14  17
ENDBRANCH  13  14
ENDBRANCH   1  13
TORSDOF 6
ENDMDL
MODEL 9
REMARK VINA RESULT:      -6.8      1.590      2.199
REMARK  Name = 
REMARK  9 active torsions:
REMARK  status: ('A' for Active; 'I' for Inactive)
REMARK    1  A    between atoms: C_1  and  O_2
REMARK    2  A    between atoms: O_2  and  C_3
REMARK    3  A    between atoms: C_3  and  C_5
REMARK    4  A    between atoms: C_5  and  C_6
REMARK    5  A    between atoms: C_6  and  C_7
REMARK    6  A    between atoms: C_6  and  C_8
REMARK    7  A    between atoms: C_6  and  C_9
REMARK    8  A    between atoms: C_9  and  C_10
REMARK    9  A    between atoms: C_15  and  C_16
REMARK                            x       y       z     vdW  Elec       q    Type
REMARK                         _______ _______ _______ _____ _____    ______ ____
ROOT
ATOM      1  C   UNL     1       4.171   4.857  17.370  0.00  0.00    +0.000 C 
ATOM      2  O   UNL     1       3.966   4.362  16.258  0.00  0.00    +0.000 OA
ATOM      3  N   UNL     1       3.630   4.302  18.520  0.00  0.00    +0.000 N 
ATOM      4  C   UNL     1       2.923   3.027  18.410  0.00  0.00    +0.000 C 
ATOM      5  C   UNL     1       1.458   3.203  18.793  0.00  0.00    +0.000 C 
ATOM      6  C   UNL     1       1.305   3.813  20.197  0.00  0.00    +0.000 C 
ATOM      7  C   UNL     1       2.131   5.109  20.293  0.00  0.00    +0.000 C 
ATOM      8  C   UNL     1       3.586   4.913  19.848  0.00  0.00    +0.000 C 
ENDROOT
BRANCH   6   9
ATOM      9  C   UNL     1       1.646   2.823  21.314  0.00  0.00    +0.000 C 
ATOM     10  F   UNL     1       2.780   3.151  21.968  0.00  0.00    +0.000 F 
ATOM     11  F   UNL     1       0.663   2.721  22.235  0.00  0.00    +0.000 F 
ATOM     12  F   UNL     1       1.829   1.585  20.796  0.00  0.00    +0.000 F 
ENDBRANCH   6   9
BRANCH   1  13
ATOM     13  C   UNL     1       5.085   6.071  17.477  0.00  0.00    +0.000 C 
BRANCH  13  14
ATOM     14  C   UNL     1       6.589   5.766  17.735  0.00  0.00    +0.000 C 
ATOM     15  C   UNL     1       6.729   5.483  19.248  0.00  0.00    +0.000 C 
ATOM     16  C   UNL     1       7.454   6.989  17.385  0.00  0.00    +0.000 C 
BRANCH  14  17
ATOM     17  C   UNL     1       7.032   4.525  16.918  0.00  0.00    +0.000 C 
BRANCH  17  18
ATOM     18  C   UNL     1       7.097   4.739  15.423  0.00  0.00    +0.000 C 
ATOM     19  O   UNL     1       7.658   5.682  14.883  0.00  0.00    +0.000 OA
BRANCH  18  21
ATOM     20  C   UNL     1       6.370   3.917  13.354  0.00  0.00    +0.000 C 
ATOM     21  O   UNL     1       6.421   3.753  14.771  0.00  0.00    +0.000 OA
ENDBRANCH  18  21
ENDBRANCH  17  18
ENDBRANCH  14  17
ENDBRANCH  13  14
ENDBRANCH   1  13
TORSDOF 6
ENDMDL
