MODEL 1
REMARK VINA RESULT:      -6.9      0.000      0.000
REMARK  Name = 
REMARK  10 active torsions:
REMARK  status: ('A' for Active; 'I' for Inactive)
REMARK    1  A    between atoms: C_1  and  C_2
REMARK    2  A    between atoms: C_2  and  C_3
REMARK    3  A    between atoms: C_3  and  C_4
REMARK    4  A    between atoms: C_4  and  C_5
REMARK    5  A    between atoms: C_5  and  C_6
REMARK    6  A    between atoms: N_11  and  N_12
REMARK    7  A    between atoms: N_12  and  C_13
REMARK    8  A    between atoms: C_13  and  N_15
REMARK    9  A    between atoms: N_15  and  C_16
REMARK   10  A    between atoms: C_16  and  C_17
REMARK                            x       y       z     vdW  Elec       q    Type
REMARK                         _______ _______ _______ _____ _____    ______ ____
ROOT
ATOM      1  N   UNL     1       5.611   3.582  18.974  0.00  0.00    +0.000 N 
ATOM      2  H   UNL     1       6.098   2.751  19.370  0.00  0.00    +0.000 HD
ENDROOT
BRANCH   1   8
ATOM      3  C   UNL     1       2.154   3.855  20.168  0.00  0.00    +0.000 C 
ATOM      4  C   UNL     1       1.231   2.965  19.829  0.00  0.00    +0.000 C 
ATOM      5  C   UNL     1       1.690   1.891  18.894  0.00  0.00    +0.000 C 
ATOM      6  C   UNL     1       3.022   2.403  18.455  0.00  0.00    +0.000 C 
ATOM      7  C   UNL     1       3.366   3.464  19.451  0.00  0.00    +0.000 C 
ATOM      8  N   UNL     1       4.562   4.006  19.703  0.00  0.00    +0.000 NA
BRANCH   3   9
ATOM      9  C   UNL     1       2.030   5.008  21.099  0.00  0.00    +0.000 C 
BRANCH   9  10
ATOM     10  C   UNL     1       1.285   6.177  20.456  0.00  0.00    +0.000 C 
BRANCH  10  11
ATOM     11  C   UNL     1       2.262   7.184  19.850  0.00  0.00    +0.000 C 
BRANCH  11  13
ATOM     12  C   UNL     1       2.368   8.486  17.696  0.00  0.00    +0.000 C 
ATOM     13  C   UNL     1       2.263   7.106  18.324  0.00  0.00    +0.000 C 
ENDBRANCH  11  13
ENDBRANCH  10  11
ENDBRANCH   9  10
ENDBRANCH   3   9
ENDBRANCH   1   8
BRANCH   1  14
ATOM     14  C   UNL     1       6.278   4.247  17.957  0.00  0.00    +0.000 C 
ATOM     15  S   UNL     1       7.450   5.421  18.097  0.00  0.00    +0.000 S 
BRANCH  14  16
ATOM     16  N   UNL     1       5.935   3.794  16.699  0.00  0.00    +0.000 N 
ATOM     17  H   UNL     1       6.063   2.809  16.563  0.00  0.00    +0.000 HD
BRANCH  16  18
ATOM     18  C   UNL     1       5.319   4.583  15.642  0.00  0.00    +0.000 C 
BRANCH  18  19
ATOM     19  C   UNL     1       6.028   4.457  14.320  0.00  0.00    +0.000 A 
ATOM     20  C   UNL     1       7.183   5.210  14.066  0.00  0.00    +0.000 A 
ATOM     21  C   UNL     1       7.862   5.091  12.852  0.00  0.00    +0.000 A 
ATOM     22  C   UNL     1       7.398   4.211  11.879  0.00  0.00    +0.000 A 
ATOM     23  C   UNL     1       6.266   3.436  12.127  0.00  0.00    +0.000 A 
ATOM     24  C   UNL     1       5.585   3.554  13.342  0.00  0.00    +0.000 A 
ENDBRANCH  18  19
ENDBRANCH  16  18
ENDBRANCH  14  16
ENDBRANCH   1  14
TORSDOF 9
ENDMDL
MODEL 2
REMARK VINA RESULT:      -6.9      0.950      1.265
REMARK  Name = 
REMARK  10 active torsions:
REMARK  status: ('A' for Active; 'I' for Inactive)
REMARK    1  A    between atoms: C_1  and  C_2
REMARK    2  A    between atoms: C_2  and  C_3
REMARK    3  A    between atoms: C_3  and  C_4
REMARK    4  A    between atoms: C_4  and  C_5
REMARK    5  A    between atoms: C_5  and  C_6
REMARK    6  A    between atoms: N_11  and  N_12
REMARK    7  A    between atoms: N_12  and  C_13
REMARK    8  A    between atoms: C_13  and  N_15
REMARK    9  A    between atoms: N_15  and  C_16
REMARK   10  A    between atoms: C_16  and  C_17
REMARK                            x       y       z     vdW  Elec       q    Type
REMARK                         _______ _______ _______ _____ _____    ______ ____
ROOT
ATOM      1  N   UNL     1       6.325   3.967  18.671  0.00  0.00    +0.000 N 
ATOM      2  H   UNL     1       6.861   3.111  18.927  0.00  0.00    +0.000 HD
ENDROOT
BRANCH   1   8
ATOM      3  C   UNL     1       2.735   3.959  19.424  0.00  0.00    +0.000 C 
ATOM      4  C   UNL     1       1.864   3.332  18.644  0.00  0.00    +0.000 C 
ATOM      5  C   UNL     1       2.445   2.687  17.425  0.00  0.00    +0.000 C 
ATOM      6  C   UNL     1       3.829   3.248  17.399  0.00  0.00    +0.000 C 
ATOM      7  C   UNL     1       4.034   3.808  18.771  0.00  0.00    +0.000 C 
ATOM      8  N   UNL     1       5.185   4.133  19.368  0.00  0.00    +0.000 NA
BRANCH   3   9
ATOM      9  C   UNL     1       2.487   4.658  20.713  0.00  0.00    +0.000 C 
BRANCH   9  10
ATOM     10  C   UNL     1       1.795   6.004  20.503  0.00  0.00    +0.000 C 
BRANCH  10  11
ATOM     11  C   UNL     1       2.512   6.828  19.433  0.00  0.00    +0.000 C 
BRANCH  11  13
ATOM     12  C   UNL     1       2.002   8.722  17.853  0.00  0.00    +0.000 C 
ATOM     13  C   UNL     1       1.875   8.208  19.278  0.00  0.00    +0.000 C 
ENDBRANCH  11  13
ENDBRANCH  10  11
ENDBRANCH   9  10
ENDBRANCH   3   9
ENDBRANCH   1   8
BRANCH   1  14
ATOM     14  C   UNL     1       6.997   4.892  17.888  0.00  0.00    +0.000 C 
ATOM     15  S   UNL     1       7.599   6.375  18.344  0.00  0.00    +0.000 S 
BRANCH  14  16
ATOM     16  N   UNL     1       7.224   4.447  16.601  0.00  0.00    +0.000 N 
ATOM     17  H   UNL     1       7.210   3.450  16.497  0.00  0.00    +0.000 HD
BRANCH  16  18
ATOM     18  C   UNL     1       7.360   5.283  15.417  0.00  0.00    +0.000 C 
BRANCH  18  19
ATOM     19  C   UNL     1       6.789   4.648  14.176  0.00  0.00    +0.000 A 
ATOM     20  C   UNL     1       7.555   4.581  13.004  0.00  0.00    +0.000 A 
ATOM     21  C   UNL     1       7.048   3.980  11.851  0.00  0.00    +0.000 A 
ATOM     22  C   UNL     1       5.767   3.432  11.858  0.00  0.00    +0.000 A 
ATOM     23  C   UNL     1       5.004   3.468  13.024  0.00  0.00    +0.000 A 
ATOM     24  C   UNL     1       5.512   4.070  14.179  0.00  0.00    +0.000 A 
ENDBRANCH  18  19
ENDBRANCH  16  18
ENDBRANCH  14  16
ENDBRANCH   1  14
TORSDOF 9
ENDMDL
MODEL 3
REMARK VINA RESULT:      -6.8      2.078      6.992
REMARK  Name = 
REMARK  10 active torsions:
REMARK  status: ('A' for Active; 'I' for Inactive)
REMARK    1  A    between atoms: C_1  and  C_2
REMARK    2  A    between atoms: C_2  and  C_3
REMARK    3  A    between atoms: C_3  and  C_4
REMARK    4  A    between atoms: C_4  and  C_5
REMARK    5  A    between atoms: C_5  and  C_6
REMARK    6  A    between atoms: N_11  and  N_12
REMARK    7  A    between atoms: N_12  and  C_13
REMARK    8  A    between atoms: C_13  and  N_15
REMARK    9  A    between atoms: N_15  and  C_16
REMARK   10  A    between atoms: C_16  and  C_17
REMARK                            x       y       z     vdW  Elec       q    Type
REMARK                         _______ _______ _______ _____ _____    ______ ____
ROOT
ATOM      1  N   UNL     1       3.888   6.674  18.489  0.00  0.00    +0.000 N 
ATOM      2  H   UNL     1       4.389   6.322  19.332  0.00  0.00    +0.000 HD
ENDROOT
BRANCH   1   8
ATOM      3  C   UNL     1       6.245   5.199  16.097  0.00  0.00    +0.000 C 
ATOM      4  C   UNL     1       7.368   4.620  16.499  0.00  0.00    +0.000 C 
ATOM      5  C   UNL     1       7.621   4.665  17.973  0.00  0.00    +0.000 C 
ATOM      6  C   UNL     1       6.585   5.633  18.441  0.00  0.00    +0.000 C 
ATOM      7  C   UNL     1       5.615   5.728  17.306  0.00  0.00    +0.000 C 
ATOM      8  N   UNL     1       4.364   6.198  17.324  0.00  0.00    +0.000 NA
BRANCH   3   9
ATOM      9  C   UNL     1       5.691   5.290  14.720  0.00  0.00    +0.000 C 
BRANCH   9  10
ATOM     10  C   UNL     1       5.504   3.909  14.094  0.00  0.00    +0.000 C 
BRANCH  10  11
ATOM     11  C   UNL     1       6.324   3.774  12.810  0.00  0.00    +0.000 C 
BRANCH  11  13
ATOM     12  C   UNL     1       4.284   3.237  11.435  0.00  0.00    +0.000 C 
ATOM     13  C   UNL     1       5.677   2.785  11.841  0.00  0.00    +0.000 C 
ENDBRANCH  11  13
ENDBRANCH  10  11
ENDBRANCH   9  10
ENDBRANCH   3   9
ENDBRANCH   1   8
BRANCH   1  14
ATOM     14  C   UNL     1       2.686   7.324  18.726  0.00  0.00    +0.000 C 
ATOM     15  S   UNL     1       2.014   8.580  17.865  0.00  0.00    +0.000 S 
BRANCH  14  16
ATOM     16  N   UNL     1       1.975   6.778  19.775  0.00  0.00    +0.000 N 
ATOM     17  H   UNL     1       1.033   7.114  19.858  0.00  0.00    +0.000 HD
BRANCH  16  18
ATOM     18  C   UNL     1       2.431   5.715  20.659  0.00  0.00    +0.000 C 
BRANCH  18  19
ATOM     19  C   UNL     1       2.229   4.339  20.081  0.00  0.00    +0.000 A 
ATOM     20  C   UNL     1       0.933   3.860  19.842  0.00  0.00    +0.000 A 
ATOM     21  C   UNL     1       0.728   2.594  19.291  0.00  0.00    +0.000 A 
ATOM     22  C   UNL     1       1.820   1.792  18.966  0.00  0.00    +0.000 A 
ATOM     23  C   UNL     1       3.114   2.265  19.174  0.00  0.00    +0.000 A 
ATOM     24  C   UNL     1       3.320   3.534  19.725  0.00  0.00    +0.000 A 
ENDBRANCH  18  19
ENDBRANCH  16  18
ENDBRANCH  14  16
ENDBRANCH   1  14
TORSDOF 9
ENDMDL
MODEL 4
REMARK VINA RESULT:      -6.8      2.222      7.357
REMARK  Name = 
REMARK  10 active torsions:
REMARK  status: ('A' for Active; 'I' for Inactive)
REMARK    1  A    between atoms: C_1  and  C_2
REMARK    2  A    between atoms: C_2  and  C_3
REMARK    3  A    between atoms: C_3  and  C_4
REMARK    4  A    between atoms: C_4  and  C_5
REMARK    5  A    between atoms: C_5  and  C_6
REMARK    6  A    between atoms: N_11  and  N_12
REMARK    7  A    between atoms: N_12  and  C_13
REMARK    8  A    between atoms: C_13  and  N_15
REMARK    9  A    between atoms: N_15  and  C_16
REMARK   10  A    between atoms: C_16  and  C_17
REMARK                            x       y       z     vdW  Elec       q    Type
REMARK                         _______ _______ _______ _____ _____    ______ ____
ROOT
ATOM      1  N   UNL     1       4.258   7.546  16.839  0.00  0.00    +0.000 N 
ATOM      2  H   UNL     1       4.854   8.399  16.782  0.00  0.00    +0.000 HD
ENDROOT
BRANCH   1   8
ATOM      3  C   UNL     1       6.616   4.812  16.194  0.00  0.00    +0.000 C 
ATOM      4  C   UNL     1       7.560   4.489  17.068  0.00  0.00    +0.000 C 
ATOM      5  C   UNL     1       7.621   5.350  18.291  0.00  0.00    +0.000 C 
ATOM      6  C   UNL     1       6.717   6.481  17.927  0.00  0.00    +0.000 C 
ATOM      7  C   UNL     1       5.935   5.978  16.755  0.00  0.00    +0.000 C 
ATOM      8  N   UNL     1       4.793   6.459  16.254  0.00  0.00    +0.000 NA
BRANCH   3   9
ATOM      9  C   UNL     1       6.271   4.139  14.914  0.00  0.00    +0.000 C 
BRANCH   9  10
ATOM     10  C   UNL     1       7.181   4.593  13.773  0.00  0.00    +0.000 C 
BRANCH  10  11
ATOM     11  C   UNL     1       6.563   4.262  12.414  0.00  0.00    +0.000 C 
BRANCH  11  13
ATOM     12  C   UNL     1       4.513   3.226  11.382  0.00  0.00    +0.000 C 
ATOM     13  C   UNL     1       5.495   3.177  12.541  0.00  0.00    +0.000 C 
ENDBRANCH  11  13
ENDBRANCH  10  11
ENDBRANCH   9  10
ENDBRANCH   3   9
ENDBRANCH   1   8
BRANCH   1  14
ATOM     14  C   UNL     1       3.190   7.611  17.720  0.00  0.00    +0.000 C 
ATOM     15  S   UNL     1       2.095   8.850  17.913  0.00  0.00    +0.000 S 
BRANCH  14  16
ATOM     16  N   UNL     1       3.024   6.454  18.455  0.00  0.00    +0.000 N 
ATOM     17  H   UNL     1       3.468   5.645  18.062  0.00  0.00    +0.000 HD
BRANCH  16  18
ATOM     18  C   UNL     1       2.380   6.350  19.757  0.00  0.00    +0.000 C 
BRANCH  18  19
ATOM     19  C   UNL     1       2.008   4.938  20.121  0.00  0.00    +0.000 A 
ATOM     20  C   UNL     1       2.331   4.428  21.386  0.00  0.00    +0.000 A 
ATOM     21  C   UNL     1       1.978   3.127  21.745  0.00  0.00    +0.000 A 
ATOM     22  C   UNL     1       1.290   2.319  20.844  0.00  0.00    +0.000 A 
ATOM     23  C   UNL     1       0.939   2.820  19.592  0.00  0.00    +0.000 A 
ATOM     24  C   UNL     1       1.292   4.124  19.231  0.00  0.00    +0.000 A 
ENDBRANCH  18  19
ENDBRANCH  16  18
ENDBRANCH  14  16
ENDBRANCH   1  14
TORSDOF 9
ENDMDL
MODEL 5
REMARK VINA RESULT:      -6.7      2.174      7.105
REMARK  Name = 
REMARK  10 active torsions:
REMARK  status: ('A' for Active; 'I' for Inactive)
REMARK    1  A    between atoms: C_1  and  C_2
REMARK    2  A    between atoms: C_2  and  C_3
REMARK    3  A    between atoms: C_3  and  C_4
REMARK    4  A    between atoms: C_4  and  C_5
REMARK    5  A    between atoms: C_5  and  C_6
REMARK    6  A    between atoms: N_11  and  N_12
REMARK    7  A    between atoms: N_12  and  C_13
REMARK    8  A    between atoms: C_13  and  N_15
REMARK    9  A    between atoms: N_15  and  C_16
REMARK   10  A    between atoms: C_16  and  C_17
REMARK                            x       y       z     vdW  Elec       q    Type
REMARK                         _______ _______ _______ _____ _____    ______ ____
ROOT
ATOM      1  N   UNL     1       3.634   6.557  17.475  0.00  0.00    +0.000 N 
ATOM      2  H   UNL     1       4.101   7.489  17.473  0.00  0.00    +0.000 HD
ENDROOT
BRANCH   1   8
ATOM      3  C   UNL     1       6.518   4.456  16.625  0.00  0.00    +0.000 C 
ATOM      4  C   UNL     1       7.633   4.485  17.343  0.00  0.00    +0.000 C 
ATOM      5  C   UNL     1       7.642   5.467  18.472  0.00  0.00    +0.000 C 
ATOM      6  C   UNL     1       6.423   6.282  18.191  0.00  0.00    +0.000 C 
ATOM      7  C   UNL     1       5.640   5.467  17.212  0.00  0.00    +0.000 C 
ATOM      8  N   UNL     1       4.349   5.582  16.884  0.00  0.00    +0.000 NA
BRANCH   3   9
ATOM      9  C   UNL     1       6.180   3.575  15.475  0.00  0.00    +0.000 C 
BRANCH   9  10
ATOM     10  C   UNL     1       5.902   4.383  14.208  0.00  0.00    +0.000 C 
BRANCH  10  11
ATOM     11  C   UNL     1       6.507   3.702  12.980  0.00  0.00    +0.000 C 
BRANCH  11  13
ATOM     12  C   UNL     1       5.694   1.931  11.385  0.00  0.00    +0.000 C 
ATOM     13  C   UNL     1       5.424   3.303  11.979  0.00  0.00    +0.000 C 
ENDBRANCH  11  13
ENDBRANCH  10  11
ENDBRANCH   9  10
ENDBRANCH   3   9
ENDBRANCH   1   8
BRANCH   1  14
ATOM     14  C   UNL     1       2.530   6.434  18.303  0.00  0.00    +0.000 C 
ATOM     15  S   UNL     1       2.239   7.211  19.746  0.00  0.00    +0.000 S 
BRANCH  14  16
ATOM     16  N   UNL     1       1.557   5.603  17.785  0.00  0.00    +0.000 N 
ATOM     17  H   UNL     1       0.811   6.079  17.313  0.00  0.00    +0.000 HD
BRANCH  16  18
ATOM     18  C   UNL     1       1.592   4.147  17.772  0.00  0.00    +0.000 C 
BRANCH  18  19
ATOM     19  C   UNL     1       1.949   3.552  19.108  0.00  0.00    +0.000 A 
ATOM     20  C   UNL     1       3.264   3.141  19.367  0.00  0.00    +0.000 A 
ATOM     21  C   UNL     1       3.615   2.604  20.606  0.00  0.00    +0.000 A 
ATOM     22  C   UNL     1       2.655   2.478  21.607  0.00  0.00    +0.000 A 
ATOM     23  C   UNL     1       1.350   2.906  21.374  0.00  0.00    +0.000 A 
ATOM     24  C   UNL     1       0.997   3.445  20.133  0.00  0.00    +0.000 A 
ENDBRANCH  18  19
ENDBRANCH  16  18
ENDBRANCH  14  16
ENDBRANCH   1  14
TORSDOF 9
ENDMDL
MODEL 6
REMARK VINA RESULT:      -6.6      1.843      6.753
REMARK  Name = 
REMARK  10 active torsions:
REMARK  status: ('A' for Active; 'I' for Inactive)
REMARK    1  A    between atoms: C_1  and  C_2
REMARK    2  A    between atoms: C_2  and  C_3
REMARK    3  A    between atoms: C_3  and  C_4
REMARK    4  A    between atoms: C_4  and  C_5
REMARK    5  A    between atoms: C_5  and  C_6
REMARK    6  A    between atoms: N_11  and  N_12
REMARK    7  A    between atoms: N_12  and  C_13
REMARK    8  A    between atoms: C_13  and  N_15
REMARK    9  A    between atoms: N_15  and  C_16
REMARK   10  A    between atoms: C_16  and  C_17
REMARK                            x       y       z     vdW  Elec       q    Type
REMARK                         _______ _______ _______ _____ _____    ______ ____
ROOT
ATOM      1  N   UNL     1       5.008   2.918  18.902  0.00  0.00    +0.000 N 
ATOM      2  H   UNL     1       5.837   2.639  19.468  0.00  0.00    +0.000 HD
ENDROOT
BRANCH   1   8
ATOM      3  C   UNL     1       6.144   5.097  16.179  0.00  0.00    +0.000 C 
ATOM      4  C   UNL     1       6.811   6.218  16.420  0.00  0.00    +0.000 C 
ATOM      5  C   UNL     1       7.012   6.545  17.866  0.00  0.00    +0.000 C 
ATOM      6  C   UNL     1       6.103   5.570  18.539  0.00  0.00    +0.000 C 
ATOM      7  C   UNL     1       5.800   4.549  17.490  0.00  0.00    +0.000 C 
ATOM      8  N   UNL     1       5.303   3.318  17.651  0.00  0.00    +0.000 NA
BRANCH   3   9
ATOM      9  C   UNL     1       5.816   4.479  14.867  0.00  0.00    +0.000 C 
BRANCH   9  10
ATOM     10  C   UNL     1       6.973   4.607  13.877  0.00  0.00    +0.000 C 
BRANCH  10  11
ATOM     11  C   UNL     1       6.584   4.055  12.505  0.00  0.00    +0.000 C 
BRANCH  11  13
ATOM     12  C   UNL     1       4.380   3.380  11.492  0.00  0.00    +0.000 C 
ATOM     13  C   UNL     1       5.381   3.120  12.605  0.00  0.00    +0.000 C 
ENDBRANCH  11  13
ENDBRANCH  10  11
ENDBRANCH   9  10
ENDBRANCH   3   9
ENDBRANCH   1   8
BRANCH   1  14
ATOM     14  C   UNL     1       3.773   2.572  19.426  0.00  0.00    +0.000 C 
ATOM     15  S   UNL     1       3.391   2.231  21.010  0.00  0.00    +0.000 S 
BRANCH  14  16
ATOM     16  N   UNL     1       2.762   2.594  18.486  0.00  0.00    +0.000 N 
ATOM     17  H   UNL     1       2.864   1.920  17.751  0.00  0.00    +0.000 HD
BRANCH  16  18
ATOM     18  C   UNL     1       1.555   3.406  18.544  0.00  0.00    +0.000 C 
BRANCH  18  19
ATOM     19  C   UNL     1       1.824   4.839  18.917  0.00  0.00    +0.000 A 
ATOM     20  C   UNL     1       2.360   5.724  17.971  0.00  0.00    +0.000 A 
ATOM     21  C   UNL     1       2.600   7.060  18.296  0.00  0.00    +0.000 A 
ATOM     22  C   UNL     1       2.299   7.531  19.572  0.00  0.00    +0.000 A 
ATOM     23  C   UNL     1       1.741   6.670  20.514  0.00  0.00    +0.000 A 
ATOM     24  C   UNL     1       1.500   5.331  20.190  0.00  0.00    +0.000 A 
ENDBRANCH  18  19
ENDBRANCH  16  18
ENDBRANCH  14  16
ENDBRANCH   1  14
TORSDOF 9
ENDMDL
MODEL 7
REMARK VINA RESULT:      -6.6      3.114      6.858
REMARK  Name = 
REMARK  10 active torsions:
REMARK  status: ('A' for Active; 'I' for Inactive)
REMARK    1  A    between atoms: C_1  and  C_2
REMARK    2  A    between atoms: C_2  and  C_3
REMARK    3  A    between atoms: C_3  and  C_4
REMARK    4  A    between atoms: C_4  and  C_5
REMARK    5  A    between atoms: C_5  and  C_6
REMARK    6  A    between atoms: N_11  and  N_12
REMARK    7  A    between atoms: N_12  and  C_13
REMARK    8  A    between atoms: C_13  and  N_15
REMARK    9  A    between atoms: N_15  and  C_16
REMARK   10  A    between atoms: C_16  and  C_17
REMARK                            x       y       z     vdW  Elec       q    Type
REMARK                         _______ _______ _______ _____ _____    ______ ____
ROOT
ATOM      1  N   UNL     1       3.858   3.694  18.811  0.00  0.00    +0.000 N 
ATOM      2  H   UNL     1       3.927   2.786  18.303  0.00  0.00    +0.000 HD
ENDROOT
BRANCH   1   8
ATOM      3  C   UNL     1       6.580   5.406  17.046  0.00  0.00    +0.000 C 
ATOM      4  C   UNL     1       6.683   5.365  15.725  0.00  0.00    +0.000 C 
ATOM      5  C   UNL     1       5.652   4.534  15.027  0.00  0.00    +0.000 C 
ATOM      6  C   UNL     1       5.015   3.803  16.163  0.00  0.00    +0.000 C 
ATOM      7  C   UNL     1       5.437   4.558  17.383  0.00  0.00    +0.000 C 
ATOM      8  N   UNL     1       4.901   4.520  18.607  0.00  0.00    +0.000 NA
BRANCH   3   9
ATOM      9  C   UNL     1       7.413   6.164  18.017  0.00  0.00    +0.000 C 
BRANCH   9  10
ATOM     10  C   UNL     1       7.607   7.616  17.582  0.00  0.00    +0.000 C 
BRANCH  10  11
ATOM     11  C   UNL     1       8.505   8.367  18.566  0.00  0.00    +0.000 C 
BRANCH  11  13
ATOM     12  C   UNL     1       9.518  10.594  19.163  0.00  0.00    +0.000 C 
ATOM     13  C   UNL     1       8.609   9.847  18.200  0.00  0.00    +0.000 C 
ENDBRANCH  11  13
ENDBRANCH  10  11
ENDBRANCH   9  10
ENDBRANCH   3   9
ENDBRANCH   1   8
BRANCH   1  14
ATOM     14  C   UNL     1       2.620   3.990  19.360  0.00  0.00    +0.000 C 
ATOM     15  S   UNL     1       1.617   2.983  20.226  0.00  0.00    +0.000 S 
BRANCH  14  16
ATOM     16  N   UNL     1       2.258   5.311  19.193  0.00  0.00    +0.000 N 
ATOM     17  H   UNL     1       1.860   5.523  18.297  0.00  0.00    +0.000 HD
BRANCH  16  18
ATOM     18  C   UNL     1       2.300   6.347  20.216  0.00  0.00    +0.000 C 
BRANCH  18  19
ATOM     19  C   UNL     1       1.932   7.709  19.692  0.00  0.00    +0.000 A 
ATOM     20  C   UNL     1       2.241   8.063  18.371  0.00  0.00    +0.000 A 
ATOM     21  C   UNL     1       1.891   9.316  17.865  0.00  0.00    +0.000 A 
ATOM     22  C   UNL     1       1.220  10.230  18.673  0.00  0.00    +0.000 A 
ATOM     23  C   UNL     1       0.883   9.883  19.980  0.00  0.00    +0.000 A 
ATOM     24  C   UNL     1       1.233   8.628  20.488  0.00  0.00    +0.000 A 
ENDBRANCH  18  19
ENDBRANCH  16  18
ENDBRANCH  14  16
ENDBRANCH   1  14
TORSDOF 9
ENDMDL
MODEL 8
REMARK VINA RESULT:      -6.6      1.894      6.570
REMARK  Name = 
REMARK  10 active torsions:
REMARK  status: ('A' for Active; 'I' for Inactive)
REMARK    1  A    between atoms: C_1  and  C_2
REMARK    2  A    between atoms: C_2  and  C_3
REMARK    3  A    between atoms: C_3  and  C_4
REMARK    4  A    between atoms: C_4  and  C_5
REMARK    5  A    between atoms: C_5  and  C_6
REMARK    6  A    between atoms: N_11  and  N_12
REMARK    7  A    between atoms: N_12  and  C_13
REMARK    8  A    between atoms: C_13  and  N_15
REMARK    9  A    between atoms: N_15  and  C_16
REMARK   10  A    between atoms: C_16  and  C_17
REMARK                            x       y       z     vdW  Elec       q    Type
REMARK                         _______ _______ _______ _____ _____    ______ ____
ROOT
ATOM      1  N   UNL     1       4.422   2.097  18.747  0.00  0.00    +0.000 N 
ATOM      2  H   UNL     1       5.069   1.299  18.921  0.00  0.00    +0.000 HD
ENDROOT
BRANCH   1   8
ATOM      3  C   UNL     1       5.611   4.917  16.726  0.00  0.00    +0.000 C 
ATOM      4  C   UNL     1       6.314   5.906  17.261  0.00  0.00    +0.000 C 
ATOM      5  C   UNL     1       6.532   5.810  18.739  0.00  0.00    +0.000 C 
ATOM      6  C   UNL     1       5.597   4.712  19.125  0.00  0.00    +0.000 C 
ATOM      7  C   UNL     1       5.257   4.034  17.836  0.00  0.00    +0.000 C 
ATOM      8  N   UNL     1       4.723   2.822  17.654  0.00  0.00    +0.000 NA
BRANCH   3   9
ATOM      9  C   UNL     1       5.258   4.700  15.298  0.00  0.00    +0.000 C 
BRANCH   9  10
ATOM     10  C   UNL     1       6.386   4.003  14.537  0.00  0.00    +0.000 C 
BRANCH  10  11
ATOM     11  C   UNL     1       5.958   3.672  13.107  0.00  0.00    +0.000 C 
BRANCH  11  13
ATOM     12  C   UNL     1       7.883   5.243  12.696  0.00  0.00    +0.000 C 
ATOM     13  C   UNL     1       6.981   4.179  12.092  0.00  0.00    +0.000 C 
ENDBRANCH  11  13
ENDBRANCH  10  11
ENDBRANCH   9  10
ENDBRANCH   3   9
ENDBRANCH   1   8
BRANCH   1  14
ATOM     14  C   UNL     1       3.248   2.098  19.484  0.00  0.00    +0.000 C 
ATOM     15  S   UNL     1       3.074   2.235  21.134  0.00  0.00    +0.000 S 
BRANCH  14  16
ATOM     16  N   UNL     1       2.116   2.041  18.696  0.00  0.00    +0.000 N 
ATOM     17  H   UNL     1       2.025   1.200  18.158  0.00  0.00    +0.000 HD
BRANCH  16  18
ATOM     18  C   UNL     1       1.035   3.017  18.678  0.00  0.00    +0.000 C 
BRANCH  18  19
ATOM     19  C   UNL     1       1.506   4.425  18.929  0.00  0.00    +0.000 A 
ATOM     20  C   UNL     1       1.444   4.968  20.220  0.00  0.00    +0.000 A 
ATOM     21  C   UNL     1       1.892   6.266  20.472  0.00  0.00    +0.000 A 
ATOM     22  C   UNL     1       2.416   7.035  19.436  0.00  0.00    +0.000 A 
ATOM     23  C   UNL     1       2.508   6.499  18.153  0.00  0.00    +0.000 A 
ATOM     24  C   UNL     1       2.060   5.199  17.899  0.00  0.00    +0.000 A 
ENDBRANCH  18  19
ENDBRANCH  16  18
ENDBRANCH  14  16
ENDBRANCH   1  14
TORSDOF 9
ENDMDL
MODEL 9
REMARK VINA RESULT:      -6.6      3.954      7.767
REMARK  Name = 
REMARK  10 active torsions:
REMARK  status: ('A' for Active; 'I' for Inactive)
REMARK    1  A    between atoms: C_1  and  C_2
REMARK    2  A    between atoms: C_2  and  C_3
REMARK    3  A    between atoms: C_3  and  C_4
REMARK    4  A    between atoms: C_4  and  C_5
REMARK    5  A    between atoms: C_5  and  C_6
REMARK    6  A    between atoms: N_11  and  N_12
REMARK    7  A    between atoms: N_12  and  C_13
REMARK    8  A    between atoms: C_13  and  N_15
REMARK    9  A    between atoms: N_15  and  C_16
REMARK   10  A    between atoms: C_16  and  C_17
REMARK                            x       y       z     vdW  Elec       q    Type
REMARK                         _______ _______ _______ _____ _____    ______ ____
ROOT
ATOM      1  N   UNL     1       1.758   7.271  20.928  0.00  0.00    +0.000 N 
ATOM      2  H   UNL     1       1.537   6.613  21.705  0.00  0.00    +0.000 HD
ENDROOT
BRANCH   1   8
ATOM      3  C   UNL     1       2.587   4.622  18.530  0.00  0.00    +0.000 C 
ATOM      4  C   UNL     1       1.988   3.440  18.569  0.00  0.00    +0.000 C 
ATOM      5  C   UNL     1       1.005   3.255  19.682  0.00  0.00    +0.000 C 
ATOM      6  C   UNL     1       1.276   4.446  20.543  0.00  0.00    +0.000 C 
ATOM      7  C   UNL     1       2.061   5.373  19.669  0.00  0.00    +0.000 C 
ATOM      8  N   UNL     1       2.278   6.681  19.836  0.00  0.00    +0.000 NA
BRANCH   3   9
ATOM      9  C   UNL     1       3.573   5.128  17.539  0.00  0.00    +0.000 C 
BRANCH   9  10
ATOM     10  C   UNL     1       4.954   5.324  18.164  0.00  0.00    +0.000 C 
BRANCH  10  11
ATOM     11  C   UNL     1       5.700   6.479  17.495  0.00  0.00    +0.000 C 
BRANCH  11  13
ATOM     12  C   UNL     1       7.487   4.719  17.725  0.00  0.00    +0.000 C 
ATOM     13  C   UNL     1       7.182   6.152  17.319  0.00  0.00    +0.000 C 
ENDBRANCH  11  13
ENDBRANCH  10  11
ENDBRANCH   9  10
ENDBRANCH   3   9
ENDBRANCH   1   8
BRANCH   1  14
ATOM     14  C   UNL     1       1.233   8.549  21.048  0.00  0.00    +0.000 C 
ATOM     15  S   UNL     1       0.795   9.349  22.440  0.00  0.00    +0.000 S 
BRANCH  14  16
ATOM     16  N   UNL     1       1.148   9.213  19.842  0.00  0.00    +0.000 N 
ATOM     17  H   UNL     1       1.342   8.644  19.039  0.00  0.00    +0.000 HD
BRANCH  16  18
ATOM     18  C   UNL     1       0.704  10.587  19.649  0.00  0.00    +0.000 C 
BRANCH  18  19
ATOM     19  C   UNL     1      -0.596  10.688  18.897  0.00  0.00    +0.000 A 
ATOM     20  C   UNL     1      -0.831   9.868  17.784  0.00  0.00    +0.000 A 
ATOM     21  C   UNL     1      -2.037   9.937  17.086  0.00  0.00    +0.000 A 
ATOM     22  C   UNL     1      -3.029  10.824  17.497  0.00  0.00    +0.000 A 
ATOM     23  C   UNL     1      -2.821  11.626  18.617  0.00  0.00    +0.000 A 
ATOM     24  C   UNL     1      -1.612  11.558  19.318  0.00  0.00    +0.000 A 
ENDBRANCH  18  19
ENDBRANCH  16  18
ENDBRANCH  14  16
ENDBRANCH   1  14
TORSDOF 9
ENDMDL
