MODEL 1
REMARK VINA RESULT:      -7.3      0.000      0.000
REMARK  Name = 
REMARK  7 active torsions:
REMARK  status: ('A' for Active; 'I' for Inactive)
REMARK    1  A    between atoms: C_1  and  C_2
REMARK    2  A    between atoms: C_5  and  C_6
REMARK    3  A    between atoms: N_8  and  C_9
REMARK    4  A    between atoms: C_12  and  C_13
REMARK    5  A    between atoms: C_13  and  C_14
REMARK    6  A    between atoms: C_14  and  N_15
REMARK    7  A    between atoms: N_18  and  C_19
REMARK                            x       y       z     vdW  Elec       q    Type
REMARK                         _______ _______ _______ _____ _____    ______ ____
ROOT
ATOM      1  C   UNL     1       9.010  12.628  19.563  0.00  0.00    +0.000 C 
ATOM      2  C   UNL     1       8.729  12.435  18.072  0.00  0.00    +0.000 C 
ATOM      3  C   UNL     1       8.218  11.001  17.822  0.00  0.00    +0.000 C 
ATOM      4  C   UNL     1       9.109   9.893  18.434  0.00  0.00    +0.000 C 
ATOM      5  C   UNL     1       9.563  10.238  19.867  0.00  0.00    +0.000 C 
ATOM      6  C   UNL     1      10.113  11.654  19.975  0.00  0.00    +0.000 C 
ENDROOT
BRANCH   1   9
ATOM      7  C   UNL     1       8.560  14.575  20.979  0.00  0.00    +0.000 C 
ATOM      8  O   UNL     1       7.556  14.013  21.418  0.00  0.00    +0.000 OA
ATOM      9  N   UNL     1       9.321  13.990  19.971  0.00  0.00    +0.000 N 
ATOM     10  H   UNL     1      10.222  14.398  19.757  0.00  0.00    +0.000 HD
BRANCH   7  15
ATOM     11  C   UNL     1      10.227  18.628  24.017  0.00  0.00    +0.000 C 
ATOM     12  C   UNL     1       9.759  17.761  22.898  0.00  0.00    +0.000 A 
ATOM     13  C   UNL     1       9.570  18.120  21.581  0.00  0.00    +0.000 A 
ATOM     14  C   UNL     1       9.147  17.018  20.789  0.00  0.00    +0.000 A 
ATOM     15  C   UNL     1       8.999  15.850  21.523  0.00  0.00    +0.000 A 
ATOM     16  S   UNL     1       9.399  16.105  23.163  0.00  0.00    +0.000 S 
ENDBRANCH   7  15
ENDBRANCH   1   9
BRANCH   4  17
ATOM     17  C   UNL     1       8.401   8.519  18.487  0.00  0.00    +0.000 C 
BRANCH  17  18
ATOM     18  C   UNL     1       7.341   8.245  17.410  0.00  0.00    +0.000 C 
BRANCH  18  19
ATOM     19  N   UNL     1       7.424   6.921  16.778  0.00  0.00    +0.000 NA
ATOM     20  C   UNL     1       7.526   5.800  17.744  0.00  0.00    +0.000 C 
ATOM     21  C   UNL     1       6.243   5.491  18.559  0.00  0.00    +0.000 C 
ATOM     22  N   UNL     1       5.091   5.298  17.664  0.00  0.00    +0.000 N 
ATOM     23  C   UNL     1       4.909   6.385  16.678  0.00  0.00    +0.000 C 
ATOM     24  C   UNL     1       6.235   6.672  15.925  0.00  0.00    +0.000 C 
BRANCH  22  25
ATOM     25  C   UNL     1       3.992   4.504  18.006  0.00  0.00    +0.000 A 
ATOM     26  C   UNL     1       3.925   3.221  17.409  0.00  0.00    +0.000 A 
ATOM     27  C   UNL     1       2.929   2.289  17.710  0.00  0.00    +0.000 A 
ATOM     28  C   UNL     1       1.963   2.598  18.653  0.00  0.00    +0.000 A 
ATOM     29  C   UNL     1       1.981   3.848  19.270  0.00  0.00    +0.000 A 
ATOM     30 CL   UNL     1       0.742   4.135  20.453  0.00  0.00    +0.000 Cl
ATOM     31  C   UNL     1       2.967   4.809  18.943  0.00  0.00    +0.000 A 
ATOM     32 CL   UNL     1       2.811   6.393  19.656  0.00  0.00    +0.000 Cl
ENDBRANCH  22  25
ENDBRANCH  18  19
ENDBRANCH  17  18
ENDBRANCH   4  17
TORSDOF 6
ENDMDL
MODEL 2
REMARK VINA RESULT:      -7.2      3.500      6.142
REMARK  Name = 
REMARK  7 active torsions:
REMARK  status: ('A' for Active; 'I' for Inactive)
REMARK    1  A    between atoms: C_1  and  C_2
REMARK    2  A    between atoms: C_5  and  C_6
REMARK    3  A    between atoms: N_8  and  C_9
REMARK    4  A    between atoms: C_12  and  C_13
REMARK    5  A    between atoms: C_13  and  C_14
REMARK    6  A    between atoms: C_14  and  N_15
REMARK    7  A    between atoms: N_18  and  C_19
REMARK                            x       y       z     vdW  Elec       q    Type
REMARK                         _______ _______ _______ _____ _____    ______ ____
ROOT
ATOM      1  C   UNL     1       7.564   7.025  18.390  0.00  0.00    +0.000 C 
ATOM      2  C   UNL     1       7.514   6.484  16.960  0.00  0.00    +0.000 C 
ATOM      3  C   UNL     1       6.352   5.477  16.827  0.00  0.00    +0.000 C 
ATOM      4  C   UNL     1       6.344   4.370  17.909  0.00  0.00    +0.000 C 
ATOM      5  C   UNL     1       6.630   4.932  19.317  0.00  0.00    +0.000 C 
ATOM      6  C   UNL     1       7.839   5.857  19.337  0.00  0.00    +0.000 C 
ENDROOT
BRANCH   1   9
ATOM      7  C   UNL     1       8.211   9.361  18.046  0.00  0.00    +0.000 C 
ATOM      8  O   UNL     1       7.275   9.495  17.256  0.00  0.00    +0.000 OA
ATOM      9  N   UNL     1       8.494   8.122  18.613  0.00  0.00    +0.000 N 
ATOM     10  H   UNL     1       9.156   8.088  19.377  0.00  0.00    +0.000 HD
BRANCH   7  15
ATOM     11  C   UNL     1      11.312  12.926  20.516  0.00  0.00    +0.000 C 
ATOM     12  C   UNL     1      10.453  12.187  19.548  0.00  0.00    +0.000 A 
ATOM     13  C   UNL     1      10.102  12.573  18.272  0.00  0.00    +0.000 A 
ATOM     14  C   UNL     1       9.295  11.598  17.629  0.00  0.00    +0.000 A 
ATOM     15  C   UNL     1       9.026  10.501  18.435  0.00  0.00    +0.000 A 
ATOM     16  S   UNL     1       9.781  10.664  19.958  0.00  0.00    +0.000 S 
ENDBRANCH   7  15
ENDBRANCH   1   9
BRANCH   4  17
ATOM     17  C   UNL     1       4.998   3.610  17.975  0.00  0.00    +0.000 C 
BRANCH  17  18
ATOM     18  C   UNL     1       4.033   4.010  19.102  0.00  0.00    +0.000 C 
BRANCH  18  19
ATOM     19  N   UNL     1       2.657   4.293  18.671  0.00  0.00    +0.000 NA
ATOM     20  C   UNL     1       1.698   4.451  19.790  0.00  0.00    +0.000 C 
ATOM     21  C   UNL     1       1.853   5.741  20.637  0.00  0.00    +0.000 C 
ATOM     22  N   UNL     1       1.841   6.934  19.774  0.00  0.00    +0.000 N 
ATOM     23  C   UNL     1       2.786   6.863  18.639  0.00  0.00    +0.000 C 
ATOM     24  C   UNL     1       2.607   5.534  17.858  0.00  0.00    +0.000 C 
BRANCH  22  25
ATOM     25  C   UNL     1       1.417   8.188  20.224  0.00  0.00    +0.000 A 
ATOM     26  C   UNL     1       1.268   8.344  21.624  0.00  0.00    +0.000 A 
ATOM     27  C   UNL     1       0.924   9.557  22.226  0.00  0.00    +0.000 A 
ATOM     28  C   UNL     1       0.738  10.683  21.441  0.00  0.00    +0.000 A 
ATOM     29  C   UNL     1       0.869  10.585  20.056  0.00  0.00    +0.000 A 
ATOM     30 CL   UNL     1       0.637  12.054  19.160  0.00  0.00    +0.000 Cl
ATOM     31  C   UNL     1       1.183   9.351  19.439  0.00  0.00    +0.000 A 
ATOM     32 CL   UNL     1       1.173   9.300  17.696  0.00  0.00    +0.000 Cl
ENDBRANCH  22  25
ENDBRANCH  18  19
ENDBRANCH  17  18
ENDBRANCH   4  17
TORSDOF 6
ENDMDL
MODEL 3
REMARK VINA RESULT:      -7.1      3.483      6.053
REMARK  Name = 
REMARK  7 active torsions:
REMARK  status: ('A' for Active; 'I' for Inactive)
REMARK    1  A    between atoms: C_1  and  C_2
REMARK    2  A    between atoms: C_5  and  C_6
REMARK    3  A    between atoms: N_8  and  C_9
REMARK    4  A    between atoms: C_12  and  C_13
REMARK    5  A    between atoms: C_13  and  C_14
REMARK    6  A    between atoms: C_14  and  N_15
REMARK    7  A    between atoms: N_18  and  C_19
REMARK                            x       y       z     vdW  Elec       q    Type
REMARK                         _______ _______ _______ _____ _____    ______ ____
ROOT
ATOM      1  C   UNL     1       7.466   7.006  18.241  0.00  0.00    +0.000 C 
ATOM      2  C   UNL     1       7.435   6.414  16.830  0.00  0.00    +0.000 C 
ATOM      3  C   UNL     1       6.260   5.421  16.711  0.00  0.00    +0.000 C 
ATOM      4  C   UNL     1       6.212   4.355  17.832  0.00  0.00    +0.000 C 
ATOM      5  C   UNL     1       6.480   4.964  19.224  0.00  0.00    +0.000 C 
ATOM      6  C   UNL     1       7.703   5.870  19.235  0.00  0.00    +0.000 C 
ENDROOT
BRANCH   1   9
ATOM      7  C   UNL     1       8.083   9.359  17.954  0.00  0.00    +0.000 C 
ATOM      8  O   UNL     1       7.090   9.524  17.244  0.00  0.00    +0.000 OA
ATOM      9  N   UNL     1       8.409   8.097  18.442  0.00  0.00    +0.000 N 
ATOM     10  H   UNL     1       9.128   8.031  19.151  0.00  0.00    +0.000 HD
BRANCH   7  15
ATOM     11  C   UNL     1      11.516  12.740  20.237  0.00  0.00    +0.000 C 
ATOM     12  C   UNL     1      10.498  12.087  19.366  0.00  0.00    +0.000 A 
ATOM     13  C   UNL     1       9.876  12.620  18.257  0.00  0.00    +0.000 A 
ATOM     14  C   UNL     1       8.984  11.693  17.655  0.00  0.00    +0.000 A 
ATOM     15  C   UNL     1       8.925  10.483  18.332  0.00  0.00    +0.000 A 
ATOM     16  S   UNL     1       9.975  10.484  19.678  0.00  0.00    +0.000 S 
ENDBRANCH   7  15
ENDBRANCH   1   9
BRANCH   4  17
ATOM     17  C   UNL     1       4.853   3.620  17.899  0.00  0.00    +0.000 C 
BRANCH  17  18
ATOM     18  C   UNL     1       4.051   3.766  19.201  0.00  0.00    +0.000 C 
BRANCH  18  19
ATOM     19  N   UNL     1       2.611   3.998  19.022  0.00  0.00    +0.000 NA
ATOM     20  C   UNL     1       1.960   4.656  20.180  0.00  0.00    +0.000 C 
ATOM     21  C   UNL     1       2.321   6.148  20.400  0.00  0.00    +0.000 C 
ATOM     22  N   UNL     1       2.096   6.926  19.171  0.00  0.00    +0.000 N 
ATOM     23  C   UNL     1       2.729   6.343  17.968  0.00  0.00    +0.000 C 
ATOM     24  C   UNL     1       2.361   4.842  17.826  0.00  0.00    +0.000 C 
BRANCH  22  25
ATOM     25  C   UNL     1       1.797   8.292  19.184  0.00  0.00    +0.000 A 
ATOM     26  C   UNL     1       2.282   9.059  18.097  0.00  0.00    +0.000 A 
ATOM     27  C   UNL     1       2.001  10.418  17.934  0.00  0.00    +0.000 A 
ATOM     28  C   UNL     1       1.191  11.065  18.853  0.00  0.00    +0.000 A 
ATOM     29  C   UNL     1       0.689  10.358  19.945  0.00  0.00    +0.000 A 
ATOM     30 CL   UNL     1      -0.332  11.250  21.029  0.00  0.00    +0.000 Cl
ATOM     31  C   UNL     1       0.999   8.989  20.132  0.00  0.00    +0.000 A 
ATOM     32 CL   UNL     1       0.449   8.237  21.606  0.00  0.00    +0.000 Cl
ENDBRANCH  22  25
ENDBRANCH  18  19
ENDBRANCH  17  18
ENDBRANCH   4  17
TORSDOF 6
ENDMDL
MODEL 4
REMARK VINA RESULT:      -6.9      1.359      1.711
REMARK  Name = 
REMARK  7 active torsions:
REMARK  status: ('A' for Active; 'I' for Inactive)
REMARK    1  A    between atoms: C_1  and  C_2
REMARK    2  A    between atoms: C_5  and  C_6
REMARK    3  A    between atoms: N_8  and  C_9
REMARK    4  A    between atoms: C_12  and  C_13
REMARK    5  A    between atoms: C_13  and  C_14
REMARK    6  A    between atoms: C_14  and  N_15
REMARK    7  A    between atoms: N_18  and  C_19
REMARK                            x       y       z     vdW  Elec       q    Type
REMARK                         _______ _______ _______ _____ _____    ______ ____
ROOT
ATOM      1  C   UNL     1       8.964  12.387  19.458  0.00  0.00    +0.000 C 
ATOM      2  C   UNL     1       8.796  12.202  17.948  0.00  0.00    +0.000 C 
ATOM      3  C   UNL     1       8.261  10.784  17.656  0.00  0.00    +0.000 C 
ATOM      4  C   UNL     1       9.067   9.650  18.333  0.00  0.00    +0.000 C 
ATOM      5  C   UNL     1       9.417   9.981  19.799  0.00  0.00    +0.000 C 
ATOM      6  C   UNL     1      10.000  11.379  19.953  0.00  0.00    +0.000 C 
ENDROOT
BRANCH   1   9
ATOM      7  C   UNL     1       9.573  13.957  21.236  0.00  0.00    +0.000 C 
ATOM      8  O   UNL     1       9.422  13.061  22.067  0.00  0.00    +0.000 OA
ATOM      9  N   UNL     1       9.285  13.738  19.892  0.00  0.00    +0.000 N 
ATOM     10  H   UNL     1       9.578  14.438  19.222  0.00  0.00    +0.000 HD
BRANCH   7  15
ATOM     11  C   UNL     1      10.672  18.613  23.589  0.00  0.00    +0.000 C 
ATOM     12  C   UNL     1      10.620  17.433  22.680  0.00  0.00    +0.000 A 
ATOM     13  C   UNL     1      11.368  17.217  21.542  0.00  0.00    +0.000 A 
ATOM     14  C   UNL     1      11.072  15.962  20.947  0.00  0.00    +0.000 A 
ATOM     15  C   UNL     1      10.089  15.259  21.628  0.00  0.00    +0.000 A 
ATOM     16  S   UNL     1       9.555  16.128  22.998  0.00  0.00    +0.000 S 
ENDBRANCH   7  15
ENDBRANCH   1   9
BRANCH   4  17
ATOM     17  C   UNL     1       8.314   8.298  18.328  0.00  0.00    +0.000 C 
BRANCH  17  18
ATOM     18  C   UNL     1       7.118   8.177  17.372  0.00  0.00    +0.000 C 
BRANCH  18  19
ATOM     19  N   UNL     1       6.867   6.823  16.859  0.00  0.00    +0.000 NA
ATOM     20  C   UNL     1       6.996   5.759  17.884  0.00  0.00    +0.000 C 
ATOM     21  C   UNL     1       5.879   5.716  18.959  0.00  0.00    +0.000 C 
ATOM     22  N   UNL     1       4.550   5.666  18.328  0.00  0.00    +0.000 N 
ATOM     23  C   UNL     1       4.334   6.709  17.303  0.00  0.00    +0.000 C 
ATOM     24  C   UNL     1       5.503   6.727  16.282  0.00  0.00    +0.000 C 
BRANCH  22  25
ATOM     25  C   UNL     1       3.440   5.087  18.950  0.00  0.00    +0.000 A 
ATOM     26  C   UNL     1       2.934   5.751  20.094  0.00  0.00    +0.000 A 
ATOM     27  C   UNL     1       1.788   5.334  20.776  0.00  0.00    +0.000 A 
ATOM     28  C   UNL     1       1.078   4.237  20.317  0.00  0.00    +0.000 A 
ATOM     29  C   UNL     1       1.533   3.544  19.195  0.00  0.00    +0.000 A 
ATOM     30 CL   UNL     1       0.566   2.196  18.684  0.00  0.00    +0.000 Cl
ATOM     31  C   UNL     1       2.713   3.942  18.522  0.00  0.00    +0.000 A 
ATOM     32 CL   UNL     1       3.280   2.922  17.226  0.00  0.00    +0.000 Cl
ENDBRANCH  22  25
ENDBRANCH  18  19
ENDBRANCH  17  18
ENDBRANCH   4  17
TORSDOF 6
ENDMDL
MODEL 5
REMARK VINA RESULT:      -6.8      1.728      2.020
REMARK  Name = 
REMARK  7 active torsions:
REMARK  status: ('A' for Active; 'I' for Inactive)
REMARK    1  A    between atoms: C_1  and  C_2
REMARK    2  A    between atoms: C_5  and  C_6
REMARK    3  A    between atoms: N_8  and  C_9
REMARK    4  A    between atoms: C_12  and  C_13
REMARK    5  A    between atoms: C_13  and  C_14
REMARK    6  A    between atoms: C_14  and  N_15
REMARK    7  A    between atoms: N_18  and  C_19
REMARK                            x       y       z     vdW  Elec       q    Type
REMARK                         _______ _______ _______ _____ _____    ______ ____
ROOT
ATOM      1  C   UNL     1       8.908  12.585  19.678  0.00  0.00    +0.000 C 
ATOM      2  C   UNL     1       8.988  12.712  18.155  0.00  0.00    +0.000 C 
ATOM      3  C   UNL     1       8.324  11.484  17.497  0.00  0.00    +0.000 C 
ATOM      4  C   UNL     1       8.833  10.124  18.034  0.00  0.00    +0.000 C 
ATOM      5  C   UNL     1       8.958  10.116  19.571  0.00  0.00    +0.000 C 
ATOM      6  C   UNL     1       9.691  11.342  20.099  0.00  0.00    +0.000 C 
ENDROOT
BRANCH   1   9
ATOM      7  C   UNL     1      10.590  14.292  20.182  0.00  0.00    +0.000 C 
ATOM      8  O   UNL     1      11.392  13.704  19.454  0.00  0.00    +0.000 OA
ATOM      9  N   UNL     1       9.328  13.759  20.427  0.00  0.00    +0.000 N 
ATOM     10  H   UNL     1       8.646  14.347  20.889  0.00  0.00    +0.000 HD
BRANCH   7  15
ATOM     11  C   UNL     1      11.439  18.464  23.390  0.00  0.00    +0.000 C 
ATOM     12  C   UNL     1      11.324  17.539  22.228  0.00  0.00    +0.000 A 
ATOM     13  C   UNL     1      11.659  17.794  20.915  0.00  0.00    +0.000 A 
ATOM     14  C   UNL     1      11.444  16.661  20.086  0.00  0.00    +0.000 A 
ATOM     15  C   UNL     1      10.927  15.575  20.778  0.00  0.00    +0.000 A 
ATOM     16  S   UNL     1      10.731  15.943  22.433  0.00  0.00    +0.000 S 
ENDBRANCH   7  15
ENDBRANCH   1   9
BRANCH   4  17
ATOM     17  C   UNL     1       7.914   8.944  17.635  0.00  0.00    +0.000 C 
BRANCH  17  18
ATOM     18  C   UNL     1       8.108   7.627  18.402  0.00  0.00    +0.000 C 
BRANCH  18  19
ATOM     19  N   UNL     1       7.714   6.417  17.669  0.00  0.00    +0.000 NA
ATOM     20  C   UNL     1       7.556   5.219  18.529  0.00  0.00    +0.000 C 
ATOM     21  C   UNL     1       6.327   5.222  19.475  0.00  0.00    +0.000 C 
ATOM     22  N   UNL     1       5.090   5.483  18.720  0.00  0.00    +0.000 N 
ATOM     23  C   UNL     1       5.159   6.675  17.848  0.00  0.00    +0.000 C 
ATOM     24  C   UNL     1       6.429   6.631  16.957  0.00  0.00    +0.000 C 
BRANCH  22  25
ATOM     25  C   UNL     1       3.838   5.022  19.139  0.00  0.00    +0.000 A 
ATOM     26  C   UNL     1       3.146   5.826  20.078  0.00  0.00    +0.000 A 
ATOM     27  C   UNL     1       1.858   5.535  20.532  0.00  0.00    +0.000 A 
ATOM     28  C   UNL     1       1.191   4.426  20.037  0.00  0.00    +0.000 A 
ATOM     29  C   UNL     1       1.826   3.599  19.111  0.00  0.00    +0.000 A 
ATOM     30 CL   UNL     1       0.902   2.247  18.534  0.00  0.00    +0.000 Cl
ATOM     31  C   UNL     1       3.145   3.871  18.675  0.00  0.00    +0.000 A 
ATOM     32 CL   UNL     1       3.904   2.694  17.636  0.00  0.00    +0.000 Cl
ENDBRANCH  22  25
ENDBRANCH  18  19
ENDBRANCH  17  18
ENDBRANCH   4  17
TORSDOF 6
ENDMDL
MODEL 6
REMARK VINA RESULT:      -6.8      1.136      1.282
REMARK  Name = 
REMARK  7 active torsions:
REMARK  status: ('A' for Active; 'I' for Inactive)
REMARK    1  A    between atoms: C_1  and  C_2
REMARK    2  A    between atoms: C_5  and  C_6
REMARK    3  A    between atoms: N_8  and  C_9
REMARK    4  A    between atoms: C_12  and  C_13
REMARK    5  A    between atoms: C_13  and  C_14
REMARK    6  A    between atoms: C_14  and  N_15
REMARK    7  A    between atoms: N_18  and  C_19
REMARK                            x       y       z     vdW  Elec       q    Type
REMARK                         _______ _______ _______ _____ _____    ______ ____
ROOT
ATOM      1  C   UNL     1       9.923  12.529  20.032  0.00  0.00    +0.000 C 
ATOM      2  C   UNL     1      10.904  12.182  18.911  0.00  0.00    +0.000 C 
ATOM      3  C   UNL     1      10.197  11.305  17.856  0.00  0.00    +0.000 C 
ATOM      4  C   UNL     1       9.465  10.074  18.442  0.00  0.00    +0.000 C 
ATOM      5  C   UNL     1       8.667  10.424  19.715  0.00  0.00    +0.000 C 
ATOM      6  C   UNL     1       9.489  11.230  20.711  0.00  0.00    +0.000 C 
ENDROOT
BRANCH   1   9
ATOM      7  C   UNL     1       9.555  14.550  21.366  0.00  0.00    +0.000 C 
ATOM      8  O   UNL     1       8.487  14.732  20.779  0.00  0.00    +0.000 OA
ATOM      9  N   UNL     1      10.398  13.504  21.002  0.00  0.00    +0.000 N 
ATOM     10  H   UNL     1      11.177  13.288  21.610  0.00  0.00    +0.000 HD
BRANCH   7  15
ATOM     11  C   UNL     1      10.049  17.151  25.993  0.00  0.00    +0.000 C 
ATOM     12  C   UNL     1      10.207  16.638  24.603  0.00  0.00    +0.000 A 
ATOM     13  C   UNL     1      11.166  16.997  23.680  0.00  0.00    +0.000 A 
ATOM     14  C   UNL     1      11.025  16.275  22.465  0.00  0.00    +0.000 A 
ATOM     15  C   UNL     1       9.949  15.400  22.477  0.00  0.00    +0.000 A 
ATOM     16  S   UNL     1       9.136  15.453  23.978  0.00  0.00    +0.000 S 
ENDBRANCH   7  15
ENDBRANCH   1   9
BRANCH   4  17
ATOM     17  C   UNL     1       8.480   9.431  17.437  0.00  0.00    +0.000 C 
BRANCH  17  18
ATOM     18  C   UNL     1       7.561   8.326  17.979  0.00  0.00    +0.000 C 
BRANCH  18  19
ATOM     19  N   UNL     1       7.692   7.024  17.311  0.00  0.00    +0.000 NA
ATOM     20  C   UNL     1       7.718   5.871  18.243  0.00  0.00    +0.000 C 
ATOM     21  C   UNL     1       6.377   5.539  18.946  0.00  0.00    +0.000 C 
ATOM     22  N   UNL     1       5.297   5.380  17.959  0.00  0.00    +0.000 N 
ATOM     23  C   UNL     1       5.191   6.500  16.999  0.00  0.00    +0.000 C 
ATOM     24  C   UNL     1       6.572   6.808  16.361  0.00  0.00    +0.000 C 
BRANCH  22  25
ATOM     25  C   UNL     1       4.175   4.578  18.188  0.00  0.00    +0.000 A 
ATOM     26  C   UNL     1       4.136   3.332  17.516  0.00  0.00    +0.000 A 
ATOM     27  C   UNL     1       3.118   2.393  17.702  0.00  0.00    +0.000 A 
ATOM     28  C   UNL     1       2.098   2.658  18.602  0.00  0.00    +0.000 A 
ATOM     29  C   UNL     1       2.086   3.871  19.289  0.00  0.00    +0.000 A 
ATOM     30 CL   UNL     1       0.779   4.102  20.409  0.00  0.00    +0.000 Cl
ATOM     31  C   UNL     1       3.096   4.840  19.077  0.00  0.00    +0.000 A 
ATOM     32 CL   UNL     1       2.907   6.382  19.869  0.00  0.00    +0.000 Cl
ENDBRANCH  22  25
ENDBRANCH  18  19
ENDBRANCH  17  18
ENDBRANCH   4  17
TORSDOF 6
ENDMDL
MODEL 7
REMARK VINA RESULT:      -6.7      6.796     11.713
REMARK  Name = 
REMARK  7 active torsions:
REMARK  status: ('A' for Active; 'I' for Inactive)
REMARK    1  A    between atoms: C_1  and  C_2
REMARK    2  A    between atoms: C_5  and  C_6
REMARK    3  A    between atoms: N_8  and  C_9
REMARK    4  A    between atoms: C_12  and  C_13
REMARK    5  A    between atoms: C_13  and  C_14
REMARK    6  A    between atoms: C_14  and  N_15
REMARK    7  A    between atoms: N_18  and  C_19
REMARK                            x       y       z     vdW  Elec       q    Type
REMARK                         _______ _______ _______ _____ _____    ______ ____
ROOT
ATOM      1  C   UNL     1       0.787  10.007  19.186  0.00  0.00    +0.000 C 
ATOM      2  C   UNL     1      -0.653  10.126  18.682  0.00  0.00    +0.000 C 
ATOM      3  C   UNL     1      -1.058  11.613  18.616  0.00  0.00    +0.000 C 
ATOM      4  C   UNL     1      -0.791  12.402  19.921  0.00  0.00    +0.000 C 
ATOM      5  C   UNL     1       0.591  12.076  20.524  0.00  0.00    +0.000 C 
ATOM      6  C   UNL     1       0.850  10.577  20.602  0.00  0.00    +0.000 C 
ENDROOT
BRANCH   1   9
ATOM      7  C   UNL     1       2.277   8.389  18.109  0.00  0.00    +0.000 C 
ATOM      8  O   UNL     1       2.484   9.197  17.202  0.00  0.00    +0.000 OA
ATOM      9  N   UNL     1       1.366   8.673  19.121  0.00  0.00    +0.000 N 
ATOM     10  H   UNL     1       1.347   8.065  19.930  0.00  0.00    +0.000 HD
BRANCH   7  15
ATOM     11  C   UNL     1       4.059   3.462  19.098  0.00  0.00    +0.000 C 
ATOM     12  C   UNL     1       3.872   4.857  18.607  0.00  0.00    +0.000 A 
ATOM     13  C   UNL     1       4.672   5.550  17.724  0.00  0.00    +0.000 A 
ATOM     14  C   UNL     1       4.164   6.851  17.461  0.00  0.00    +0.000 A 
ATOM     15  C   UNL     1       3.004   7.131  18.167  0.00  0.00    +0.000 A 
ATOM     16  S   UNL     1       2.535   5.797  19.124  0.00  0.00    +0.000 S 
ENDBRANCH   7  15
ENDBRANCH   1   9
BRANCH   4  17
ATOM     17  C   UNL     1      -0.860  13.934  19.716  0.00  0.00    +0.000 C 
BRANCH  17  18
ATOM     18  C   UNL     1       0.313  14.585  18.967  0.00  0.00    +0.000 C 
BRANCH  18  19
ATOM     19  N   UNL     1       0.899  15.758  19.629  0.00  0.00    +0.000 NA
ATOM     20  C   UNL     1       1.919  15.424  20.652  0.00  0.00    +0.000 C 
ATOM     21  C   UNL     1       3.265  14.875  20.112  0.00  0.00    +0.000 C 
ATOM     22  N   UNL     1       3.828  15.783  19.099  0.00  0.00    +0.000 N 
ATOM     23  C   UNL     1       2.876  16.153  18.030  0.00  0.00    +0.000 C 
ATOM     24  C   UNL     1       1.538  16.656  18.635  0.00  0.00    +0.000 C 
BRANCH  22  25
ATOM     25  C   UNL     1       5.200  15.875  18.846  0.00  0.00    +0.000 A 
ATOM     26  C   UNL     1       5.751  14.909  17.969  0.00  0.00    +0.000 A 
ATOM     27  C   UNL     1       7.087  14.918  17.563  0.00  0.00    +0.000 A 
ATOM     28  C   UNL     1       7.932  15.923  18.006  0.00  0.00    +0.000 A 
ATOM     29  C   UNL     1       7.442  16.898  18.875  0.00  0.00    +0.000 A 
ATOM     30 CL   UNL     1       8.569  18.127  19.358  0.00  0.00    +0.000 Cl
ATOM     31  C   UNL     1       6.097  16.874  19.315  0.00  0.00    +0.000 A 
ATOM     32 CL   UNL     1       5.626  18.046  20.517  0.00  0.00    +0.000 Cl
ENDBRANCH  22  25
ENDBRANCH  18  19
ENDBRANCH  17  18
ENDBRANCH   4  17
TORSDOF 6
ENDMDL
MODEL 8
REMARK VINA RESULT:      -6.7      6.107      7.778
REMARK  Name = 
REMARK  7 active torsions:
REMARK  status: ('A' for Active; 'I' for Inactive)
REMARK    1  A    between atoms: C_1  and  C_2
REMARK    2  A    between atoms: C_5  and  C_6
REMARK    3  A    between atoms: N_8  and  C_9
REMARK    4  A    between atoms: C_12  and  C_13
REMARK    5  A    between atoms: C_13  and  C_14
REMARK    6  A    between atoms: C_14  and  N_15
REMARK    7  A    between atoms: N_18  and  C_19
REMARK                            x       y       z     vdW  Elec       q    Type
REMARK                         _______ _______ _______ _____ _____    ______ ____
ROOT
ATOM      1  C   UNL     1       1.430   8.447  19.523  0.00  0.00    +0.000 C 
ATOM      2  C   UNL     1       2.468   7.707  18.675  0.00  0.00    +0.000 C 
ATOM      3  C   UNL     1       2.105   6.209  18.603  0.00  0.00    +0.000 C 
ATOM      4  C   UNL     1       1.848   5.551  19.980  0.00  0.00    +0.000 C 
ATOM      5  C   UNL     1       0.981   6.441  20.895  0.00  0.00    +0.000 C 
ATOM      6  C   UNL     1       1.476   7.880  20.941  0.00  0.00    +0.000 C 
ENDROOT
BRANCH   1   9
ATOM      7  C   UNL     1       0.440  10.652  19.131  0.00  0.00    +0.000 C 
ATOM      8  O   UNL     1      -0.559  10.109  18.655  0.00  0.00    +0.000 OA
ATOM      9  N   UNL     1       1.541   9.898  19.524  0.00  0.00    +0.000 N 
ATOM     10  H   UNL     1       2.266  10.358  20.059  0.00  0.00    +0.000 HD
BRANCH   7  15
ATOM     11  C   UNL     1      -0.183  15.942  18.918  0.00  0.00    +0.000 C 
ATOM     12  C   UNL     1       0.233  14.552  19.254  0.00  0.00    +0.000 A 
ATOM     13  C   UNL     1       1.107  14.153  20.244  0.00  0.00    +0.000 A 
ATOM     14  C   UNL     1       1.238  12.739  20.293  0.00  0.00    +0.000 A 
ATOM     15  C   UNL     1       0.483  12.092  19.326  0.00  0.00    +0.000 A 
ATOM     16  S   UNL     1      -0.395  13.214  18.385  0.00  0.00    +0.000 S 
ENDBRANCH   7  15
ENDBRANCH   1   9
BRANCH   4  17
ATOM     17  C   UNL     1       1.144   4.178  19.863  0.00  0.00    +0.000 C 
BRANCH  17  18
ATOM     18  C   UNL     1       1.786   3.005  20.618  0.00  0.00    +0.000 C 
BRANCH  18  19
ATOM     19  N   UNL     1       2.490   2.032  19.772  0.00  0.00    +0.000 NA
ATOM     20  C   UNL     1       2.265   2.225  18.319  0.00  0.00    +0.000 C 
ATOM     21  C   UNL     1       2.936   3.474  17.691  0.00  0.00    +0.000 C 
ATOM     22  N   UNL     1       4.375   3.502  17.999  0.00  0.00    +0.000 N 
ATOM     23  C   UNL     1       4.685   3.332  19.434  0.00  0.00    +0.000 C 
ATOM     24  C   UNL     1       3.953   2.091  20.011  0.00  0.00    +0.000 C 
BRANCH  22  25
ATOM     25  C   UNL     1       5.312   4.131  17.174  0.00  0.00    +0.000 A 
ATOM     26  C   UNL     1       5.443   3.624  15.858  0.00  0.00    +0.000 A 
ATOM     27  C   UNL     1       6.283   4.194  14.898  0.00  0.00    +0.000 A 
ATOM     28  C   UNL     1       7.015   5.327  15.214  0.00  0.00    +0.000 A 
ATOM     29  C   UNL     1       6.925   5.868  16.497  0.00  0.00    +0.000 A 
ATOM     30 CL   UNL     1       7.863   7.298  16.791  0.00  0.00    +0.000 Cl
ATOM     31  C   UNL     1       6.103   5.272  17.483  0.00  0.00    +0.000 A 
ATOM     32 CL   UNL     1       6.179   5.932  19.095  0.00  0.00    +0.000 Cl
ENDBRANCH  22  25
ENDBRANCH  18  19
ENDBRANCH  17  18
ENDBRANCH   4  17
TORSDOF 6
ENDMDL
MODEL 9
REMARK VINA RESULT:      -6.5      9.481     12.680
REMARK  Name = 
REMARK  7 active torsions:
REMARK  status: ('A' for Active; 'I' for Inactive)
REMARK    1  A    between atoms: C_1  and  C_2
REMARK    2  A    between atoms: C_5  and  C_6
REMARK    3  A    between atoms: N_8  and  C_9
REMARK    4  A    between atoms: C_12  and  C_13
REMARK    5  A    between atoms: C_13  and  C_14
REMARK    6  A    between atoms: C_14  and  N_15
REMARK    7  A    between atoms: N_18  and  C_19
REMARK                            x       y       z     vdW  Elec       q    Type
REMARK                         _______ _______ _______ _____ _____    ______ ____
ROOT
ATOM      1  C   UNL     1       1.727   9.379  18.299  0.00  0.00    +0.000 C 
ATOM      2  C   UNL     1       2.208  10.828  18.197  0.00  0.00    +0.000 C 
ATOM      3  C   UNL     1       1.234  11.752  18.958  0.00  0.00    +0.000 C 
ATOM      4  C   UNL     1      -0.253  11.564  18.572  0.00  0.00    +0.000 C 
ATOM      5  C   UNL     1      -0.640  10.075  18.460  0.00  0.00    +0.000 C 
ATOM      6  C   UNL     1       0.358   9.279  17.629  0.00  0.00    +0.000 C 
ENDROOT
BRANCH   1   9
ATOM      7  C   UNL     1       2.762   7.166  18.463  0.00  0.00    +0.000 C 
ATOM      8  O   UNL     1       2.210   6.998  19.551  0.00  0.00    +0.000 OA
ATOM      9  N   UNL     1       2.647   8.376  17.785  0.00  0.00    +0.000 N 
ATOM     10  H   UNL     1       2.972   8.418  16.828  0.00  0.00    +0.000 HD
BRANCH   7  15
ATOM     11  C   UNL     1       6.173   4.156  15.682  0.00  0.00    +0.000 C 
ATOM     12  C   UNL     1       5.076   4.661  16.556  0.00  0.00    +0.000 A 
ATOM     13  C   UNL     1       4.165   3.916  17.274  0.00  0.00    +0.000 A 
ATOM     14  C   UNL     1       3.283   4.741  18.022  0.00  0.00    +0.000 A 
ATOM     15  C   UNL     1       3.522   6.095  17.839  0.00  0.00    +0.000 A 
ATOM     16  S   UNL     1       4.835   6.344  16.776  0.00  0.00    +0.000 S 
ENDBRANCH   7  15
ENDBRANCH   1   9
BRANCH   4  17
ATOM     17  C   UNL     1      -1.220  12.221  19.585  0.00  0.00    +0.000 C 
BRANCH  17  18
ATOM     18  C   UNL     1      -1.389  11.514  20.939  0.00  0.00    +0.000 C 
BRANCH  18  19
ATOM     19  N   UNL     1      -0.796  12.216  22.085  0.00  0.00    +0.000 NA
ATOM     20  C   UNL     1      -0.677  13.681  21.896  0.00  0.00    +0.000 C 
ATOM     21  C   UNL     1      -2.008  14.476  21.913  0.00  0.00    +0.000 C 
ATOM     22  N   UNL     1      -2.780  14.173  23.130  0.00  0.00    +0.000 N 
ATOM     23  C   UNL     1      -2.959  12.727  23.382  0.00  0.00    +0.000 C 
ATOM     24  C   UNL     1      -1.598  11.985  23.313  0.00  0.00    +0.000 C 
BRANCH  22  25
ATOM     25  C   UNL     1      -3.685  15.076  23.695  0.00  0.00    +0.000 A 
ATOM     26  C   UNL     1      -3.187  15.920  24.718  0.00  0.00    +0.000 A 
ATOM     27  C   UNL     1      -3.951  16.920  25.324  0.00  0.00    +0.000 A 
ATOM     28  C   UNL     1      -5.254  17.136  24.906  0.00  0.00    +0.000 A 
ATOM     29  C   UNL     1      -5.796  16.332  23.904  0.00  0.00    +0.000 A 
ATOM     30 CL   UNL     1      -7.428  16.693  23.434  0.00  0.00    +0.000 Cl
ATOM     31  C   UNL     1      -5.037  15.294  23.311  0.00  0.00    +0.000 A 
ATOM     32 CL   UNL     1      -5.854  14.250  22.179  0.00  0.00    +0.000 Cl
ENDBRANCH  22  25
ENDBRANCH  18  19
ENDBRANCH  17  18
ENDBRANCH   4  17
TORSDOF 6
ENDMDL
