MODEL 1
REMARK VINA RESULT:      -7.1      0.000      0.000
REMARK  Name = 
REMARK  7 active torsions:
REMARK  status: ('A' for Active; 'I' for Inactive)
REMARK    1  A    between atoms: C_1  and  C_2
REMARK    2  A    between atoms: C_4  and  C_5
REMARK    3  A    between atoms: N_7  and  C_8
REMARK    4  A    between atoms: C_8  and  C_9
REMARK    5  A    between atoms: C_8  and  C_14
REMARK    6  A    between atoms: C_14  and  C_15
REMARK    7  A    between atoms: C_14  and  C_16
REMARK                            x       y       z     vdW  Elec       q    Type
REMARK                         _______ _______ _______ _____ _____    ______ ____
ROOT
ATOM      1  C   UNL     1       3.911   6.350  17.851  0.00  0.00    +0.000 C 
ATOM      2  O   UNL     1       3.657   7.489  17.468  0.00  0.00    +0.000 OA
ATOM      3  N   UNL     1       5.115   5.728  17.596  0.00  0.00    +0.000 N 
ATOM      4  H   UNL     1       5.149   4.725  17.772  0.00  0.00    +0.000 HD
ENDROOT
BRANCH   1   8
ATOM      5  C   UNL     1       0.712   2.479  18.920  0.00  0.00    +0.000 C 
ATOM      6  C   UNL     1       1.497   3.737  18.997  0.00  0.00    +0.000 A 
ATOM      7  C   UNL     1       2.225   4.399  18.028  0.00  0.00    +0.000 A 
ATOM      8  C   UNL     1       2.942   5.516  18.588  0.00  0.00    +0.000 A 
ATOM      9  N   UNL     1       2.690   5.754  19.884  0.00  0.00    +0.000 NA
ATOM     10  S   UNL     1       1.638   4.610  20.458  0.00  0.00    +0.000 S 
ENDBRANCH   1   8
BRANCH   3  11
ATOM     11  C   UNL     1       6.165   6.332  16.796  0.00  0.00    +0.000 C 
BRANCH  11  12
ATOM     12  C   UNL     1       6.360   5.467  15.577  0.00  0.00    +0.000 A 
ATOM     13  N   UNL     1       7.400   5.437  14.763  0.00  0.00    +0.000 NA
ATOM     14  C   UNL     1       7.076   4.542  13.777  0.00  0.00    +0.000 A 
ATOM     15  C   UNL     1       5.838   3.995  14.006  0.00  0.00    +0.000 A 
ATOM     16  N   UNL     1       5.400   4.574  15.163  0.00  0.00    +0.000 N 
ATOM     17  H   UNL     1       4.530   4.388  15.647  0.00  0.00    +0.000 HD
ENDBRANCH  11  12
BRANCH  11  18
ATOM     18  C   UNL     1       7.471   6.500  17.614  0.00  0.00    +0.000 C 
ATOM     19  C   UNL     1       7.832   7.979  17.817  0.00  0.00    +0.000 C 
ATOM     20  C   UNL     1       7.360   5.830  18.991  0.00  0.00    +0.000 C 
ENDBRANCH  11  18
ENDBRANCH   3  11
TORSDOF 4
ENDMDL
MODEL 2
REMARK VINA RESULT:      -7.0      1.273      1.310
REMARK  Name = 
REMARK  7 active torsions:
REMARK  status: ('A' for Active; 'I' for Inactive)
REMARK    1  A    between atoms: C_1  and  C_2
REMARK    2  A    between atoms: C_4  and  C_5
REMARK    3  A    between atoms: N_7  and  C_8
REMARK    4  A    between atoms: C_8  and  C_9
REMARK    5  A    between atoms: C_8  and  C_14
REMARK    6  A    between atoms: C_14  and  C_15
REMARK    7  A    between atoms: C_14  and  C_16
REMARK                            x       y       z     vdW  Elec       q    Type
REMARK                         _______ _______ _______ _____ _____    ______ ____
ROOT
ATOM      1  C   UNL     1       3.878   5.629  17.890  0.00  0.00    +0.000 C 
ATOM      2  O   UNL     1       3.466   6.747  17.590  0.00  0.00    +0.000 OA
ATOM      3  N   UNL     1       5.158   5.204  17.602  0.00  0.00    +0.000 N 
ATOM      4  H   UNL     1       5.333   4.206  17.704  0.00  0.00    +0.000 HD
ENDROOT
BRANCH   1   8
ATOM      5  C   UNL     1       1.708   2.849  21.621  0.00  0.00    +0.000 C 
ATOM      6  C   UNL     1       2.102   3.385  20.294  0.00  0.00    +0.000 A 
ATOM      7  C   UNL     1       3.107   4.266  19.947  0.00  0.00    +0.000 A 
ATOM      8  C   UNL     1       3.035   4.614  18.551  0.00  0.00    +0.000 A 
ATOM      9  N   UNL     1       2.098   3.953  17.854  0.00  0.00    +0.000 NA
ATOM     10  S   UNL     1       1.258   2.954  18.873  0.00  0.00    +0.000 S 
ENDBRANCH   1   8
BRANCH   3  11
ATOM     11  C   UNL     1       6.113   6.009  16.863  0.00  0.00    +0.000 C 
BRANCH  11  12
ATOM     12  C   UNL     1       6.389   5.300  15.562  0.00  0.00    +0.000 A 
ATOM     13  N   UNL     1       7.410   5.479  14.743  0.00  0.00    +0.000 NA
ATOM     14  C   UNL     1       7.180   4.654  13.673  0.00  0.00    +0.000 A 
ATOM     15  C   UNL     1       6.022   3.938  13.852  0.00  0.00    +0.000 A 
ATOM     16  N   UNL     1       5.538   4.341  15.065  0.00  0.00    +0.000 N 
ATOM     17  H   UNL     1       4.706   4.002  15.533  0.00  0.00    +0.000 HD
ENDBRANCH  11  12
BRANCH  11  18
ATOM     18  C   UNL     1       7.403   6.252  17.687  0.00  0.00    +0.000 C 
ATOM     19  C   UNL     1       7.755   7.744  17.769  0.00  0.00    +0.000 C 
ATOM     20  C   UNL     1       7.269   5.702  19.114  0.00  0.00    +0.000 C 
ENDBRANCH  11  18
ENDBRANCH   3  11
TORSDOF 4
ENDMDL
MODEL 3
REMARK VINA RESULT:      -7.0      1.605      1.636
REMARK  Name = 
REMARK  7 active torsions:
REMARK  status: ('A' for Active; 'I' for Inactive)
REMARK    1  A    between atoms: C_1  and  C_2
REMARK    2  A    between atoms: C_4  and  C_5
REMARK    3  A    between atoms: N_7  and  C_8
REMARK    4  A    between atoms: C_8  and  C_9
REMARK    5  A    between atoms: C_8  and  C_14
REMARK    6  A    between atoms: C_14  and  C_15
REMARK    7  A    between atoms: C_14  and  C_16
REMARK                            x       y       z     vdW  Elec       q    Type
REMARK                         _______ _______ _______ _____ _____    ______ ____
ROOT
ATOM      1  C   UNL     1       4.339   5.349  18.401  0.00  0.00    +0.000 C 
ATOM      2  O   UNL     1       3.528   6.089  17.850  0.00  0.00    +0.000 OA
ATOM      3  N   UNL     1       5.690   5.392  18.132  0.00  0.00    +0.000 N 
ATOM      4  H   UNL     1       6.243   4.610  18.480  0.00  0.00    +0.000 HD
ENDROOT
BRANCH   1   8
ATOM      5  C   UNL     1       1.426   2.630  21.639  0.00  0.00    +0.000 C 
ATOM      6  C   UNL     1       2.570   3.136  20.839  0.00  0.00    +0.000 A 
ATOM      7  C   UNL     1       2.706   4.300  20.109  0.00  0.00    +0.000 A 
ATOM      8  C   UNL     1       3.946   4.313  19.376  0.00  0.00    +0.000 A 
ATOM      9  N   UNL     1       4.754   3.269  19.618  0.00  0.00    +0.000 NA
ATOM     10  S   UNL     1       4.013   2.236  20.679  0.00  0.00    +0.000 S 
ENDBRANCH   1   8
BRANCH   3  11
ATOM     11  C   UNL     1       6.271   6.264  17.127  0.00  0.00    +0.000 C 
BRANCH  11  12
ATOM     12  C   UNL     1       6.366   5.476  15.846  0.00  0.00    +0.000 A 
ATOM     13  N   UNL     1       7.422   5.321  15.067  0.00  0.00    +0.000 NA
ATOM     14  C   UNL     1       6.992   4.581  13.997  0.00  0.00    +0.000 A 
ATOM     15  C   UNL     1       5.666   4.253  14.136  0.00  0.00    +0.000 A 
ATOM     16  N   UNL     1       5.283   4.809  15.324  0.00  0.00    +0.000 N 
ATOM     17  H   UNL     1       4.372   4.748  15.761  0.00  0.00    +0.000 HD
ENDBRANCH  11  12
BRANCH  11  18
ATOM     18  C   UNL     1       7.646   6.813  17.585  0.00  0.00    +0.000 C 
ATOM     19  C   UNL     1       7.653   8.347  17.660  0.00  0.00    +0.000 C 
ATOM     20  C   UNL     1       8.044   6.255  18.959  0.00  0.00    +0.000 C 
ENDBRANCH  11  18
ENDBRANCH   3  11
TORSDOF 4
ENDMDL
MODEL 4
REMARK VINA RESULT:      -6.7      1.021      1.356
REMARK  Name = 
REMARK  7 active torsions:
REMARK  status: ('A' for Active; 'I' for Inactive)
REMARK    1  A    between atoms: C_1  and  C_2
REMARK    2  A    between atoms: C_4  and  C_5
REMARK    3  A    between atoms: N_7  and  C_8
REMARK    4  A    between atoms: C_8  and  C_9
REMARK    5  A    between atoms: C_8  and  C_14
REMARK    6  A    between atoms: C_14  and  C_15
REMARK    7  A    between atoms: C_14  and  C_16
REMARK                            x       y       z     vdW  Elec       q    Type
REMARK                         _______ _______ _______ _____ _____    ______ ____
ROOT
ATOM      1  C   UNL     1       4.044   6.463  18.115  0.00  0.00    +0.000 C 
ATOM      2  O   UNL     1       3.599   7.423  17.491  0.00  0.00    +0.000 OA
ATOM      3  N   UNL     1       5.323   5.982  17.929  0.00  0.00    +0.000 N 
ATOM      4  H   UNL     1       5.522   5.069  18.335  0.00  0.00    +0.000 HD
ENDROOT
BRANCH   1   8
ATOM      5  C   UNL     1       2.642   2.697  21.310  0.00  0.00    +0.000 C 
ATOM      6  C   UNL     1       2.667   3.951  20.514  0.00  0.00    +0.000 A 
ATOM      7  C   UNL     1       3.497   4.338  19.481  0.00  0.00    +0.000 A 
ATOM      8  C   UNL     1       3.245   5.703  19.096  0.00  0.00    +0.000 A 
ATOM      9  N   UNL     1       2.213   6.285  19.725  0.00  0.00    +0.000 NA
ATOM     10  S   UNL     1       1.572   5.224  20.823  0.00  0.00    +0.000 S 
ENDBRANCH   1   8
BRANCH   3  11
ATOM     11  C   UNL     1       6.235   6.518  16.936  0.00  0.00    +0.000 C 
BRANCH  11  12
ATOM     12  C   UNL     1       6.280   5.541  15.789  0.00  0.00    +0.000 A 
ATOM     13  N   UNL     1       5.438   4.556  15.531  0.00  0.00    +0.000 NA
ATOM     14  C   UNL     1       5.937   3.917  14.426  0.00  0.00    +0.000 A 
ATOM     15  C   UNL     1       7.080   4.536  13.983  0.00  0.00    +0.000 A 
ATOM     16  N   UNL     1       7.278   5.579  14.843  0.00  0.00    +0.000 N 
ATOM     17  H   UNL     1       8.016   6.270  14.805  0.00  0.00    +0.000 HD
ENDBRANCH  11  12
BRANCH  11  18
ATOM     18  C   UNL     1       7.638   6.780  17.541  0.00  0.00    +0.000 C 
ATOM     19  C   UNL     1       7.914   8.280  17.715  0.00  0.00    +0.000 C 
ATOM     20  C   UNL     1       7.797   6.092  18.905  0.00  0.00    +0.000 C 
ENDBRANCH  11  18
ENDBRANCH   3  11
TORSDOF 4
ENDMDL
MODEL 5
REMARK VINA RESULT:      -6.7      3.176      5.853
REMARK  Name = 
REMARK  7 active torsions:
REMARK  status: ('A' for Active; 'I' for Inactive)
REMARK    1  A    between atoms: C_1  and  C_2
REMARK    2  A    between atoms: C_4  and  C_5
REMARK    3  A    between atoms: N_7  and  C_8
REMARK    4  A    between atoms: C_8  and  C_9
REMARK    5  A    between atoms: C_8  and  C_14
REMARK    6  A    between atoms: C_14  and  C_15
REMARK    7  A    between atoms: C_14  and  C_16
REMARK                            x       y       z     vdW  Elec       q    Type
REMARK                         _______ _______ _______ _____ _____    ______ ____
ROOT
ATOM      1  C   UNL     1       6.399   5.174  16.219  0.00  0.00    +0.000 C 
ATOM      2  O   UNL     1       7.244   5.672  16.959  0.00  0.00    +0.000 OA
ATOM      3  N   UNL     1       5.116   4.889  16.638  0.00  0.00    +0.000 N 
ATOM      4  H   UNL     1       4.564   4.296  16.021  0.00  0.00    +0.000 HD
ENDROOT
BRANCH   1   8
ATOM      5  C   UNL     1       5.897   2.886  11.650  0.00  0.00    +0.000 C 
ATOM      6  C   UNL     1       6.397   3.708  12.781  0.00  0.00    +0.000 A 
ATOM      7  C   UNL     1       6.014   3.734  14.107  0.00  0.00    +0.000 A 
ATOM      8  C   UNL     1       6.680   4.792  14.821  0.00  0.00    +0.000 A 
ATOM      9  N   UNL     1       7.596   5.464  14.107  0.00  0.00    +0.000 NA
ATOM     10  S   UNL     1       7.627   4.873  12.560  0.00  0.00    +0.000 S 
ENDBRANCH   1   8
BRANCH   3  11
ATOM     11  C   UNL     1       4.665   5.088  18.003  0.00  0.00    +0.000 C 
BRANCH  11  12
ATOM     12  C   UNL     1       4.358   3.730  18.579  0.00  0.00    +0.000 A 
ATOM     13  N   UNL     1       3.406   2.891  18.212  0.00  0.00    +0.000 NA
ATOM     14  C   UNL     1       3.491   1.828  19.073  0.00  0.00    +0.000 A 
ATOM     15  C   UNL     1       4.526   2.003  19.958  0.00  0.00    +0.000 A 
ATOM     16  N   UNL     1       5.083   3.204  19.623  0.00  0.00    +0.000 N 
ATOM     17  H   UNL     1       5.889   3.644  20.050  0.00  0.00    +0.000 HD
ENDBRANCH  11  12
BRANCH  11  18
ATOM     18  C   UNL     1       3.446   6.043  18.061  0.00  0.00    +0.000 C 
ATOM     19  C   UNL     1       2.918   6.209  19.493  0.00  0.00    +0.000 C 
ATOM     20  C   UNL     1       3.792   7.430  17.503  0.00  0.00    +0.000 C 
ENDBRANCH  11  18
ENDBRANCH   3  11
TORSDOF 4
ENDMDL
MODEL 6
REMARK VINA RESULT:      -6.6      3.184      5.748
REMARK  Name = 
REMARK  7 active torsions:
REMARK  status: ('A' for Active; 'I' for Inactive)
REMARK    1  A    between atoms: C_1  and  C_2
REMARK    2  A    between atoms: C_4  and  C_5
REMARK    3  A    between atoms: N_7  and  C_8
REMARK    4  A    between atoms: C_8  and  C_9
REMARK    5  A    between atoms: C_8  and  C_14
REMARK    6  A    between atoms: C_14  and  C_15
REMARK    7  A    between atoms: C_14  and  C_16
REMARK                            x       y       z     vdW  Elec       q    Type
REMARK                         _______ _______ _______ _____ _____    ______ ____
ROOT
ATOM      1  C   UNL     1       6.574   5.165  16.250  0.00  0.00    +0.000 C 
ATOM      2  O   UNL     1       7.467   5.683  16.916  0.00  0.00    +0.000 OA
ATOM      3  N   UNL     1       5.336   4.856  16.774  0.00  0.00    +0.000 N 
ATOM      4  H   UNL     1       4.747   4.249  16.206  0.00  0.00    +0.000 HD
ENDROOT
BRANCH   1   8
ATOM      5  C   UNL     1       5.693   2.916  11.719  0.00  0.00    +0.000 C 
ATOM      6  C   UNL     1       6.292   3.720  12.815  0.00  0.00    +0.000 A 
ATOM      7  C   UNL     1       6.005   3.747  14.165  0.00  0.00    +0.000 A 
ATOM      8  C   UNL     1       6.746   4.785  14.834  0.00  0.00    +0.000 A 
ATOM      9  N   UNL     1       7.625   5.438  14.059  0.00  0.00    +0.000 NA
ATOM     10  S   UNL     1       7.531   4.855  12.512  0.00  0.00    +0.000 S 
ENDBRANCH   1   8
BRANCH   3  11
ATOM     11  C   UNL     1       4.997   5.049  18.172  0.00  0.00    +0.000 C 
BRANCH  11  12
ATOM     12  C   UNL     1       4.632   3.701  18.739  0.00  0.00    +0.000 A 
ATOM     13  N   UNL     1       4.738   3.294  19.991  0.00  0.00    +0.000 NA
ATOM     14  C   UNL     1       4.345   1.982  19.992  0.00  0.00    +0.000 A 
ATOM     15  C   UNL     1       3.964   1.588  18.732  0.00  0.00    +0.000 A 
ATOM     16  N   UNL     1       4.130   2.695  17.948  0.00  0.00    +0.000 N 
ATOM     17  H   UNL     1       3.923   2.779  16.961  0.00  0.00    +0.000 HD
ENDBRANCH  11  12
BRANCH  11  18
ATOM     18  C   UNL     1       3.857   6.086  18.337  0.00  0.00    +0.000 C 
ATOM     19  C   UNL     1       4.018   7.271  17.373  0.00  0.00    +0.000 C 
ATOM     20  C   UNL     1       2.480   5.448  18.101  0.00  0.00    +0.000 C 
ENDBRANCH  11  18
ENDBRANCH   3  11
TORSDOF 4
ENDMDL
MODEL 7
REMARK VINA RESULT:      -6.6      2.834      5.755
REMARK  Name = 
REMARK  7 active torsions:
REMARK  status: ('A' for Active; 'I' for Inactive)
REMARK    1  A    between atoms: C_1  and  C_2
REMARK    2  A    between atoms: C_4  and  C_5
REMARK    3  A    between atoms: N_7  and  C_8
REMARK    4  A    between atoms: C_8  and  C_9
REMARK    5  A    between atoms: C_8  and  C_14
REMARK    6  A    between atoms: C_14  and  C_15
REMARK    7  A    between atoms: C_14  and  C_16
REMARK                            x       y       z     vdW  Elec       q    Type
REMARK                         _______ _______ _______ _____ _____    ______ ____
ROOT
ATOM      1  C   UNL     1       5.598   4.869  17.198  0.00  0.00    +0.000 C 
ATOM      2  O   UNL     1       6.275   4.693  18.207  0.00  0.00    +0.000 OA
ATOM      3  N   UNL     1       4.265   5.220  17.247  0.00  0.00    +0.000 N 
ATOM      4  H   UNL     1       3.747   5.139  16.373  0.00  0.00    +0.000 HD
ENDROOT
BRANCH   1   8
ATOM      5  C   UNL     1       5.910   3.314  12.315  0.00  0.00    +0.000 C 
ATOM      6  C   UNL     1       6.208   3.932  13.632  0.00  0.00    +0.000 A 
ATOM      7  C   UNL     1       5.583   3.780  14.853  0.00  0.00    +0.000 A 
ATOM      8  C   UNL     1       6.128   4.685  15.833  0.00  0.00    +0.000 A 
ATOM      9  N   UNL     1       7.177   5.406  15.410  0.00  0.00    +0.000 NA
ATOM     10  S   UNL     1       7.484   5.050  13.822  0.00  0.00    +0.000 S 
ENDBRANCH   1   8
BRANCH   3  11
ATOM     11  C   UNL     1       3.523   5.347  18.488  0.00  0.00    +0.000 C 
BRANCH  11  12
ATOM     12  C   UNL     1       2.778   4.054  18.703  0.00  0.00    +0.000 A 
ATOM     13  N   UNL     1       3.236   2.935  19.235  0.00  0.00    +0.000 NA
ATOM     14  C   UNL     1       2.207   2.034  19.152  0.00  0.00    +0.000 A 
ATOM     15  C   UNL     1       1.096   2.616  18.592  0.00  0.00    +0.000 A 
ATOM     16  N   UNL     1       1.463   3.906  18.330  0.00  0.00    +0.000 N 
ATOM     17  H   UNL     1       0.884   4.636  17.936  0.00  0.00    +0.000 HD
ENDBRANCH  11  12
BRANCH  11  18
ATOM     18  C   UNL     1       2.577   6.574  18.456  0.00  0.00    +0.000 C 
ATOM     19  C   UNL     1       2.226   7.061  19.869  0.00  0.00    +0.000 C 
ATOM     20  C   UNL     1       3.200   7.742  17.677  0.00  0.00    +0.000 C 
ENDBRANCH  11  18
ENDBRANCH   3  11
TORSDOF 4
ENDMDL
MODEL 8
REMARK VINA RESULT:      -6.5      3.007      4.717
REMARK  Name = 
REMARK  7 active torsions:
REMARK  status: ('A' for Active; 'I' for Inactive)
REMARK    1  A    between atoms: C_1  and  C_2
REMARK    2  A    between atoms: C_4  and  C_5
REMARK    3  A    between atoms: N_7  and  C_8
REMARK    4  A    between atoms: C_8  and  C_9
REMARK    5  A    between atoms: C_8  and  C_14
REMARK    6  A    between atoms: C_14  and  C_15
REMARK    7  A    between atoms: C_14  and  C_16
REMARK                            x       y       z     vdW  Elec       q    Type
REMARK                         _______ _______ _______ _____ _____    ______ ____
ROOT
ATOM      1  C   UNL     1       2.621   5.777  20.031  0.00  0.00    +0.000 C 
ATOM      2  O   UNL     1       2.393   5.052  20.997  0.00  0.00    +0.000 OA
ATOM      3  N   UNL     1       3.486   5.419  19.019  0.00  0.00    +0.000 N 
ATOM      4  H   UNL     1       3.762   6.164  18.381  0.00  0.00    +0.000 HD
ENDROOT
BRANCH   1   8
ATOM      5  C   UNL     1       0.389  10.233  21.263  0.00  0.00    +0.000 C 
ATOM      6  C   UNL     1       1.000   9.110  20.508  0.00  0.00    +0.000 A 
ATOM      7  C   UNL     1       1.318   7.829  20.911  0.00  0.00    +0.000 A 
ATOM      8  C   UNL     1       2.026   7.118  19.877  0.00  0.00    +0.000 A 
ATOM      9  N   UNL     1       2.145   7.783  18.717  0.00  0.00    +0.000 NA
ATOM     10  S   UNL     1       1.462   9.284  18.873  0.00  0.00    +0.000 S 
ENDBRANCH   1   8
BRANCH   3  11
ATOM     11  C   UNL     1       4.256   4.189  19.031  0.00  0.00    +0.000 C 
BRANCH  11  12
ATOM     12  C   UNL     1       5.698   4.556  18.795  0.00  0.00    +0.000 A 
ATOM     13  N   UNL     1       6.479   5.301  19.558  0.00  0.00    +0.000 NA
ATOM     14  C   UNL     1       7.672   5.397  18.891  0.00  0.00    +0.000 A 
ATOM     15  C   UNL     1       7.633   4.678  17.721  0.00  0.00    +0.000 A 
ATOM     16  N   UNL     1       6.382   4.130  17.681  0.00  0.00    +0.000 N 
ATOM     17  H   UNL     1       6.008   3.515  16.969  0.00  0.00    +0.000 HD
ENDBRANCH  11  12
BRANCH  11  18
ATOM     18  C   UNL     1       3.725   3.181  17.979  0.00  0.00    +0.000 C 
ATOM     19  C   UNL     1       3.475   1.795  18.591  0.00  0.00    +0.000 C 
ATOM     20  C   UNL     1       2.421   3.675  17.338  0.00  0.00    +0.000 C 
ENDBRANCH  11  18
ENDBRANCH   3  11
TORSDOF 4
ENDMDL
MODEL 9
REMARK VINA RESULT:      -6.4      2.847      5.743
REMARK  Name = 
REMARK  7 active torsions:
REMARK  status: ('A' for Active; 'I' for Inactive)
REMARK    1  A    between atoms: C_1  and  C_2
REMARK    2  A    between atoms: C_4  and  C_5
REMARK    3  A    between atoms: N_7  and  C_8
REMARK    4  A    between atoms: C_8  and  C_9
REMARK    5  A    between atoms: C_8  and  C_14
REMARK    6  A    between atoms: C_14  and  C_15
REMARK    7  A    between atoms: C_14  and  C_16
REMARK                            x       y       z     vdW  Elec       q    Type
REMARK                         _______ _______ _______ _____ _____    ______ ____
ROOT
ATOM      1  C   UNL     1       5.981   5.644  16.862  0.00  0.00    +0.000 C 
ATOM      2  O   UNL     1       6.673   6.425  17.511  0.00  0.00    +0.000 OA
ATOM      3  N   UNL     1       4.784   5.145  17.329  0.00  0.00    +0.000 N 
ATOM      4  H   UNL     1       4.395   4.356  16.814  0.00  0.00    +0.000 HD
ENDROOT
BRANCH   1   8
ATOM      5  C   UNL     1       5.695   3.222  12.345  0.00  0.00    +0.000 C 
ATOM      6  C   UNL     1       6.181   3.999  13.513  0.00  0.00    +0.000 A 
ATOM      7  C   UNL     1       5.623   4.180  14.762  0.00  0.00    +0.000 A 
ATOM      8  C   UNL     1       6.379   5.130  15.537  0.00  0.00    +0.000 A 
ATOM      9  N   UNL     1       7.505   5.565  14.952  0.00  0.00    +0.000 NA
ATOM     10  S   UNL     1       7.639   4.885  13.447  0.00  0.00    +0.000 S 
ENDBRANCH   1   8
BRANCH   3  11
ATOM     11  C   UNL     1       4.263   5.440  18.651  0.00  0.00    +0.000 C 
BRANCH  11  12
ATOM     12  C   UNL     1       4.096   4.127  19.374  0.00  0.00    +0.000 A 
ATOM     13  N   UNL     1       3.147   3.789  20.228  0.00  0.00    +0.000 NA
ATOM     14  C   UNL     1       3.464   2.527  20.658  0.00  0.00    +0.000 A 
ATOM     15  C   UNL     1       4.603   2.075  20.038  0.00  0.00    +0.000 A 
ATOM     16  N   UNL     1       4.985   3.091  19.209  0.00  0.00    +0.000 N 
ATOM     17  H   UNL     1       5.774   3.098  18.575  0.00  0.00    +0.000 HD
ENDBRANCH  11  12
BRANCH  11  18
ATOM     18  C   UNL     1       2.938   6.241  18.570  0.00  0.00    +0.000 C 
ATOM     19  C   UNL     1       3.132   7.595  17.874  0.00  0.00    +0.000 C 
ATOM     20  C   UNL     1       1.854   5.456  17.819  0.00  0.00    +0.000 C 
ENDBRANCH  11  18
ENDBRANCH   3  11
TORSDOF 4
ENDMDL
