MODEL 1
REMARK VINA RESULT:      -8.0      0.000      0.000
REMARK  Name = 
REMARK  7 active torsions:
REMARK  status: ('A' for Active; 'I' for Inactive)
REMARK    1  A    between atoms: C_1  and  C_2
REMARK    2  A    between atoms: N_4  and  C_5
REMARK    3  A    between atoms: C_11  and  C_12
REMARK    4  A    between atoms: C_13  and  C_14
REMARK    5  A    between atoms: N_16  and  C_17
REMARK    6  A    between atoms: C_17  and  C_18
REMARK    7  A    between atoms: C_18  and  C_19
REMARK                            x       y       z     vdW  Elec       q    Type
REMARK                         _______ _______ _______ _____ _____    ______ ____
ROOT
ATOM      1  C   UNL     1       5.601   5.091  14.494  0.00  0.00    +0.000 C 
ATOM      2  C   UNL     1       5.230   4.970  15.928  0.00  0.00    +0.000 A 
ATOM      3  N   UNL     1       4.184   4.197  16.250  0.00  0.00    +0.000 NA
ATOM      4  N   UNL     1       3.999   4.381  17.580  0.00  0.00    +0.000 N 
ATOM      5  C   UNL     1       5.050   5.093  18.130  0.00  0.00    +0.000 A 
ATOM      6  C   UNL     1       5.303   5.248  19.595  0.00  0.00    +0.000 C 
ATOM      7  C   UNL     1       5.844   5.547  17.075  0.00  0.00    +0.000 A 
ENDROOT
BRANCH   4   8
ATOM      8  C   UNL     1       2.857   3.835  18.236  0.00  0.00    +0.000 A 
ATOM      9  C   UNL     1       2.562   2.472  18.109  0.00  0.00    +0.000 A 
ATOM     10  C   UNL     1       1.527   1.912  18.871  0.00  0.00    +0.000 A 
ATOM     11  C   UNL     1       0.770   2.713  19.724  0.00  0.00    +0.000 A 
ATOM     12  C   UNL     1       1.008   4.082  19.795  0.00  0.00    +0.000 A 
ATOM     13  C   UNL     1       2.039   4.643  19.039  0.00  0.00    +0.000 A 
ENDBRANCH   4   8
BRANCH   7  14
ATOM     14  C   UNL     1       7.020   6.397  17.279  0.00  0.00    +0.000 C 
ATOM     15  O   UNL     1       8.137   5.912  17.455  0.00  0.00    +0.000 OA
ATOM     16  N   UNL     1       6.860   7.768  17.263  0.00  0.00    +0.000 N 
ATOM     17  H   UNL     1       5.978   8.189  17.023  0.00  0.00    +0.000 HD
BRANCH  16  18
ATOM     18  C   UNL     1       8.049   8.596  17.399  0.00  0.00    +0.000 C 
BRANCH  18  19
ATOM     19  C   UNL     1       8.504   8.802  18.840  0.00  0.00    +0.000 C 
BRANCH  19  20
ATOM     20  C   UNL     1       9.190  10.140  19.011  0.00  0.00    +0.000 A 
ATOM     21  C   UNL     1       9.559  10.899  17.891  0.00  0.00    +0.000 A 
ATOM     22  C   UNL     1      10.221  12.119  18.046  0.00  0.00    +0.000 A 
ATOM     23  C   UNL     1      10.524  12.586  19.323  0.00  0.00    +0.000 A 
ATOM     24 CL   UNL     1      11.341  14.088  19.514  0.00  0.00    +0.000 Cl
ATOM     25  C   UNL     1      10.172  11.840  20.446  0.00  0.00    +0.000 A 
ATOM     26  C   UNL     1       9.509  10.619  20.290  0.00  0.00    +0.000 A 
ENDBRANCH  19  20
ENDBRANCH  18  19
ENDBRANCH  16  18
ENDBRANCH   7  14
TORSDOF 5
ENDMDL
MODEL 2
REMARK VINA RESULT:      -7.7      1.668      2.030
REMARK  Name = 
REMARK  7 active torsions:
REMARK  status: ('A' for Active; 'I' for Inactive)
REMARK    1  A    between atoms: C_1  and  C_2
REMARK    2  A    between atoms: N_4  and  C_5
REMARK    3  A    between atoms: C_11  and  C_12
REMARK    4  A    between atoms: C_13  and  C_14
REMARK    5  A    between atoms: N_16  and  C_17
REMARK    6  A    between atoms: C_17  and  C_18
REMARK    7  A    between atoms: C_18  and  C_19
REMARK                            x       y       z     vdW  Elec       q    Type
REMARK                         _______ _______ _______ _____ _____    ______ ____
ROOT
ATOM      1  C   UNL     1       7.966   4.301  18.008  0.00  0.00    +0.000 C 
ATOM      2  C   UNL     1       6.578   4.811  18.166  0.00  0.00    +0.000 A 
ATOM      3  N   UNL     1       5.645   3.974  18.640  0.00  0.00    +0.000 NA
ATOM      4  N   UNL     1       4.477   4.653  18.550  0.00  0.00    +0.000 N 
ATOM      5  C   UNL     1       4.702   5.980  18.227  0.00  0.00    +0.000 A 
ATOM      6  C   UNL     1       3.674   7.064  18.303  0.00  0.00    +0.000 C 
ATOM      7  C   UNL     1       6.055   6.109  17.910  0.00  0.00    +0.000 A 
ENDROOT
BRANCH   4   8
ATOM      8  C   UNL     1       3.236   4.002  18.814  0.00  0.00    +0.000 A 
ATOM      9  C   UNL     1       2.760   3.020  17.937  0.00  0.00    +0.000 A 
ATOM     10  C   UNL     1       1.618   2.282  18.275  0.00  0.00    +0.000 A 
ATOM     11  C   UNL     1       0.936   2.546  19.461  0.00  0.00    +0.000 A 
ATOM     12  C   UNL     1       1.360   3.573  20.299  0.00  0.00    +0.000 A 
ATOM     13  C   UNL     1       2.498   4.310  19.967  0.00  0.00    +0.000 A 
ENDBRANCH   4   8
BRANCH   7  14
ATOM     14  C   UNL     1       6.644   7.371  17.455  0.00  0.00    +0.000 C 
ATOM     15  O   UNL     1       6.177   7.987  16.498  0.00  0.00    +0.000 OA
ATOM     16  N   UNL     1       7.743   7.872  18.125  0.00  0.00    +0.000 N 
ATOM     17  H   UNL     1       8.082   7.440  18.968  0.00  0.00    +0.000 HD
BRANCH  16  18
ATOM     18  C   UNL     1       8.272   9.159  17.702  0.00  0.00    +0.000 C 
BRANCH  18  19
ATOM     19  C   UNL     1       9.165   9.836  18.738  0.00  0.00    +0.000 C 
BRANCH  19  20
ATOM     20  C   UNL     1       9.710  11.147  18.217  0.00  0.00    +0.000 A 
ATOM     21  C   UNL     1      11.093  11.369  18.153  0.00  0.00    +0.000 A 
ATOM     22  C   UNL     1      11.598  12.591  17.704  0.00  0.00    +0.000 A 
ATOM     23  C   UNL     1      10.723  13.603  17.319  0.00  0.00    +0.000 A 
ATOM     24 CL   UNL     1      11.345  15.108  16.765  0.00  0.00    +0.000 Cl
ATOM     25  C   UNL     1       9.345  13.402  17.384  0.00  0.00    +0.000 A 
ATOM     26  C   UNL     1       8.840  12.179  17.834  0.00  0.00    +0.000 A 
ENDBRANCH  19  20
ENDBRANCH  18  19
ENDBRANCH  16  18
ENDBRANCH   7  14
TORSDOF 5
ENDMDL
MODEL 3
REMARK VINA RESULT:      -7.7      1.774      2.720
REMARK  Name = 
REMARK  7 active torsions:
REMARK  status: ('A' for Active; 'I' for Inactive)
REMARK    1  A    between atoms: C_1  and  C_2
REMARK    2  A    between atoms: N_4  and  C_5
REMARK    3  A    between atoms: C_11  and  C_12
REMARK    4  A    between atoms: C_13  and  C_14
REMARK    5  A    between atoms: N_16  and  C_17
REMARK    6  A    between atoms: C_17  and  C_18
REMARK    7  A    between atoms: C_18  and  C_19
REMARK                            x       y       z     vdW  Elec       q    Type
REMARK                         _______ _______ _______ _____ _____    ______ ____
ROOT
ATOM      1  C   UNL     1       8.394   5.239  20.133  0.00  0.00    +0.000 C 
ATOM      2  C   UNL     1       7.127   5.466  19.390  0.00  0.00    +0.000 A 
ATOM      3  N   UNL     1       6.082   4.672  19.659  0.00  0.00    +0.000 NA
ATOM      4  N   UNL     1       5.131   5.013  18.757  0.00  0.00    +0.000 N 
ATOM      5  C   UNL     1       5.494   6.158  18.068  0.00  0.00    +0.000 A 
ATOM      6  C   UNL     1       4.578   6.957  17.196  0.00  0.00    +0.000 C 
ATOM      7  C   UNL     1       6.815   6.450  18.410  0.00  0.00    +0.000 A 
ENDROOT
BRANCH   4   8
ATOM      8  C   UNL     1       3.932   4.250  18.641  0.00  0.00    +0.000 A 
ATOM      9  C   UNL     1       2.904   4.416  19.577  0.00  0.00    +0.000 A 
ATOM     10  C   UNL     1       1.674   3.775  19.378  0.00  0.00    +0.000 A 
ATOM     11  C   UNL     1       1.484   2.946  18.274  0.00  0.00    +0.000 A 
ATOM     12  C   UNL     1       2.528   2.716  17.383  0.00  0.00    +0.000 A 
ATOM     13  C   UNL     1       3.755   3.354  17.577  0.00  0.00    +0.000 A 
ENDBRANCH   4   8
BRANCH   7  14
ATOM     14  C   UNL     1       7.558   7.565  17.818  0.00  0.00    +0.000 C 
ATOM     15  O   UNL     1       7.659   7.691  16.598  0.00  0.00    +0.000 OA
ATOM     16  N   UNL     1       8.146   8.493  18.656  0.00  0.00    +0.000 N 
ATOM     17  H   UNL     1       7.994   8.468  19.650  0.00  0.00    +0.000 HD
BRANCH  16  18
ATOM     18  C   UNL     1       8.820   9.630  18.050  0.00  0.00    +0.000 C 
BRANCH  18  19
ATOM     19  C   UNL     1       9.533  10.536  19.049  0.00  0.00    +0.000 C 
BRANCH  19  20
ATOM     20  C   UNL     1       9.905  11.860  18.418  0.00  0.00    +0.000 A 
ATOM     21  C   UNL     1      11.066  11.976  17.640  0.00  0.00    +0.000 A 
ATOM     22  C   UNL     1      11.430  13.205  17.084  0.00  0.00    +0.000 A 
ATOM     23  C   UNL     1      10.637  14.328  17.306  0.00  0.00    +0.000 A 
ATOM     24 CL   UNL     1      11.085  15.841  16.621  0.00  0.00    +0.000 Cl
ATOM     25  C   UNL     1       9.484  14.231  18.083  0.00  0.00    +0.000 A 
ATOM     26  C   UNL     1       9.121  13.001  18.640  0.00  0.00    +0.000 A 
ENDBRANCH  19  20
ENDBRANCH  18  19
ENDBRANCH  16  18
ENDBRANCH   7  14
TORSDOF 5
ENDMDL
MODEL 4
REMARK VINA RESULT:      -7.6      5.885      8.489
REMARK  Name = 
REMARK  7 active torsions:
REMARK  status: ('A' for Active; 'I' for Inactive)
REMARK    1  A    between atoms: C_1  and  C_2
REMARK    2  A    between atoms: N_4  and  C_5
REMARK    3  A    between atoms: C_11  and  C_12
REMARK    4  A    between atoms: C_13  and  C_14
REMARK    5  A    between atoms: N_16  and  C_17
REMARK    6  A    between atoms: C_17  and  C_18
REMARK    7  A    between atoms: C_18  and  C_19
REMARK                            x       y       z     vdW  Elec       q    Type
REMARK                         _______ _______ _______ _____ _____    ______ ____
ROOT
ATOM      1  C   UNL     1       1.996   4.353  21.223  0.00  0.00    +0.000 C 
ATOM      2  C   UNL     1       2.657   5.033  20.078  0.00  0.00    +0.000 A 
ATOM      3  N   UNL     1       3.450   4.305  19.280  0.00  0.00    +0.000 NA
ATOM      4  N   UNL     1       4.010   5.195  18.425  0.00  0.00    +0.000 N 
ATOM      5  C   UNL     1       3.412   6.437  18.544  0.00  0.00    +0.000 A 
ATOM      6  C   UNL     1       3.596   7.570  17.586  0.00  0.00    +0.000 C 
ATOM      7  C   UNL     1       2.565   6.387  19.652  0.00  0.00    +0.000 A 
ENDROOT
BRANCH   4   8
ATOM      8  C   UNL     1       5.047   4.791  17.533  0.00  0.00    +0.000 A 
ATOM      9  C   UNL     1       4.726   4.327  16.252  0.00  0.00    +0.000 A 
ATOM     10  C   UNL     1       5.750   4.070  15.329  0.00  0.00    +0.000 A 
ATOM     11  C   UNL     1       7.084   4.240  15.696  0.00  0.00    +0.000 A 
ATOM     12  C   UNL     1       7.410   4.625  16.993  0.00  0.00    +0.000 A 
ATOM     13  C   UNL     1       6.394   4.883  17.913  0.00  0.00    +0.000 A 
ENDBRANCH   4   8
BRANCH   7  14
ATOM     14  C   UNL     1       1.809   7.551  20.123  0.00  0.00    +0.000 C 
ATOM     15  O   UNL     1       1.444   7.647  21.295  0.00  0.00    +0.000 OA
ATOM     16  N   UNL     1       1.511   8.558  19.227  0.00  0.00    +0.000 N 
ATOM     17  H   UNL     1       1.882   8.551  18.291  0.00  0.00    +0.000 HD
BRANCH  16  18
ATOM     18  C   UNL     1       0.820   9.737  19.727  0.00  0.00    +0.000 C 
BRANCH  18  19
ATOM     19  C   UNL     1       0.515  10.781  18.657  0.00  0.00    +0.000 C 
BRANCH  19  20
ATOM     20  C   UNL     1      -0.971  10.867  18.386  0.00  0.00    +0.000 A 
ATOM     21  C   UNL     1      -1.770  11.784  19.085  0.00  0.00    +0.000 A 
ATOM     22  C   UNL     1      -3.148  11.843  18.860  0.00  0.00    +0.000 A 
ATOM     23  C   UNL     1      -3.737  10.982  17.938  0.00  0.00    +0.000 A 
ATOM     24 CL   UNL     1      -5.433  11.054  17.661  0.00  0.00    +0.000 Cl
ATOM     25  C   UNL     1      -2.958  10.060  17.241  0.00  0.00    +0.000 A 
ATOM     26  C   UNL     1      -1.580  10.000  17.467  0.00  0.00    +0.000 A 
ENDBRANCH  19  20
ENDBRANCH  18  19
ENDBRANCH  16  18
ENDBRANCH   7  14
TORSDOF 5
ENDMDL
MODEL 5
REMARK VINA RESULT:      -7.6      0.710      1.218
REMARK  Name = 
REMARK  7 active torsions:
REMARK  status: ('A' for Active; 'I' for Inactive)
REMARK    1  A    between atoms: C_1  and  C_2
REMARK    2  A    between atoms: N_4  and  C_5
REMARK    3  A    between atoms: C_11  and  C_12
REMARK    4  A    between atoms: C_13  and  C_14
REMARK    5  A    between atoms: N_16  and  C_17
REMARK    6  A    between atoms: C_17  and  C_18
REMARK    7  A    between atoms: C_18  and  C_19
REMARK                            x       y       z     vdW  Elec       q    Type
REMARK                         _______ _______ _______ _____ _____    ______ ____
ROOT
ATOM      1  C   UNL     1       5.248   4.688  14.491  0.00  0.00    +0.000 C 
ATOM      2  C   UNL     1       5.005   4.698  15.958  0.00  0.00    +0.000 A 
ATOM      3  N   UNL     1       3.995   3.962  16.440  0.00  0.00    +0.000 NA
ATOM      4  N   UNL     1       3.928   4.266  17.759  0.00  0.00    +0.000 N 
ATOM      5  C   UNL     1       5.021   5.020  18.147  0.00  0.00    +0.000 A 
ATOM      6  C   UNL     1       5.403   5.306  19.564  0.00  0.00    +0.000 C 
ATOM      7  C   UNL     1       5.716   5.373  16.989  0.00  0.00    +0.000 A 
ENDROOT
BRANCH   4   8
ATOM      8  C   UNL     1       2.851   3.787  18.560  0.00  0.00    +0.000 A 
ATOM      9  C   UNL     1       2.405   4.537  19.655  0.00  0.00    +0.000 A 
ATOM     10  C   UNL     1       1.256   4.137  20.351  0.00  0.00    +0.000 A 
ATOM     11  C   UNL     1       0.579   2.977  19.979  0.00  0.00    +0.000 A 
ATOM     12  C   UNL     1       1.062   2.186  18.941  0.00  0.00    +0.000 A 
ATOM     13  C   UNL     1       2.205   2.582  18.245  0.00  0.00    +0.000 A 
ENDBRANCH   4   8
BRANCH   7  14
ATOM     14  C   UNL     1       6.903   6.233  17.010  0.00  0.00    +0.000 C 
ATOM     15  O   UNL     1       7.782   6.133  16.154  0.00  0.00    +0.000 OA
ATOM     16  N   UNL     1       7.024   7.176  18.012  0.00  0.00    +0.000 N 
ATOM     17  H   UNL     1       6.276   7.344  18.664  0.00  0.00    +0.000 HD
BRANCH  16  18
ATOM     18  C   UNL     1       8.174   8.066  17.977  0.00  0.00    +0.000 C 
BRANCH  18  19
ATOM     19  C   UNL     1       7.858   9.474  17.484  0.00  0.00    +0.000 C 
BRANCH  19  20
ATOM     20  C   UNL     1       8.639  10.514  18.257  0.00  0.00    +0.000 A 
ATOM     21  C   UNL     1       8.765  11.821  17.765  0.00  0.00    +0.000 A 
ATOM     22  C   UNL     1       9.513  12.773  18.461  0.00  0.00    +0.000 A 
ATOM     23  C   UNL     1      10.146  12.424  19.652  0.00  0.00    +0.000 A 
ATOM     24 CL   UNL     1      11.068  13.596  20.508  0.00  0.00    +0.000 Cl
ATOM     25  C   UNL     1      10.037  11.126  20.150  0.00  0.00    +0.000 A 
ATOM     26  C   UNL     1       9.288  10.173  19.453  0.00  0.00    +0.000 A 
ENDBRANCH  19  20
ENDBRANCH  18  19
ENDBRANCH  16  18
ENDBRANCH   7  14
TORSDOF 5
ENDMDL
MODEL 6
REMARK VINA RESULT:      -7.6      0.982      1.105
REMARK  Name = 
REMARK  7 active torsions:
REMARK  status: ('A' for Active; 'I' for Inactive)
REMARK    1  A    between atoms: C_1  and  C_2
REMARK    2  A    between atoms: N_4  and  C_5
REMARK    3  A    between atoms: C_11  and  C_12
REMARK    4  A    between atoms: C_13  and  C_14
REMARK    5  A    between atoms: N_16  and  C_17
REMARK    6  A    between atoms: C_17  and  C_18
REMARK    7  A    between atoms: C_18  and  C_19
REMARK                            x       y       z     vdW  Elec       q    Type
REMARK                         _______ _______ _______ _____ _____    ______ ____
ROOT
ATOM      1  C   UNL     1       6.920   5.201  14.875  0.00  0.00    +0.000 C 
ATOM      2  C   UNL     1       6.182   5.015  16.152  0.00  0.00    +0.000 A 
ATOM      3  N   UNL     1       5.164   4.144  16.176  0.00  0.00    +0.000 NA
ATOM      4  N   UNL     1       4.605   4.281  17.403  0.00  0.00    +0.000 N 
ATOM      5  C   UNL     1       5.395   5.073  18.219  0.00  0.00    +0.000 A 
ATOM      6  C   UNL     1       5.221   5.217  19.697  0.00  0.00    +0.000 C 
ATOM      7  C   UNL     1       6.402   5.619  17.422  0.00  0.00    +0.000 A 
ENDROOT
BRANCH   4   8
ATOM      8  C   UNL     1       3.383   3.621  17.721  0.00  0.00    +0.000 A 
ATOM      9  C   UNL     1       3.384   2.253  18.019  0.00  0.00    +0.000 A 
ATOM     10  C   UNL     1       2.207   1.640  18.473  0.00  0.00    +0.000 A 
ATOM     11  C   UNL     1       1.032   2.379  18.593  0.00  0.00    +0.000 A 
ATOM     12  C   UNL     1       1.007   3.721  18.224  0.00  0.00    +0.000 A 
ATOM     13  C   UNL     1       2.177   4.334  17.773  0.00  0.00    +0.000 A 
ENDBRANCH   4   8
BRANCH   7  14
ATOM     14  C   UNL     1       7.394   6.566  17.938  0.00  0.00    +0.000 C 
ATOM     15  O   UNL     1       8.396   6.180  18.539  0.00  0.00    +0.000 OA
ATOM     16  N   UNL     1       7.192   7.917  17.735  0.00  0.00    +0.000 N 
ATOM     17  H   UNL     1       6.434   8.252  17.163  0.00  0.00    +0.000 HD
BRANCH  16  18
ATOM     18  C   UNL     1       8.220   8.839  18.194  0.00  0.00    +0.000 C 
BRANCH  18  19
ATOM     19  C   UNL     1       8.238  10.172  17.454  0.00  0.00    +0.000 C 
BRANCH  19  20
ATOM     20  C   UNL     1       8.979  11.227  18.244  0.00  0.00    +0.000 A 
ATOM     21  C   UNL     1       8.856  12.584  17.912  0.00  0.00    +0.000 A 
ATOM     22  C   UNL     1       9.566  13.557  18.619  0.00  0.00    +0.000 A 
ATOM     23  C   UNL     1      10.407  13.180  19.663  0.00  0.00    +0.000 A 
ATOM     24 CL   UNL     1      11.282  14.378  20.534  0.00  0.00    +0.000 Cl
ATOM     25  C   UNL     1      10.547  11.835  20.001  0.00  0.00    +0.000 A 
ATOM     26  C   UNL     1       9.838  10.861  19.292  0.00  0.00    +0.000 A 
ENDBRANCH  19  20
ENDBRANCH  18  19
ENDBRANCH  16  18
ENDBRANCH   7  14
TORSDOF 5
ENDMDL
MODEL 7
REMARK VINA RESULT:      -7.5      1.859      2.662
REMARK  Name = 
REMARK  7 active torsions:
REMARK  status: ('A' for Active; 'I' for Inactive)
REMARK    1  A    between atoms: C_1  and  C_2
REMARK    2  A    between atoms: N_4  and  C_5
REMARK    3  A    between atoms: C_11  and  C_12
REMARK    4  A    between atoms: C_13  and  C_14
REMARK    5  A    between atoms: N_16  and  C_17
REMARK    6  A    between atoms: C_17  and  C_18
REMARK    7  A    between atoms: C_18  and  C_19
REMARK                            x       y       z     vdW  Elec       q    Type
REMARK                         _______ _______ _______ _____ _____    ______ ____
ROOT
ATOM      1  C   UNL     1       8.169   5.297  20.118  0.00  0.00    +0.000 C 
ATOM      2  C   UNL     1       6.946   5.465  19.289  0.00  0.00    +0.000 A 
ATOM      3  N   UNL     1       5.874   4.717  19.582  0.00  0.00    +0.000 NA
ATOM      4  N   UNL     1       4.978   4.977  18.600  0.00  0.00    +0.000 N 
ATOM      5  C   UNL     1       5.397   6.039  17.818  0.00  0.00    +0.000 A 
ATOM      6  C   UNL     1       4.544   6.756  16.821  0.00  0.00    +0.000 C 
ATOM      7  C   UNL     1       6.704   6.346  18.199  0.00  0.00    +0.000 A 
ENDROOT
BRANCH   4   8
ATOM      8  C   UNL     1       3.772   4.223  18.499  0.00  0.00    +0.000 A 
ATOM      9  C   UNL     1       3.746   3.041  17.748  0.00  0.00    +0.000 A 
ATOM     10  C   UNL     1       2.604   2.229  17.771  0.00  0.00    +0.000 A 
ATOM     11  C   UNL     1       1.484   2.611  18.507  0.00  0.00    +0.000 A 
ATOM     12  C   UNL     1       1.477   3.823  19.193  0.00  0.00    +0.000 A 
ATOM     13  C   UNL     1       2.613   4.634  19.174  0.00  0.00    +0.000 A 
ENDBRANCH   4   8
BRANCH   7  14
ATOM     14  C   UNL     1       7.498   7.384  17.536  0.00  0.00    +0.000 C 
ATOM     15  O   UNL     1       7.967   7.212  16.411  0.00  0.00    +0.000 OA
ATOM     16  N   UNL     1       7.714   8.579  18.194  0.00  0.00    +0.000 N 
ATOM     17  H   UNL     1       7.261   8.782  19.070  0.00  0.00    +0.000 HD
BRANCH  16  18
ATOM     18  C   UNL     1       8.446   9.623  17.494  0.00  0.00    +0.000 C 
BRANCH  18  19
ATOM     19  C   UNL     1       9.369  10.444  18.388  0.00  0.00    +0.000 C 
BRANCH  19  20
ATOM     20  C   UNL     1       9.070  11.922  18.273  0.00  0.00    +0.000 A 
ATOM     21  C   UNL     1       9.852  12.862  18.961  0.00  0.00    +0.000 A 
ATOM     22  C   UNL     1       9.557  14.225  18.882  0.00  0.00    +0.000 A 
ATOM     23  C   UNL     1       8.476  14.659  18.119  0.00  0.00    +0.000 A 
ATOM     24 CL   UNL     1       8.113  16.337  18.022  0.00  0.00    +0.000 Cl
ATOM     25  C   UNL     1       7.684  13.736  17.436  0.00  0.00    +0.000 A 
ATOM     26  C   UNL     1       7.979  12.372  17.515  0.00  0.00    +0.000 A 
ENDBRANCH  19  20
ENDBRANCH  18  19
ENDBRANCH  16  18
ENDBRANCH   7  14
TORSDOF 5
ENDMDL
MODEL 8
REMARK VINA RESULT:      -7.5      3.731      6.148
REMARK  Name = 
REMARK  7 active torsions:
REMARK  status: ('A' for Active; 'I' for Inactive)
REMARK    1  A    between atoms: C_1  and  C_2
REMARK    2  A    between atoms: N_4  and  C_5
REMARK    3  A    between atoms: C_11  and  C_12
REMARK    4  A    between atoms: C_13  and  C_14
REMARK    5  A    between atoms: N_16  and  C_17
REMARK    6  A    between atoms: C_17  and  C_18
REMARK    7  A    between atoms: C_18  and  C_19
REMARK                            x       y       z     vdW  Elec       q    Type
REMARK                         _______ _______ _______ _____ _____    ______ ____
ROOT
ATOM      1  C   UNL     1       1.613   3.624  21.163  0.00  0.00    +0.000 C 
ATOM      2  C   UNL     1       1.824   4.911  20.449  0.00  0.00    +0.000 A 
ATOM      3  N   UNL     1       1.572   6.051  21.108  0.00  0.00    +0.000 NA
ATOM      4  N   UNL     1       1.717   7.035  20.188  0.00  0.00    +0.000 N 
ATOM      5  C   UNL     1       2.265   6.539  19.017  0.00  0.00    +0.000 A 
ATOM      6  C   UNL     1       2.800   7.378  17.901  0.00  0.00    +0.000 C 
ATOM      7  C   UNL     1       2.294   5.148  19.127  0.00  0.00    +0.000 A 
ENDROOT
BRANCH   4   8
ATOM      8  C   UNL     1       1.360   8.379  20.500  0.00  0.00    +0.000 A 
ATOM      9  C   UNL     1       1.265   9.333  19.480  0.00  0.00    +0.000 A 
ATOM     10  C   UNL     1       0.773  10.614  19.769  0.00  0.00    +0.000 A 
ATOM     11  C   UNL     1       0.414  10.950  21.074  0.00  0.00    +0.000 A 
ATOM     12  C   UNL     1       0.581  10.030  22.105  0.00  0.00    +0.000 A 
ATOM     13  C   UNL     1       1.069   8.754  21.820  0.00  0.00    +0.000 A 
ENDBRANCH   4   8
BRANCH   7  14
ATOM     14  C   UNL     1       2.754   4.278  18.042  0.00  0.00    +0.000 C 
ATOM     15  O   UNL     1       1.973   3.839  17.198  0.00  0.00    +0.000 OA
ATOM     16  N   UNL     1       4.095   3.956  17.970  0.00  0.00    +0.000 N 
ATOM     17  H   UNL     1       4.768   4.380  18.587  0.00  0.00    +0.000 HD
BRANCH  16  18
ATOM     18  C   UNL     1       4.545   3.147  16.847  0.00  0.00    +0.000 C 
BRANCH  18  19
ATOM     19  C   UNL     1       5.533   3.856  15.926  0.00  0.00    +0.000 C 
BRANCH  19  20
ATOM     20  C   UNL     1       6.255   4.970  16.652  0.00  0.00    +0.000 A 
ATOM     21  C   UNL     1       6.002   6.311  16.329  0.00  0.00    +0.000 A 
ATOM     22  C   UNL     1       6.691   7.340  16.974  0.00  0.00    +0.000 A 
ATOM     23  C   UNL     1       7.643   7.036  17.945  0.00  0.00    +0.000 A 
ATOM     24 CL   UNL     1       8.492   8.303  18.739  0.00  0.00    +0.000 Cl
ATOM     25  C   UNL     1       7.912   5.707  18.271  0.00  0.00    +0.000 A 
ATOM     26  C   UNL     1       7.222   4.677  17.625  0.00  0.00    +0.000 A 
ENDBRANCH  19  20
ENDBRANCH  18  19
ENDBRANCH  16  18
ENDBRANCH   7  14
TORSDOF 5
ENDMDL
MODEL 9
REMARK VINA RESULT:      -7.5      1.767      2.698
REMARK  Name = 
REMARK  7 active torsions:
REMARK  status: ('A' for Active; 'I' for Inactive)
REMARK    1  A    between atoms: C_1  and  C_2
REMARK    2  A    between atoms: N_4  and  C_5
REMARK    3  A    between atoms: C_11  and  C_12
REMARK    4  A    between atoms: C_13  and  C_14
REMARK    5  A    between atoms: N_16  and  C_17
REMARK    6  A    between atoms: C_17  and  C_18
REMARK    7  A    between atoms: C_18  and  C_19
REMARK                            x       y       z     vdW  Elec       q    Type
REMARK                         _______ _______ _______ _____ _____    ______ ____
ROOT
ATOM      1  C   UNL     1       8.360   5.260  20.212  0.00  0.00    +0.000 C 
ATOM      2  C   UNL     1       7.115   5.443  19.420  0.00  0.00    +0.000 A 
ATOM      3  N   UNL     1       6.050   4.692  19.730  0.00  0.00    +0.000 NA
ATOM      4  N   UNL     1       5.127   4.970  18.777  0.00  0.00    +0.000 N 
ATOM      5  C   UNL     1       5.528   6.045  18.002  0.00  0.00    +0.000 A 
ATOM      6  C   UNL     1       4.649   6.781  17.041  0.00  0.00    +0.000 C 
ATOM      7  C   UNL     1       6.845   6.344  18.352  0.00  0.00    +0.000 A 
ENDROOT
BRANCH   4   8
ATOM      8  C   UNL     1       3.918   4.220  18.697  0.00  0.00    +0.000 A 
ATOM      9  C   UNL     1       2.833   4.552  19.518  0.00  0.00    +0.000 A 
ATOM     10  C   UNL     1       1.601   3.909  19.334  0.00  0.00    +0.000 A 
ATOM     11  C   UNL     1       1.464   2.918  18.364  0.00  0.00    +0.000 A 
ATOM     12  C   UNL     1       2.559   2.530  17.598  0.00  0.00    +0.000 A 
ATOM     13  C   UNL     1       3.788   3.169  17.777  0.00  0.00    +0.000 A 
ENDBRANCH   4   8
BRANCH   7  14
ATOM     14  C   UNL     1       7.623   7.392  17.685  0.00  0.00    +0.000 C 
ATOM     15  O   UNL     1       7.886   7.328  16.484  0.00  0.00    +0.000 OA
ATOM     16  N   UNL     1       8.058   8.471  18.427  0.00  0.00    +0.000 N 
ATOM     17  H   UNL     1       7.773   8.596  19.385  0.00  0.00    +0.000 HD
BRANCH  16  18
ATOM     18  C   UNL     1       8.770   9.535  17.735  0.00  0.00    +0.000 C 
BRANCH  18  19
ATOM     19  C   UNL     1       8.137  10.914  17.894  0.00  0.00    +0.000 C 
BRANCH  19  20
ATOM     20  C   UNL     1       9.185  12.004  17.856  0.00  0.00    +0.000 A 
ATOM     21  C   UNL     1       8.815  13.352  17.974  0.00  0.00    +0.000 A 
ATOM     22  C   UNL     1       9.777  14.362  17.906  0.00  0.00    +0.000 A 
ATOM     23  C   UNL     1      11.116  14.032  17.714  0.00  0.00    +0.000 A 
ATOM     24 CL   UNL     1      12.301  15.277  17.629  0.00  0.00    +0.000 Cl
ATOM     25  C   UNL     1      11.499  12.698  17.587  0.00  0.00    +0.000 A 
ATOM     26  C   UNL     1      10.536  11.687  17.654  0.00  0.00    +0.000 A 
ENDBRANCH  19  20
ENDBRANCH  18  19
ENDBRANCH  16  18
ENDBRANCH   7  14
TORSDOF 5
ENDMDL
