MODEL 1
REMARK VINA RESULT:      -7.3      0.000      0.000
REMARK  Name = 
REMARK  8 active torsions:
REMARK  status: ('A' for Active; 'I' for Inactive)
REMARK    1  A    between atoms: C_1  and  C_2
REMARK    2  A    between atoms: C_7  and  O_8
REMARK    3  A    between atoms: C_9  and  C_10
REMARK    4  A    between atoms: C_10  and  N_11
REMARK    5  A    between atoms: N_11  and  C_12
REMARK    6  A    between atoms: C_12  and  C_13
REMARK    7  A    between atoms: C_12  and  C_14
REMARK    8  A    between atoms: C_12  and  C_15
REMARK                            x       y       z     vdW  Elec       q    Type
REMARK                         _______ _______ _______ _____ _____    ______ ____
ROOT
ATOM      1  C   UNL     1       4.685   2.965  11.238  0.00  0.00    +0.000 C 
ATOM      2  C   UNL     1       5.459   3.589  12.358  0.00  0.00    +0.000 A 
ATOM      3  C   UNL     1       6.714   4.160  12.146  0.00  0.00    +0.000 A 
ATOM      4  C   UNL     1       7.407   4.760  13.206  0.00  0.00    +0.000 A 
ATOM      5  C   UNL     1       6.880   4.801  14.490  0.00  0.00    +0.000 A 
ATOM      6  N   UNL     1       7.581   5.388  15.478  0.00  0.00    +0.000 NA
ATOM      7  C   UNL     1       7.035   5.369  16.708  0.00  0.00    +0.000 A 
ATOM      8  C   UNL     1       5.823   4.797  17.048  0.00  0.00    +0.000 A 
ATOM      9  C   UNL     1       5.096   4.226  16.004  0.00  0.00    +0.000 A 
ATOM     10  C   UNL     1       5.617   4.215  14.707  0.00  0.00    +0.000 A 
ATOM     11  C   UNL     1       4.911   3.629  13.643  0.00  0.00    +0.000 A 
ENDROOT
BRANCH   7  12
ATOM     12  O   UNL     1       7.813   5.990  17.629  0.00  0.00    +0.000 OA
ATOM     13  H   UNL     1       7.685   6.914  17.348  0.00  0.00    +0.000 HD
ENDBRANCH   7  12
BRANCH   8  14
ATOM     14  C   UNL     1       5.285   4.795  18.453  0.00  0.00    +0.000 C 
BRANCH  14  15
ATOM     15  N   UNL     1       5.135   3.424  18.956  0.00  0.00    +0.000 NA
ATOM     16  H   UNL     1       5.645   3.360  19.838  0.00  0.00    +0.000 HD
BRANCH  15  17
ATOM     17  C   UNL     1       3.747   2.973  19.171  0.00  0.00    +0.000 C 
ATOM     18  C   UNL     1       2.739   4.059  18.765  0.00  0.00    +0.000 C 
ATOM     19  C   UNL     1       3.529   1.750  18.255  0.00  0.00    +0.000 C 
ATOM     20  C   UNL     1       3.498   2.533  20.623  0.00  0.00    +0.000 C 
ENDBRANCH  15  17
ENDBRANCH  14  15
ENDBRANCH   8  14
TORSDOF 4
ENDMDL
MODEL 2
REMARK VINA RESULT:      -7.2      1.581      5.769
REMARK  Name = 
REMARK  8 active torsions:
REMARK  status: ('A' for Active; 'I' for Inactive)
REMARK    1  A    between atoms: C_1  and  C_2
REMARK    2  A    between atoms: C_7  and  O_8
REMARK    3  A    between atoms: C_9  and  C_10
REMARK    4  A    between atoms: C_10  and  N_11
REMARK    5  A    between atoms: N_11  and  C_12
REMARK    6  A    between atoms: C_12  and  C_13
REMARK    7  A    between atoms: C_12  and  C_14
REMARK    8  A    between atoms: C_12  and  C_15
REMARK                            x       y       z     vdW  Elec       q    Type
REMARK                         _______ _______ _______ _____ _____    ______ ____
ROOT
ATOM      1  C   UNL     1       0.997   2.984  18.837  0.00  0.00    +0.000 C 
ATOM      2  C   UNL     1       2.232   3.772  18.526  0.00  0.00    +0.000 A 
ATOM      3  C   UNL     1       2.708   4.754  19.396  0.00  0.00    +0.000 A 
ATOM      4  C   UNL     1       3.879   5.461  19.094  0.00  0.00    +0.000 A 
ATOM      5  C   UNL     1       4.595   5.219  17.929  0.00  0.00    +0.000 A 
ATOM      6  N   UNL     1       5.715   5.922  17.679  0.00  0.00    +0.000 NA
ATOM      7  C   UNL     1       6.349   5.667  16.519  0.00  0.00    +0.000 A 
ATOM      8  C   UNL     1       5.951   4.754  15.561  0.00  0.00    +0.000 A 
ATOM      9  C   UNL     1       4.808   4.010  15.855  0.00  0.00    +0.000 A 
ATOM     10  C   UNL     1       4.109   4.236  17.044  0.00  0.00    +0.000 A 
ATOM     11  C   UNL     1       2.945   3.511  17.353  0.00  0.00    +0.000 A 
ENDROOT
BRANCH   7  12
ATOM     12  O   UNL     1       7.467   6.420  16.365  0.00  0.00    +0.000 OA
ATOM     13  H   UNL     1       7.208   7.199  16.890  0.00  0.00    +0.000 HD
ENDBRANCH   7  12
BRANCH   8  14
ATOM     14  C   UNL     1       6.701   4.538  14.275  0.00  0.00    +0.000 C 
BRANCH  14  15
ATOM     15  N   UNL     1       6.331   3.257  13.660  0.00  0.00    +0.000 NA
ATOM     16  H   UNL     1       5.474   2.934  14.111  0.00  0.00    +0.000 HD
BRANCH  15  17
ATOM     17  C   UNL     1       6.123   3.288  12.199  0.00  0.00    +0.000 C 
ATOM     18  C   UNL     1       7.091   4.268  11.519  0.00  0.00    +0.000 C 
ATOM     19  C   UNL     1       6.430   1.870  11.675  0.00  0.00    +0.000 C 
ATOM     20  C   UNL     1       4.670   3.631  11.828  0.00  0.00    +0.000 C 
ENDBRANCH  15  17
ENDBRANCH  14  15
ENDBRANCH   8  14
TORSDOF 4
ENDMDL
MODEL 3
REMARK VINA RESULT:      -7.2      1.455      5.911
REMARK  Name = 
REMARK  8 active torsions:
REMARK  status: ('A' for Active; 'I' for Inactive)
REMARK    1  A    between atoms: C_1  and  C_2
REMARK    2  A    between atoms: C_7  and  O_8
REMARK    3  A    between atoms: C_9  and  C_10
REMARK    4  A    between atoms: C_10  and  N_11
REMARK    5  A    between atoms: N_11  and  C_12
REMARK    6  A    between atoms: C_12  and  C_13
REMARK    7  A    between atoms: C_12  and  C_14
REMARK    8  A    between atoms: C_12  and  C_15
REMARK                            x       y       z     vdW  Elec       q    Type
REMARK                         _______ _______ _______ _____ _____    ______ ____
ROOT
ATOM      1  C   UNL     1       0.708   2.832  19.047  0.00  0.00    +0.000 C 
ATOM      2  C   UNL     1       2.140   3.228  18.855  0.00  0.00    +0.000 A 
ATOM      3  C   UNL     1       2.979   3.479  19.942  0.00  0.00    +0.000 A 
ATOM      4  C   UNL     1       4.321   3.824  19.736  0.00  0.00    +0.000 A 
ATOM      5  C   UNL     1       4.856   3.935  18.459  0.00  0.00    +0.000 A 
ATOM      6  N   UNL     1       6.151   4.270  18.308  0.00  0.00    +0.000 NA
ATOM      7  C   UNL     1       6.606   4.394  17.047  0.00  0.00    +0.000 A 
ATOM      8  C   UNL     1       5.863   4.215  15.895  0.00  0.00    +0.000 A 
ATOM      9  C   UNL     1       4.532   3.834  16.074  0.00  0.00    +0.000 A 
ATOM     10  C   UNL     1       4.007   3.693  17.361  0.00  0.00    +0.000 A 
ATOM     11  C   UNL     1       2.666   3.328  17.564  0.00  0.00    +0.000 A 
ENDROOT
BRANCH   7  12
ATOM     12  O   UNL     1       7.920   4.726  17.002  0.00  0.00    +0.000 OA
ATOM     13  H   UNL     1       7.853   5.579  16.536  0.00  0.00    +0.000 HD
ENDBRANCH   7  12
BRANCH   8  14
ATOM     14  C   UNL     1       6.435   4.394  14.516  0.00  0.00    +0.000 C 
BRANCH  14  15
ATOM     15  N   UNL     1       6.284   3.168  13.722  0.00  0.00    +0.000 NA
ATOM     16  H   UNL     1       5.436   2.696  14.040  0.00  0.00    +0.000 HD
BRANCH  15  17
ATOM     17  C   UNL     1       6.207   3.361  12.261  0.00  0.00    +0.000 C 
ATOM     18  C   UNL     1       7.099   4.525  11.805  0.00  0.00    +0.000 C 
ATOM     19  C   UNL     1       6.739   2.066  11.612  0.00  0.00    +0.000 C 
ATOM     20  C   UNL     1       4.762   3.578  11.781  0.00  0.00    +0.000 C 
ENDBRANCH  15  17
ENDBRANCH  14  15
ENDBRANCH   8  14
TORSDOF 4
ENDMDL
MODEL 4
REMARK VINA RESULT:      -7.2      1.710      5.820
REMARK  Name = 
REMARK  8 active torsions:
REMARK  status: ('A' for Active; 'I' for Inactive)
REMARK    1  A    between atoms: C_1  and  C_2
REMARK    2  A    between atoms: C_7  and  O_8
REMARK    3  A    between atoms: C_9  and  C_10
REMARK    4  A    between atoms: C_10  and  N_11
REMARK    5  A    between atoms: N_11  and  C_12
REMARK    6  A    between atoms: C_12  and  C_13
REMARK    7  A    between atoms: C_12  and  C_14
REMARK    8  A    between atoms: C_12  and  C_15
REMARK                            x       y       z     vdW  Elec       q    Type
REMARK                         _______ _______ _______ _____ _____    ______ ____
ROOT
ATOM      1  C   UNL     1       0.804   2.790  18.722  0.00  0.00    +0.000 C 
ATOM      2  C   UNL     1       1.945   3.709  18.410  0.00  0.00    +0.000 A 
ATOM      3  C   UNL     1       2.170   4.869  19.152  0.00  0.00    +0.000 A 
ATOM      4  C   UNL     1       3.259   5.699  18.855  0.00  0.00    +0.000 A 
ATOM      5  C   UNL     1       4.139   5.405  17.821  0.00  0.00    +0.000 A 
ATOM      6  N   UNL     1       5.171   6.231  17.571  0.00  0.00    +0.000 NA
ATOM      7  C   UNL     1       5.971   5.913  16.537  0.00  0.00    +0.000 A 
ATOM      8  C   UNL     1       5.824   4.818  15.706  0.00  0.00    +0.000 A 
ATOM      9  C   UNL     1       4.768   3.955  16.003  0.00  0.00    +0.000 A 
ATOM     10  C   UNL     1       3.905   4.240  17.065  0.00  0.00    +0.000 A 
ATOM     11  C   UNL     1       2.825   3.395  17.371  0.00  0.00    +0.000 A 
ENDROOT
BRANCH   7  12
ATOM     12  O   UNL     1       6.983   6.801  16.373  0.00  0.00    +0.000 OA
ATOM     13  H   UNL     1       6.708   7.476  17.021  0.00  0.00    +0.000 HD
ENDBRANCH   7  12
BRANCH   8  14
ATOM     14  C   UNL     1       6.747   4.538  14.552  0.00  0.00    +0.000 C 
BRANCH  14  15
ATOM     15  N   UNL     1       6.347   3.314  13.845  0.00  0.00    +0.000 NA
ATOM     16  H   UNL     1       5.430   3.039  14.198  0.00  0.00    +0.000 HD
BRANCH  15  17
ATOM     17  C   UNL     1       6.283   3.421  12.374  0.00  0.00    +0.000 C 
ATOM     18  C   UNL     1       6.679   2.097  11.702  0.00  0.00    +0.000 C 
ATOM     19  C   UNL     1       4.813   3.721  12.013  0.00  0.00    +0.000 C 
ATOM     20  C   UNL     1       7.152   4.571  11.838  0.00  0.00    +0.000 C 
ENDBRANCH  15  17
ENDBRANCH  14  15
ENDBRANCH   8  14
TORSDOF 4
ENDMDL
MODEL 5
REMARK VINA RESULT:      -7.1      0.937      1.285
REMARK  Name = 
REMARK  8 active torsions:
REMARK  status: ('A' for Active; 'I' for Inactive)
REMARK    1  A    between atoms: C_1  and  C_2
REMARK    2  A    between atoms: C_7  and  O_8
REMARK    3  A    between atoms: C_9  and  C_10
REMARK    4  A    between atoms: C_10  and  N_11
REMARK    5  A    between atoms: N_11  and  C_12
REMARK    6  A    between atoms: C_12  and  C_13
REMARK    7  A    between atoms: C_12  and  C_14
REMARK    8  A    between atoms: C_12  and  C_15
REMARK                            x       y       z     vdW  Elec       q    Type
REMARK                         _______ _______ _______ _____ _____    ______ ____
ROOT
ATOM      1  C   UNL     1       5.244   2.826  11.519  0.00  0.00    +0.000 C 
ATOM      2  C   UNL     1       5.869   3.574  12.657  0.00  0.00    +0.000 A 
ATOM      3  C   UNL     1       7.026   4.334  12.480  0.00  0.00    +0.000 A 
ATOM      4  C   UNL     1       7.578   5.044  13.555  0.00  0.00    +0.000 A 
ATOM      5  C   UNL     1       7.004   5.013  14.820  0.00  0.00    +0.000 A 
ATOM      6  N   UNL     1       7.568   5.710  15.823  0.00  0.00    +0.000 NA
ATOM      7  C   UNL     1       6.987   5.616  17.034  0.00  0.00    +0.000 A 
ATOM      8  C   UNL     1       5.869   4.863  17.340  0.00  0.00    +0.000 A 
ATOM      9  C   UNL     1       5.279   4.175  16.278  0.00  0.00    +0.000 A 
ATOM     10  C   UNL     1       5.842   4.236  15.001  0.00  0.00    +0.000 A 
ATOM     11  C   UNL     1       5.275   3.538  13.921  0.00  0.00    +0.000 A 
ENDROOT
BRANCH   7  12
ATOM     12  O   UNL     1       7.624   6.358  17.972  0.00  0.00    +0.000 OA
ATOM     13  H   UNL     1       8.449   6.551  17.490  0.00  0.00    +0.000 HD
ENDBRANCH   7  12
BRANCH   8  14
ATOM     14  C   UNL     1       5.288   4.787  18.725  0.00  0.00    +0.000 C 
BRANCH  14  15
ATOM     15  N   UNL     1       4.021   5.526  18.804  0.00  0.00    +0.000 NA
ATOM     16  H   UNL     1       3.859   5.960  17.894  0.00  0.00    +0.000 HD
BRANCH  15  17
ATOM     17  C   UNL     1       2.838   4.723  19.170  0.00  0.00    +0.000 C 
ATOM     18  C   UNL     1       2.039   5.391  20.299  0.00  0.00    +0.000 C 
ATOM     19  C   UNL     1       1.937   4.660  17.918  0.00  0.00    +0.000 C 
ATOM     20  C   UNL     1       3.213   3.284  19.562  0.00  0.00    +0.000 C 
ENDBRANCH  15  17
ENDBRANCH  14  15
ENDBRANCH   8  14
TORSDOF 4
ENDMDL
MODEL 6
REMARK VINA RESULT:      -7.1      1.489      5.812
REMARK  Name = 
REMARK  8 active torsions:
REMARK  status: ('A' for Active; 'I' for Inactive)
REMARK    1  A    between atoms: C_1  and  C_2
REMARK    2  A    between atoms: C_7  and  O_8
REMARK    3  A    between atoms: C_9  and  C_10
REMARK    4  A    between atoms: C_10  and  N_11
REMARK    5  A    between atoms: N_11  and  C_12
REMARK    6  A    between atoms: C_12  and  C_13
REMARK    7  A    between atoms: C_12  and  C_14
REMARK    8  A    between atoms: C_12  and  C_15
REMARK                            x       y       z     vdW  Elec       q    Type
REMARK                         _______ _______ _______ _____ _____    ______ ____
ROOT
ATOM      1  C   UNL     1       1.201   2.641  18.997  0.00  0.00    +0.000 C 
ATOM      2  C   UNL     1       2.392   3.493  18.685  0.00  0.00    +0.000 A 
ATOM      3  C   UNL     1       2.874   4.433  19.597  0.00  0.00    +0.000 A 
ATOM      4  C   UNL     1       4.005   5.201  19.292  0.00  0.00    +0.000 A 
ATOM      5  C   UNL     1       4.675   5.061  18.083  0.00  0.00    +0.000 A 
ATOM      6  N   UNL     1       5.758   5.820  17.831  0.00  0.00    +0.000 NA
ATOM      7  C   UNL     1       6.346   5.665  16.631  0.00  0.00    +0.000 A 
ATOM      8  C   UNL     1       5.936   4.802  15.633  0.00  0.00    +0.000 A 
ATOM      9  C   UNL     1       4.833   3.999  15.927  0.00  0.00    +0.000 A 
ATOM     10  C   UNL     1       4.182   4.121  17.157  0.00  0.00    +0.000 A 
ATOM     11  C   UNL     1       3.059   3.335  17.468  0.00  0.00    +0.000 A 
ENDROOT
BRANCH   7  12
ATOM     12  O   UNL     1       7.429   6.467  16.478  0.00  0.00    +0.000 OA
ATOM     13  H   UNL     1       7.020   7.192  15.972  0.00  0.00    +0.000 HD
ENDBRANCH   7  12
BRANCH   8  14
ATOM     14  C   UNL     1       6.632   4.698  14.303  0.00  0.00    +0.000 C 
BRANCH  14  15
ATOM     15  N   UNL     1       6.443   3.367  13.713  0.00  0.00    +0.000 NA
ATOM     16  H   UNL     1       5.627   2.945  14.159  0.00  0.00    +0.000 HD
BRANCH  15  17
ATOM     17  C   UNL     1       6.258   3.340  12.250  0.00  0.00    +0.000 C 
ATOM     18  C   UNL     1       4.828   3.745  11.860  0.00  0.00    +0.000 C 
ATOM     19  C   UNL     1       7.230   4.382  11.659  0.00  0.00    +0.000 C 
ATOM     20  C   UNL     1       6.605   1.967  11.647  0.00  0.00    +0.000 C 
ENDBRANCH  15  17
ENDBRANCH  14  15
ENDBRANCH   8  14
TORSDOF 4
ENDMDL
MODEL 7
REMARK VINA RESULT:      -7.1      1.045      1.372
REMARK  Name = 
REMARK  8 active torsions:
REMARK  status: ('A' for Active; 'I' for Inactive)
REMARK    1  A    between atoms: C_1  and  C_2
REMARK    2  A    between atoms: C_7  and  O_8
REMARK    3  A    between atoms: C_9  and  C_10
REMARK    4  A    between atoms: C_10  and  N_11
REMARK    5  A    between atoms: N_11  and  C_12
REMARK    6  A    between atoms: C_12  and  C_13
REMARK    7  A    between atoms: C_12  and  C_14
REMARK    8  A    between atoms: C_12  and  C_15
REMARK                            x       y       z     vdW  Elec       q    Type
REMARK                         _______ _______ _______ _____ _____    ______ ____
ROOT
ATOM      1  C   UNL     1       5.226   2.760  11.503  0.00  0.00    +0.000 C 
ATOM      2  C   UNL     1       5.859   3.556  12.603  0.00  0.00    +0.000 A 
ATOM      3  C   UNL     1       7.074   4.217  12.417  0.00  0.00    +0.000 A 
ATOM      4  C   UNL     1       7.633   4.975  13.454  0.00  0.00    +0.000 A 
ATOM      5  C   UNL     1       7.010   5.090  14.690  0.00  0.00    +0.000 A 
ATOM      6  N   UNL     1       7.584   5.829  15.657  0.00  0.00    +0.000 NA
ATOM      7  C   UNL     1       6.951   5.877  16.844  0.00  0.00    +0.000 A 
ATOM      8  C   UNL     1       5.770   5.232  17.161  0.00  0.00    +0.000 A 
ATOM      9  C   UNL     1       5.174   4.500  16.133  0.00  0.00    +0.000 A 
ATOM     10  C   UNL     1       5.789   4.414  14.881  0.00  0.00    +0.000 A 
ATOM     11  C   UNL     1       5.216   3.668  13.838  0.00  0.00    +0.000 A 
ENDROOT
BRANCH   7  12
ATOM     12  O   UNL     1       7.603   6.651  17.747  0.00  0.00    +0.000 OA
ATOM     13  H   UNL     1       8.013   5.952  18.290  0.00  0.00    +0.000 HD
ENDBRANCH   7  12
BRANCH   8  14
ATOM     14  C   UNL     1       5.132   5.314  18.520  0.00  0.00    +0.000 C 
BRANCH  14  15
ATOM     15  N   UNL     1       3.747   5.791  18.422  0.00  0.00    +0.000 NA
ATOM     16  H   UNL     1       3.543   5.947  17.433  0.00  0.00    +0.000 HD
BRANCH  15  17
ATOM     17  C   UNL     1       2.722   4.894  18.988  0.00  0.00    +0.000 C 
ATOM     18  C   UNL     1       1.698   4.474  17.923  0.00  0.00    +0.000 C 
ATOM     19  C   UNL     1       3.458   3.627  19.472  0.00  0.00    +0.000 C 
ATOM     20  C   UNL     1       2.006   5.521  20.196  0.00  0.00    +0.000 C 
ENDBRANCH  15  17
ENDBRANCH  14  15
ENDBRANCH   8  14
TORSDOF 4
ENDMDL
MODEL 8
REMARK VINA RESULT:      -7.1      0.964      1.508
REMARK  Name = 
REMARK  8 active torsions:
REMARK  status: ('A' for Active; 'I' for Inactive)
REMARK    1  A    between atoms: C_1  and  C_2
REMARK    2  A    between atoms: C_7  and  O_8
REMARK    3  A    between atoms: C_9  and  C_10
REMARK    4  A    between atoms: C_10  and  N_11
REMARK    5  A    between atoms: N_11  and  C_12
REMARK    6  A    between atoms: C_12  and  C_13
REMARK    7  A    between atoms: C_12  and  C_14
REMARK    8  A    between atoms: C_12  and  C_15
REMARK                            x       y       z     vdW  Elec       q    Type
REMARK                         _______ _______ _______ _____ _____    ______ ____
ROOT
ATOM      1  C   UNL     1       5.386   2.752  11.459  0.00  0.00    +0.000 C 
ATOM      2  C   UNL     1       5.951   3.533  12.606  0.00  0.00    +0.000 A 
ATOM      3  C   UNL     1       7.104   4.305  12.462  0.00  0.00    +0.000 A 
ATOM      4  C   UNL     1       7.599   5.046  13.543  0.00  0.00    +0.000 A 
ATOM      5  C   UNL     1       6.972   5.034  14.783  0.00  0.00    +0.000 A 
ATOM      6  N   UNL     1       7.482   5.761  15.793  0.00  0.00    +0.000 NA
ATOM      7  C   UNL     1       6.851   5.685  16.980  0.00  0.00    +0.000 A 
ATOM      8  C   UNL     1       5.730   4.923  17.254  0.00  0.00    +0.000 A 
ATOM      9  C   UNL     1       5.196   4.204  16.184  0.00  0.00    +0.000 A 
ATOM     10  C   UNL     1       5.813   4.245  14.931  0.00  0.00    +0.000 A 
ATOM     11  C   UNL     1       5.303   3.516  13.844  0.00  0.00    +0.000 A 
ENDROOT
BRANCH   7  12
ATOM     12  O   UNL     1       7.436   6.457  17.928  0.00  0.00    +0.000 OA
ATOM     13  H   UNL     1       6.694   7.057  18.125  0.00  0.00    +0.000 HD
ENDBRANCH   7  12
BRANCH   8  14
ATOM     14  C   UNL     1       5.091   4.869  18.614  0.00  0.00    +0.000 C 
BRANCH  14  15
ATOM     15  N   UNL     1       4.104   3.784  18.688  0.00  0.00    +0.000 NA
ATOM     16  H   UNL     1       4.438   3.111  19.380  0.00  0.00    +0.000 HD
BRANCH  15  17
ATOM     17  C   UNL     1       2.731   4.194  19.040  0.00  0.00    +0.000 C 
ATOM     18  C   UNL     1       2.042   3.139  19.919  0.00  0.00    +0.000 C 
ATOM     19  C   UNL     1       2.852   5.496  19.859  0.00  0.00    +0.000 C 
ATOM     20  C   UNL     1       1.878   4.490  17.795  0.00  0.00    +0.000 C 
ENDBRANCH  15  17
ENDBRANCH  14  15
ENDBRANCH   8  14
TORSDOF 4
ENDMDL
MODEL 9
REMARK VINA RESULT:      -7.0      1.440      1.973
REMARK  Name = 
REMARK  8 active torsions:
REMARK  status: ('A' for Active; 'I' for Inactive)
REMARK    1  A    between atoms: C_1  and  C_2
REMARK    2  A    between atoms: C_7  and  O_8
REMARK    3  A    between atoms: C_9  and  C_10
REMARK    4  A    between atoms: C_10  and  N_11
REMARK    5  A    between atoms: N_11  and  C_12
REMARK    6  A    between atoms: C_12  and  C_13
REMARK    7  A    between atoms: C_12  and  C_14
REMARK    8  A    between atoms: C_12  and  C_15
REMARK                            x       y       z     vdW  Elec       q    Type
REMARK                         _______ _______ _______ _____ _____    ______ ____
ROOT
ATOM      1  C   UNL     1       5.711   3.553  12.251  0.00  0.00    +0.000 C 
ATOM      2  C   UNL     1       6.091   3.984  13.634  0.00  0.00    +0.000 A 
ATOM      3  C   UNL     1       7.230   4.754  13.870  0.00  0.00    +0.000 A 
ATOM      4  C   UNL     1       7.551   5.165  15.170  0.00  0.00    +0.000 A 
ATOM      5  C   UNL     1       6.760   4.819  16.259  0.00  0.00    +0.000 A 
ATOM      6  N   UNL     1       7.107   5.236  17.491  0.00  0.00    +0.000 NA
ATOM      7  C   UNL     1       6.322   4.843  18.511  0.00  0.00    +0.000 A 
ATOM      8  C   UNL     1       5.196   4.046  18.408  0.00  0.00    +0.000 A 
ATOM      9  C   UNL     1       4.835   3.654  17.118  0.00  0.00    +0.000 A 
ATOM     10  C   UNL     1       5.616   4.032  16.023  0.00  0.00    +0.000 A 
ATOM     11  C   UNL     1       5.281   3.634  14.718  0.00  0.00    +0.000 A 
ENDROOT
BRANCH   7  12
ATOM     12  O   UNL     1       6.749   5.319  19.706  0.00  0.00    +0.000 OA
ATOM     13  H   UNL     1       6.275   6.171  19.717  0.00  0.00    +0.000 HD
ENDBRANCH   7  12
BRANCH   8  14
ATOM     14  C   UNL     1       4.378   3.628  19.599  0.00  0.00    +0.000 C 
BRANCH  14  15
ATOM     15  N   UNL     1       3.122   4.386  19.665  0.00  0.00    +0.000 NA
ATOM     16  H   UNL     1       3.202   5.173  19.020  0.00  0.00    +0.000 HD
BRANCH  15  17
ATOM     17  C   UNL     1       1.901   3.623  19.344  0.00  0.00    +0.000 C 
ATOM     18  C   UNL     1       0.777   3.920  20.349  0.00  0.00    +0.000 C 
ATOM     19  C   UNL     1       1.435   4.094  17.951  0.00  0.00    +0.000 C 
ATOM     20  C   UNL     1       2.165   2.109  19.273  0.00  0.00    +0.000 C 
ENDBRANCH  15  17
ENDBRANCH  14  15
ENDBRANCH   8  14
TORSDOF 4
ENDMDL
