MODEL 1
REMARK VINA RESULT:      -6.9      0.000      0.000
REMARK  Name = 
REMARK  7 active torsions:
REMARK  status: ('A' for Active; 'I' for Inactive)
REMARK    1  A    between atoms: C_1  and  C_2
REMARK    2  A    between atoms: N_4  and  C_5
REMARK    3  A    between atoms: C_6  and  C_7
REMARK    4  A    between atoms: C_8  and  C_9
REMARK    5  A    between atoms: C_9  and  N_10
REMARK    6  A    between atoms: N_10  and  S_11
REMARK    7  A    between atoms: S_11  and  C_14
REMARK                            x       y       z     vdW  Elec       q    Type
REMARK                         _______ _______ _______ _____ _____    ______ ____
ROOT
ATOM      1  N   UNL     1       3.772   3.684  16.779  0.00  0.00    +0.000 NA
ATOM      2  H   UNL     1       3.337   3.284  15.946  0.00  0.00    +0.000 HD
ENDROOT
BRANCH   1   3
ATOM      3  S   UNL     1       2.858   3.180  18.120  0.00  0.00    +0.000 S 
ATOM      4  O   UNL     1       1.671   2.559  17.605  0.00  0.00    +0.000 OA
ATOM      5  O   UNL     1       3.772   2.463  18.998  0.00  0.00    +0.000 OA
BRANCH   3   6
ATOM      6  C   UNL     1       2.368   4.665  18.966  0.00  0.00    +0.000 A 
ATOM      7  C   UNL     1       1.774   4.623  20.228  0.00  0.00    +0.000 A 
ATOM      8  C   UNL     1       1.468   5.824  20.882  0.00  0.00    +0.000 A 
ATOM      9  C   UNL     1       1.758   7.047  20.273  0.00  0.00    +0.000 A 
ATOM     10 BR   UNL     1       1.350   8.662  21.166  0.00  0.00    +0.000 Br
ATOM     11  C   UNL     1       2.345   7.087  19.009  0.00  0.00    +0.000 A 
ATOM     12  C   UNL     1       2.657   5.894  18.357  0.00  0.00    +0.000 A 
ENDBRANCH   3   6
ENDBRANCH   1   3
BRANCH   1  13
ATOM     13  C   UNL     1       5.199   3.327  16.860  0.00  0.00    +0.000 C 
BRANCH  13  21
ATOM     14  C   UNL     1       6.684   4.746  14.226  0.00  0.00    +0.000 C 
ATOM     15  C   UNL     1       6.723   5.131  15.663  0.00  0.00    +0.000 A 
ATOM     16  N   UNL     1       7.454   6.196  16.008  0.00  0.00    +0.000 NA
ATOM     17  N   UNL     1       7.262   6.322  17.329  0.00  0.00    +0.000 N 
ATOM     18  C   UNL     1       7.907   7.410  18.025  0.00  0.00    +0.000 C 
ATOM     19  C   UNL     1       6.428   5.370  17.852  0.00  0.00    +0.000 A 
ATOM     20  C   UNL     1       6.023   5.322  19.278  0.00  0.00    +0.000 C 
ATOM     21  C   UNL     1       6.061   4.548  16.793  0.00  0.00    +0.000 A 
ENDBRANCH  13  21
ENDBRANCH   1  13
TORSDOF 4
ENDMDL
MODEL 2
REMARK VINA RESULT:      -6.7      3.849      6.253
REMARK  Name = 
REMARK  7 active torsions:
REMARK  status: ('A' for Active; 'I' for Inactive)
REMARK    1  A    between atoms: C_1  and  C_2
REMARK    2  A    between atoms: N_4  and  C_5
REMARK    3  A    between atoms: C_6  and  C_7
REMARK    4  A    between atoms: C_8  and  C_9
REMARK    5  A    between atoms: C_9  and  N_10
REMARK    6  A    between atoms: N_10  and  S_11
REMARK    7  A    between atoms: S_11  and  C_14
REMARK                            x       y       z     vdW  Elec       q    Type
REMARK                         _______ _______ _______ _____ _____    ______ ____
ROOT
ATOM      1  N   UNL     1       6.373   4.213  18.824  0.00  0.00    +0.000 NA
ATOM      2  H   UNL     1       5.860   3.471  18.344  0.00  0.00    +0.000 HD
ENDROOT
BRANCH   1   3
ATOM      3  S   UNL     1       7.505   4.840  17.722  0.00  0.00    +0.000 S 
ATOM      4  O   UNL     1       7.544   6.260  17.928  0.00  0.00    +0.000 OA
ATOM      5  O   UNL     1       8.702   4.020  17.846  0.00  0.00    +0.000 OA
BRANCH   3   6
ATOM      6  C   UNL     1       6.829   4.547  16.105  0.00  0.00    +0.000 A 
ATOM      7  C   UNL     1       7.448   5.039  14.955  0.00  0.00    +0.000 A 
ATOM      8  C   UNL     1       6.914   4.723  13.699  0.00  0.00    +0.000 A 
ATOM      9  C   UNL     1       5.772   3.924  13.605  0.00  0.00    +0.000 A 
ATOM     10 BR   UNL     1       5.062   3.495  11.906  0.00  0.00    +0.000 Br
ATOM     11  C   UNL     1       5.150   3.439  14.754  0.00  0.00    +0.000 A 
ATOM     12  C   UNL     1       5.683   3.746  16.007  0.00  0.00    +0.000 A 
ENDBRANCH   3   6
ENDBRANCH   1   3
BRANCH   1  13
ATOM     13  C   UNL     1       5.457   5.225  19.379  0.00  0.00    +0.000 C 
BRANCH  13  21
ATOM     14  C   UNL     1       3.079   7.163  18.057  0.00  0.00    +0.000 C 
ATOM     15  C   UNL     1       3.011   5.746  18.510  0.00  0.00    +0.000 A 
ATOM     16  N   UNL     1       1.842   5.107  18.400  0.00  0.00    +0.000 NA
ATOM     17  N   UNL     1       2.096   3.865  18.833  0.00  0.00    +0.000 N 
ATOM     18  C   UNL     1       1.028   2.893  18.824  0.00  0.00    +0.000 C 
ATOM     19  C   UNL     1       3.395   3.678  19.223  0.00  0.00    +0.000 A 
ATOM     20  C   UNL     1       3.936   2.380  19.696  0.00  0.00    +0.000 C 
ATOM     21  C   UNL     1       4.036   4.898  19.046  0.00  0.00    +0.000 A 
ENDBRANCH  13  21
ENDBRANCH   1  13
TORSDOF 4
ENDMDL
MODEL 3
REMARK VINA RESULT:      -6.7      1.191      2.724
REMARK  Name = 
REMARK  7 active torsions:
REMARK  status: ('A' for Active; 'I' for Inactive)
REMARK    1  A    between atoms: C_1  and  C_2
REMARK    2  A    between atoms: N_4  and  C_5
REMARK    3  A    between atoms: C_6  and  C_7
REMARK    4  A    between atoms: C_8  and  C_9
REMARK    5  A    between atoms: C_9  and  N_10
REMARK    6  A    between atoms: N_10  and  S_11
REMARK    7  A    between atoms: S_11  and  C_14
REMARK                            x       y       z     vdW  Elec       q    Type
REMARK                         _______ _______ _______ _____ _____    ______ ____
ROOT
ATOM      1  N   UNL     1       4.939   3.106  17.410  0.00  0.00    +0.000 NA
ATOM      2  H   UNL     1       5.602   3.634  17.981  0.00  0.00    +0.000 HD
ENDROOT
BRANCH   1   3
ATOM      3  S   UNL     1       3.641   2.667  18.415  0.00  0.00    +0.000 S 
ATOM      4  O   UNL     1       2.602   2.168  17.559  0.00  0.00    +0.000 OA
ATOM      5  O   UNL     1       4.202   1.854  19.485  0.00  0.00    +0.000 OA
BRANCH   3   6
ATOM      6  C   UNL     1       3.058   4.177  19.149  0.00  0.00    +0.000 A 
ATOM      7  C   UNL     1       3.561   5.419  18.761  0.00  0.00    +0.000 A 
ATOM      8  C   UNL     1       3.020   6.584  19.321  0.00  0.00    +0.000 A 
ATOM      9  C   UNL     1       1.987   6.496  20.257  0.00  0.00    +0.000 A 
ATOM     10 BR   UNL     1       1.256   8.074  21.001  0.00  0.00    +0.000 Br
ATOM     11  C   UNL     1       1.489   5.255  20.650  0.00  0.00    +0.000 A 
ATOM     12  C   UNL     1       2.021   4.093  20.090  0.00  0.00    +0.000 A 
ENDBRANCH   3   6
ENDBRANCH   1   3
BRANCH   1  13
ATOM     13  C   UNL     1       4.538   3.868  16.214  0.00  0.00    +0.000 C 
BRANCH  13  21
ATOM     14  C   UNL     1       7.008   5.752  17.443  0.00  0.00    +0.000 C 
ATOM     15  C   UNL     1       6.770   5.282  16.050  0.00  0.00    +0.000 A 
ATOM     16  N   UNL     1       7.645   5.646  15.107  0.00  0.00    +0.000 NA
ATOM     17  N   UNL     1       7.205   5.047  13.992  0.00  0.00    +0.000 N 
ATOM     18  C   UNL     1       7.951   5.221  12.767  0.00  0.00    +0.000 C 
ATOM     19  C   UNL     1       6.069   4.305  14.182  0.00  0.00    +0.000 A 
ATOM     20  C   UNL     1       5.414   3.511  13.114  0.00  0.00    +0.000 C 
ATOM     21  C   UNL     1       5.733   4.445  15.523  0.00  0.00    +0.000 A 
ENDBRANCH  13  21
ENDBRANCH   1  13
TORSDOF 4
ENDMDL
MODEL 4
REMARK VINA RESULT:      -6.6      2.022      3.201
REMARK  Name = 
REMARK  7 active torsions:
REMARK  status: ('A' for Active; 'I' for Inactive)
REMARK    1  A    between atoms: C_1  and  C_2
REMARK    2  A    between atoms: N_4  and  C_5
REMARK    3  A    between atoms: C_6  and  C_7
REMARK    4  A    between atoms: C_8  and  C_9
REMARK    5  A    between atoms: C_9  and  N_10
REMARK    6  A    between atoms: N_10  and  S_11
REMARK    7  A    between atoms: S_11  and  C_14
REMARK                            x       y       z     vdW  Elec       q    Type
REMARK                         _______ _______ _______ _____ _____    ______ ____
ROOT
ATOM      1  N   UNL     1       4.593   5.859  19.550  0.00  0.00    +0.000 NA
ATOM      2  H   UNL     1       4.844   6.702  19.029  0.00  0.00    +0.000 HD
ENDROOT
BRANCH   1   3
ATOM      3  S   UNL     1       2.909   5.669  19.424  0.00  0.00    +0.000 S 
ATOM      4  O   UNL     1       2.659   4.981  18.189  0.00  0.00    +0.000 OA
ATOM      5  O   UNL     1       2.455   5.133  20.699  0.00  0.00    +0.000 OA
BRANCH   3   6
ATOM      6  C   UNL     1       2.241   7.309  19.272  0.00  0.00    +0.000 A 
ATOM      7  C   UNL     1       2.258   7.995  18.056  0.00  0.00    +0.000 A 
ATOM      8  C   UNL     1       1.658   9.258  17.972  0.00  0.00    +0.000 A 
ATOM      9  C   UNL     1       1.049   9.820  19.097  0.00  0.00    +0.000 A 
ATOM     10 BR   UNL     1       0.232  11.520  18.972  0.00  0.00    +0.000 Br
ATOM     11  C   UNL     1       1.037   9.137  20.312  0.00  0.00    +0.000 A 
ATOM     12  C   UNL     1       1.629   7.877  20.398  0.00  0.00    +0.000 A 
ENDBRANCH   3   6
ENDBRANCH   1   3
BRANCH   1  13
ATOM     13  C   UNL     1       5.363   4.693  19.084  0.00  0.00    +0.000 C 
BRANCH  13  21
ATOM     14  C   UNL     1       7.948   6.749  18.587  0.00  0.00    +0.000 C 
ATOM     15  C   UNL     1       7.189   5.920  17.611  0.00  0.00    +0.000 A 
ATOM     16  N   UNL     1       7.551   5.974  16.325  0.00  0.00    +0.000 NA
ATOM     17  N   UNL     1       6.736   5.106  15.710  0.00  0.00    +0.000 N 
ATOM     18  C   UNL     1       6.881   4.905  14.287  0.00  0.00    +0.000 C 
ATOM     19  C   UNL     1       5.854   4.491  16.557  0.00  0.00    +0.000 A 
ATOM     20  C   UNL     1       4.881   3.456  16.127  0.00  0.00    +0.000 C 
ATOM     21  C   UNL     1       6.101   5.009  17.822  0.00  0.00    +0.000 A 
ENDBRANCH  13  21
ENDBRANCH   1  13
TORSDOF 4
ENDMDL
MODEL 5
REMARK VINA RESULT:      -6.6      0.581      1.229
REMARK  Name = 
REMARK  7 active torsions:
REMARK  status: ('A' for Active; 'I' for Inactive)
REMARK    1  A    between atoms: C_1  and  C_2
REMARK    2  A    between atoms: N_4  and  C_5
REMARK    3  A    between atoms: C_6  and  C_7
REMARK    4  A    between atoms: C_8  and  C_9
REMARK    5  A    between atoms: C_9  and  N_10
REMARK    6  A    between atoms: N_10  and  S_11
REMARK    7  A    between atoms: S_11  and  C_14
REMARK                            x       y       z     vdW  Elec       q    Type
REMARK                         _______ _______ _______ _____ _____    ______ ____
ROOT
ATOM      1  N   UNL     1       4.462   3.125  18.140  0.00  0.00    +0.000 NA
ATOM      2  H   UNL     1       4.857   3.776  18.822  0.00  0.00    +0.000 HD
ENDROOT
BRANCH   1   3
ATOM      3  S   UNL     1       2.770   3.230  18.263  0.00  0.00    +0.000 S 
ATOM      4  O   UNL     1       2.254   3.234  16.923  0.00  0.00    +0.000 OA
ATOM      5  O   UNL     1       2.362   2.223  19.232  0.00  0.00    +0.000 OA
BRANCH   3   6
ATOM      6  C   UNL     1       2.428   4.820  18.978  0.00  0.00    +0.000 A 
ATOM      7  C   UNL     1       2.635   6.002  18.263  0.00  0.00    +0.000 A 
ATOM      8  C   UNL     1       2.285   7.227  18.847  0.00  0.00    +0.000 A 
ATOM      9  C   UNL     1       1.736   7.259  20.131  0.00  0.00    +0.000 A 
ATOM     10 BR   UNL     1       1.258   8.916  20.907  0.00  0.00    +0.000 Br
ATOM     11  C   UNL     1       1.536   6.080  20.846  0.00  0.00    +0.000 A 
ATOM     12  C   UNL     1       1.877   4.857  20.266  0.00  0.00    +0.000 A 
ENDBRANCH   3   6
ENDBRANCH   1   3
BRANCH   1  13
ATOM     13  C   UNL     1       4.980   3.389  16.786  0.00  0.00    +0.000 C 
BRANCH  13  21
ATOM     14  C   UNL     1       6.596   4.835  14.245  0.00  0.00    +0.000 C 
ATOM     15  C   UNL     1       6.649   5.135  15.702  0.00  0.00    +0.000 A 
ATOM     16  N   UNL     1       7.455   6.120  16.112  0.00  0.00    +0.000 NA
ATOM     17  N   UNL     1       7.259   6.187  17.436  0.00  0.00    +0.000 N 
ATOM     18  C   UNL     1       7.977   7.182  18.197  0.00  0.00    +0.000 C 
ATOM     19  C   UNL     1       6.350   5.273  17.899  0.00  0.00    +0.000 A 
ATOM     20  C   UNL     1       5.926   5.178  19.318  0.00  0.00    +0.000 C 
ATOM     21  C   UNL     1       5.932   4.542  16.794  0.00  0.00    +0.000 A 
ENDBRANCH  13  21
ENDBRANCH   1  13
TORSDOF 4
ENDMDL
MODEL 6
REMARK VINA RESULT:      -6.5      1.054      2.465
REMARK  Name = 
REMARK  7 active torsions:
REMARK  status: ('A' for Active; 'I' for Inactive)
REMARK    1  A    between atoms: C_1  and  C_2
REMARK    2  A    between atoms: N_4  and  C_5
REMARK    3  A    between atoms: C_6  and  C_7
REMARK    4  A    between atoms: C_8  and  C_9
REMARK    5  A    between atoms: C_9  and  N_10
REMARK    6  A    between atoms: N_10  and  S_11
REMARK    7  A    between atoms: S_11  and  C_14
REMARK                            x       y       z     vdW  Elec       q    Type
REMARK                         _______ _______ _______ _____ _____    ______ ____
ROOT
ATOM      1  N   UNL     1       4.742   3.435  17.436  0.00  0.00    +0.000 NA
ATOM      2  H   UNL     1       5.119   4.242  17.937  0.00  0.00    +0.000 HD
ENDROOT
BRANCH   1   3
ATOM      3  S   UNL     1       3.331   2.948  18.249  0.00  0.00    +0.000 S 
ATOM      4  O   UNL     1       2.388   2.547  17.243  0.00  0.00    +0.000 OA
ATOM      5  O   UNL     1       3.754   2.037  19.303  0.00  0.00    +0.000 OA
BRANCH   3   6
ATOM      6  C   UNL     1       2.691   4.407  19.036  0.00  0.00    +0.000 A 
ATOM      7  C   UNL     1       1.955   4.334  20.220  0.00  0.00    +0.000 A 
ATOM      8  C   UNL     1       1.531   5.518  20.839  0.00  0.00    +0.000 A 
ATOM      9  C   UNL     1       1.845   6.755  20.272  0.00  0.00    +0.000 A 
ATOM     10 BR   UNL     1       1.277   8.348  21.117  0.00  0.00    +0.000 Br
ATOM     11  C   UNL     1       2.574   6.827  19.086  0.00  0.00    +0.000 A 
ATOM     12  C   UNL     1       3.004   5.651  18.470  0.00  0.00    +0.000 A 
ENDBRANCH   3   6
ENDBRANCH   1   3
BRANCH   1  13
ATOM     13  C   UNL     1       4.534   3.741  16.010  0.00  0.00    +0.000 C 
BRANCH  13  21
ATOM     14  C   UNL     1       6.830   5.688  17.458  0.00  0.00    +0.000 C 
ATOM     15  C   UNL     1       6.709   5.250  16.041  0.00  0.00    +0.000 A 
ATOM     16  N   UNL     1       7.630   5.678  15.171  0.00  0.00    +0.000 NA
ATOM     17  N   UNL     1       7.294   5.095  14.012  0.00  0.00    +0.000 N 
ATOM     18  C   UNL     1       8.114   5.337  12.848  0.00  0.00    +0.000 C 
ATOM     19  C   UNL     1       6.181   4.302  14.102  0.00  0.00    +0.000 A 
ATOM     20  C   UNL     1       5.636   3.513  12.970  0.00  0.00    +0.000 C 
ATOM     21  C   UNL     1       5.747   4.387  15.419  0.00  0.00    +0.000 A 
ENDBRANCH  13  21
ENDBRANCH   1  13
TORSDOF 4
ENDMDL
MODEL 7
REMARK VINA RESULT:      -6.5      2.038      2.989
REMARK  Name = 
REMARK  7 active torsions:
REMARK  status: ('A' for Active; 'I' for Inactive)
REMARK    1  A    between atoms: C_1  and  C_2
REMARK    2  A    between atoms: N_4  and  C_5
REMARK    3  A    between atoms: C_6  and  C_7
REMARK    4  A    between atoms: C_8  and  C_9
REMARK    5  A    between atoms: C_9  and  N_10
REMARK    6  A    between atoms: N_10  and  S_11
REMARK    7  A    between atoms: S_11  and  C_14
REMARK                            x       y       z     vdW  Elec       q    Type
REMARK                         _______ _______ _______ _____ _____    ______ ____
ROOT
ATOM      1  N   UNL     1       4.369   5.440  19.858  0.00  0.00    +0.000 NA
ATOM      2  H   UNL     1       4.635   6.283  19.344  0.00  0.00    +0.000 HD
ENDROOT
BRANCH   1   3
ATOM      3  S   UNL     1       2.673   5.340  19.822  0.00  0.00    +0.000 S 
ATOM      4  O   UNL     1       2.325   4.584  18.652  0.00  0.00    +0.000 OA
ATOM      5  O   UNL     1       2.254   4.918  21.152  0.00  0.00    +0.000 OA
BRANCH   3   6
ATOM      6  C   UNL     1       2.088   7.001  19.586  0.00  0.00    +0.000 A 
ATOM      7  C   UNL     1       1.479   7.714  20.619  0.00  0.00    +0.000 A 
ATOM      8  C   UNL     1       1.097   9.045  20.403  0.00  0.00    +0.000 A 
ATOM      9  C   UNL     1       1.325   9.646  19.162  0.00  0.00    +0.000 A 
ATOM     10 BR   UNL     1       0.815  11.444  18.881  0.00  0.00    +0.000 Br
ATOM     11  C   UNL     1       1.927   8.930  18.128  0.00  0.00    +0.000 A 
ATOM     12  C   UNL     1       2.315   7.607  18.342  0.00  0.00    +0.000 A 
ENDBRANCH   3   6
ENDBRANCH   1   3
BRANCH   1  13
ATOM     13  C   UNL     1       5.049   4.249  19.321  0.00  0.00    +0.000 C 
BRANCH  13  21
ATOM     14  C   UNL     1       8.011   5.794  19.294  0.00  0.00    +0.000 C 
ATOM     15  C   UNL     1       7.181   5.305  18.159  0.00  0.00    +0.000 A 
ATOM     16  N   UNL     1       7.641   5.493  16.918  0.00  0.00    +0.000 NA
ATOM     17  N   UNL     1       6.723   4.918  16.128  0.00  0.00    +0.000 N 
ATOM     18  C   UNL     1       6.931   4.926  14.699  0.00  0.00    +0.000 C 
ATOM     19  C   UNL     1       5.679   4.364  16.820  0.00  0.00    +0.000 A 
ATOM     20  C   UNL     1       4.560   3.632  16.177  0.00  0.00    +0.000 C 
ATOM     21  C   UNL     1       5.926   4.610  18.165  0.00  0.00    +0.000 A 
ENDBRANCH  13  21
ENDBRANCH   1  13
TORSDOF 4
ENDMDL
MODEL 8
REMARK VINA RESULT:      -6.5      3.758      6.451
REMARK  Name = 
REMARK  7 active torsions:
REMARK  status: ('A' for Active; 'I' for Inactive)
REMARK    1  A    between atoms: C_1  and  C_2
REMARK    2  A    between atoms: N_4  and  C_5
REMARK    3  A    between atoms: C_6  and  C_7
REMARK    4  A    between atoms: C_8  and  C_9
REMARK    5  A    between atoms: C_9  and  N_10
REMARK    6  A    between atoms: N_10  and  S_11
REMARK    7  A    between atoms: S_11  and  C_14
REMARK                            x       y       z     vdW  Elec       q    Type
REMARK                         _______ _______ _______ _____ _____    ______ ____
ROOT
ATOM      1  N   UNL     1       5.633   6.109  18.101  0.00  0.00    +0.000 NA
ATOM      2  H   UNL     1       5.645   7.115  18.278  0.00  0.00    +0.000 HD
ENDROOT
BRANCH   1   3
ATOM      3  S   UNL     1       7.091   5.713  17.324  0.00  0.00    +0.000 S 
ATOM      4  O   UNL     1       7.727   6.952  16.975  0.00  0.00    +0.000 OA
ATOM      5  O   UNL     1       7.755   4.728  18.167  0.00  0.00    +0.000 OA
BRANCH   3   6
ATOM      6  C   UNL     1       6.636   4.895  15.813  0.00  0.00    +0.000 A 
ATOM      7  C   UNL     1       5.487   4.107  15.727  0.00  0.00    +0.000 A 
ATOM      8  C   UNL     1       5.135   3.540  14.496  0.00  0.00    +0.000 A 
ATOM      9  C   UNL     1       5.930   3.763  13.369  0.00  0.00    +0.000 A 
ATOM     10 BR   UNL     1       5.442   3.001  11.709  0.00  0.00    +0.000 Br
ATOM     11  C   UNL     1       7.081   4.544  13.457  0.00  0.00    +0.000 A 
ATOM     12  C   UNL     1       7.432   5.116  14.681  0.00  0.00    +0.000 A 
ENDBRANCH   3   6
ENDBRANCH   1   3
BRANCH   1  13
ATOM     13  C   UNL     1       5.392   5.351  19.342  0.00  0.00    +0.000 C 
BRANCH  13  21
ATOM     14  C   UNL     1       2.552   7.108  19.445  0.00  0.00    +0.000 C 
ATOM     15  C   UNL     1       2.764   5.635  19.489  0.00  0.00    +0.000 A 
ATOM     16  N   UNL     1       1.687   4.849  19.592  0.00  0.00    +0.000 NA
ATOM     17  N   UNL     1       2.177   3.602  19.560  0.00  0.00    +0.000 N 
ATOM     18  C   UNL     1       1.257   2.491  19.630  0.00  0.00    +0.000 C 
ATOM     19  C   UNL     1       3.540   3.554  19.442  0.00  0.00    +0.000 A 
ATOM     20  C   UNL     1       4.316   2.294  19.339  0.00  0.00    +0.000 C 
ATOM     21  C   UNL     1       3.976   4.874  19.410  0.00  0.00    +0.000 A 
ENDBRANCH  13  21
ENDBRANCH   1  13
TORSDOF 4
ENDMDL
MODEL 9
REMARK VINA RESULT:      -6.3      1.399      1.475
REMARK  Name = 
REMARK  7 active torsions:
REMARK  status: ('A' for Active; 'I' for Inactive)
REMARK    1  A    between atoms: C_1  and  C_2
REMARK    2  A    between atoms: N_4  and  C_5
REMARK    3  A    between atoms: C_6  and  C_7
REMARK    4  A    between atoms: C_8  and  C_9
REMARK    5  A    between atoms: C_9  and  N_10
REMARK    6  A    between atoms: N_10  and  S_11
REMARK    7  A    between atoms: S_11  and  C_14
REMARK                            x       y       z     vdW  Elec       q    Type
REMARK                         _______ _______ _______ _____ _____    ______ ____
ROOT
ATOM      1  N   UNL     1       4.980   3.981  19.095  0.00  0.00    +0.000 NA
ATOM      2  H   UNL     1       5.100   4.807  19.685  0.00  0.00    +0.000 HD
ENDROOT
BRANCH   1   3
ATOM      3  S   UNL     1       3.336   3.894  18.675  0.00  0.00    +0.000 S 
ATOM      4  O   UNL     1       3.276   3.824  17.242  0.00  0.00    +0.000 OA
ATOM      5  O   UNL     1       2.749   2.857  19.512  0.00  0.00    +0.000 OA
BRANCH   3   6
ATOM      6  C   UNL     1       2.620   5.442  19.171  0.00  0.00    +0.000 A 
ATOM      7  C   UNL     1       1.982   5.590  20.404  0.00  0.00    +0.000 A 
ATOM      8  C   UNL     1       1.494   6.849  20.778  0.00  0.00    +0.000 A 
ATOM      9  C   UNL     1       1.646   7.941  19.921  0.00  0.00    +0.000 A 
ATOM     10 BR   UNL     1       0.993   9.639  20.437  0.00  0.00    +0.000 Br
ATOM     11  C   UNL     1       2.277   7.792  18.686  0.00  0.00    +0.000 A 
ATOM     12  C   UNL     1       2.770   6.541  18.313  0.00  0.00    +0.000 A 
ENDBRANCH   3   6
ENDBRANCH   1   3
BRANCH   1  13
ATOM     13  C   UNL     1       5.892   4.013  17.939  0.00  0.00    +0.000 C 
BRANCH  13  21
ATOM     14  C   UNL     1       5.142   6.174  15.503  0.00  0.00    +0.000 C 
ATOM     15  C   UNL     1       6.103   6.307  16.633  0.00  0.00    +0.000 A 
ATOM     16  N   UNL     1       6.804   7.441  16.730  0.00  0.00    +0.000 NA
ATOM     17  N   UNL     1       7.532   7.291  17.845  0.00  0.00    +0.000 N 
ATOM     18  C   UNL     1       8.402   8.368  18.259  0.00  0.00    +0.000 C 
ATOM     19  C   UNL     1       7.327   6.092  18.474  0.00  0.00    +0.000 A 
ATOM     20  C   UNL     1       7.979   5.707  19.750  0.00  0.00    +0.000 C 
ATOM     21  C   UNL     1       6.404   5.398  17.701  0.00  0.00    +0.000 A 
ENDBRANCH  13  21
ENDBRANCH   1  13
TORSDOF 4
ENDMDL
