MODEL 1
REMARK VINA RESULT:      -7.5      0.000      0.000
REMARK  Name = 
REMARK  8 active torsions:
REMARK  status: ('A' for Active; 'I' for Inactive)
REMARK    1  A    between atoms: C_1  and  O_2
REMARK    2  A    between atoms: O_2  and  C_3
REMARK    3  A    between atoms: C_6  and  C_7
REMARK    4  A    between atoms: N_8  and  N_9
REMARK    5  A    between atoms: C_19  and  O_20
REMARK    6  A    between atoms: O_20  and  C_21
REMARK    7  A    between atoms: C_22  and  O_23
REMARK    8  A    between atoms: O_23  and  C_24
REMARK                            x       y       z     vdW  Elec       q    Type
REMARK                         _______ _______ _______ _____ _____    ______ ____
ROOT
ATOM      1  C   UNL     1       2.100   7.757  18.726  0.00  0.00    +0.000 C 
ATOM      2  N   UNL     1       2.059   9.011  18.372  0.00  0.00    +0.000 NA
ENDROOT
BRANCH   2   3
ATOM      3  N   UNL     1       1.116   9.724  19.056  0.00  0.00    +0.000 N 
ATOM      4  C   UNL     1      -0.082  10.131  18.591  0.00  0.00    +0.000 A 
ATOM      5  N   UNL     1      -0.959  10.870  19.231  0.00  0.00    +0.000 NA
ATOM      6  C   UNL     1      -2.038  10.968  18.387  0.00  0.00    +0.000 A 
ATOM      7  C   UNL     1      -3.260  11.627  18.579  0.00  0.00    +0.000 A 
ATOM      8  C   UNL     1      -4.226  11.564  17.569  0.00  0.00    +0.000 A 
ATOM      9  C   UNL     1      -3.977  10.857  16.390  0.00  0.00    +0.000 A 
ATOM     10  C   UNL     1      -2.758  10.199  16.175  0.00  0.00    +0.000 A 
ATOM     11  C   UNL     1      -1.810  10.278  17.201  0.00  0.00    +0.000 A 
ATOM     12  N   UNL     1      -0.541   9.771  17.352  0.00  0.00    +0.000 N 
ATOM     13  H   UNL     1       1.329  10.067  19.992  0.00  0.00    +0.000 HD
ATOM     14  H   UNL     1      -0.020   9.204  16.705  0.00  0.00    +0.000 HD
ENDBRANCH   2   3
BRANCH   1  18
ATOM     15  C   UNL     1       5.155   5.084  17.384  0.00  0.00    +0.000 A 
ATOM     16  C   UNL     1       5.084   6.402  16.905  0.00  0.00    +0.000 A 
ATOM     17  C   UNL     1       4.066   7.255  17.314  0.00  0.00    +0.000 A 
ATOM     18  C   UNL     1       3.095   6.790  18.199  0.00  0.00    +0.000 A 
ATOM     19  C   UNL     1       3.092   5.443  18.632  0.00  0.00    +0.000 A 
ATOM     20  C   UNL     1       4.122   4.567  18.198  0.00  0.00    +0.000 A 
BRANCH  15  22
ATOM     21  C   UNL     1       7.469   4.629  17.613  0.00  0.00    +0.000 C 
ATOM     22  O   UNL     1       6.211   4.284  17.029  0.00  0.00    +0.000 OA
ENDBRANCH  15  22
BRANCH  19  23
ATOM     23  O   UNL     1       2.043   5.136  19.471  0.00  0.00    +0.000 OA
ATOM     24  C   UNL     1       2.265   4.889  20.851  0.00  0.00    +0.000 C 
ENDBRANCH  19  23
BRANCH  20  25
ATOM     25  O   UNL     1       4.016   3.267  18.614  0.00  0.00    +0.000 OA
ATOM     26  C   UNL     1       3.329   2.286  17.856  0.00  0.00    +0.000 C 
ENDBRANCH  20  25
ENDBRANCH   1  18
TORSDOF 5
ENDMDL
MODEL 2
REMARK VINA RESULT:      -7.0      2.641      3.346
REMARK  Name = 
REMARK  8 active torsions:
REMARK  status: ('A' for Active; 'I' for Inactive)
REMARK    1  A    between atoms: C_1  and  O_2
REMARK    2  A    between atoms: O_2  and  C_3
REMARK    3  A    between atoms: C_6  and  C_7
REMARK    4  A    between atoms: N_8  and  N_9
REMARK    5  A    between atoms: C_19  and  O_20
REMARK    6  A    between atoms: O_20  and  C_21
REMARK    7  A    between atoms: C_22  and  O_23
REMARK    8  A    between atoms: O_23  and  C_24
REMARK                            x       y       z     vdW  Elec       q    Type
REMARK                         _______ _______ _______ _____ _____    ______ ____
ROOT
ATOM      1  C   UNL     1       2.284   7.965  18.177  0.00  0.00    +0.000 C 
ATOM      2  N   UNL     1       2.189   9.086  17.518  0.00  0.00    +0.000 NA
ENDROOT
BRANCH   2   3
ATOM      3  N   UNL     1       1.268   9.939  18.056  0.00  0.00    +0.000 N 
ATOM      4  C   UNL     1       1.420  11.261  18.268  0.00  0.00    +0.000 A 
ATOM      5  N   UNL     1       0.556  12.066  18.842  0.00  0.00    +0.000 NA
ATOM      6  C   UNL     1       1.120  13.316  18.774  0.00  0.00    +0.000 A 
ATOM      7  C   UNL     1       0.616  14.546  19.220  0.00  0.00    +0.000 A 
ATOM      8  C   UNL     1       1.377  15.701  19.015  0.00  0.00    +0.000 A 
ATOM      9  C   UNL     1       2.619  15.632  18.378  0.00  0.00    +0.000 A 
ATOM     10  C   UNL     1       3.144  14.411  17.933  0.00  0.00    +0.000 A 
ATOM     11  C   UNL     1       2.363  13.272  18.150  0.00  0.00    +0.000 A 
ATOM     12  N   UNL     1       2.537  11.939  17.856  0.00  0.00    +0.000 N 
ATOM     13  H   UNL     1       0.389   9.567  18.415  0.00  0.00    +0.000 HD
ATOM     14  H   UNL     1       3.317  11.504  17.393  0.00  0.00    +0.000 HD
ENDBRANCH   2   3
BRANCH   1  18
ATOM     15  C   UNL     1       5.308   5.036  17.431  0.00  0.00    +0.000 A 
ATOM     16  C   UNL     1       5.366   6.305  16.834  0.00  0.00    +0.000 A 
ATOM     17  C   UNL     1       4.361   7.241  17.049  0.00  0.00    +0.000 A 
ATOM     18  C   UNL     1       3.273   6.907  17.853  0.00  0.00    +0.000 A 
ATOM     19  C   UNL     1       3.144   5.608  18.399  0.00  0.00    +0.000 A 
ATOM     20  C   UNL     1       4.163   4.647  18.163  0.00  0.00    +0.000 A 
BRANCH  15  22
ATOM     21  C   UNL     1       7.626   4.631  17.698  0.00  0.00    +0.000 C 
ATOM     22  O   UNL     1       6.348   4.157  17.270  0.00  0.00    +0.000 OA
ENDBRANCH  15  22
BRANCH  19  23
ATOM     23  O   UNL     1       1.994   5.430  19.135  0.00  0.00    +0.000 OA
ATOM     24  C   UNL     1       2.049   5.294  20.547  0.00  0.00    +0.000 C 
ENDBRANCH  19  23
BRANCH  20  25
ATOM     25  O   UNL     1       3.937   3.397  18.675  0.00  0.00    +0.000 OA
ATOM     26  C   UNL     1       3.302   2.377  17.924  0.00  0.00    +0.000 C 
ENDBRANCH  20  25
ENDBRANCH   1  18
TORSDOF 5
ENDMDL
MODEL 3
REMARK VINA RESULT:      -7.0      2.463      3.020
REMARK  Name = 
REMARK  8 active torsions:
REMARK  status: ('A' for Active; 'I' for Inactive)
REMARK    1  A    between atoms: C_1  and  O_2
REMARK    2  A    between atoms: O_2  and  C_3
REMARK    3  A    between atoms: C_6  and  C_7
REMARK    4  A    between atoms: N_8  and  N_9
REMARK    5  A    between atoms: C_19  and  O_20
REMARK    6  A    between atoms: O_20  and  C_21
REMARK    7  A    between atoms: C_22  and  O_23
REMARK    8  A    between atoms: O_23  and  C_24
REMARK                            x       y       z     vdW  Elec       q    Type
REMARK                         _______ _______ _______ _____ _____    ______ ____
ROOT
ATOM      1  C   UNL     1       1.883   6.538  20.227  0.00  0.00    +0.000 C 
ATOM      2  N   UNL     1       2.008   7.820  20.425  0.00  0.00    +0.000 NA
ENDROOT
BRANCH   2   3
ATOM      3  N   UNL     1       1.381   8.244  21.563  0.00  0.00    +0.000 N 
ATOM      4  C   UNL     1       0.545   9.295  21.679  0.00  0.00    +0.000 A 
ATOM      5  N   UNL     1      -0.006   9.737  22.786  0.00  0.00    +0.000 NA
ATOM      6  C   UNL     1      -0.819  10.775  22.400  0.00  0.00    +0.000 A 
ATOM      7  C   UNL     1      -1.654  11.588  23.179  0.00  0.00    +0.000 A 
ATOM      8  C   UNL     1      -2.412  12.578  22.545  0.00  0.00    +0.000 A 
ATOM      9  C   UNL     1      -2.339  12.754  21.161  0.00  0.00    +0.000 A 
ATOM     10  C   UNL     1      -1.503  11.958  20.366  0.00  0.00    +0.000 A 
ATOM     11  C   UNL     1      -0.756  10.976  21.025  0.00  0.00    +0.000 A 
ATOM     12  N   UNL     1       0.142  10.027  20.593  0.00  0.00    +0.000 N 
ATOM     13  H   UNL     1       1.596   7.793  22.452  0.00  0.00    +0.000 HD
ATOM     14  H   UNL     1       0.450   9.849  19.653  0.00  0.00    +0.000 HD
ENDBRANCH   2   3
BRANCH   1  18
ATOM     15  C   UNL     1       4.024   4.452  17.171  0.00  0.00    +0.000 A 
ATOM     16  C   UNL     1       4.142   5.844  17.317  0.00  0.00    +0.000 A 
ATOM     17  C   UNL     1       3.414   6.523  18.287  0.00  0.00    +0.000 A 
ATOM     18  C   UNL     1       2.544   5.815  19.113  0.00  0.00    +0.000 A 
ATOM     19  C   UNL     1       2.340   4.426  18.934  0.00  0.00    +0.000 A 
ATOM     20  C   UNL     1       3.071   3.736  17.930  0.00  0.00    +0.000 A 
BRANCH  15  22
ATOM     21  C   UNL     1       6.164   4.241  16.175  0.00  0.00    +0.000 C 
ATOM     22  O   UNL     1       4.810   3.792  16.261  0.00  0.00    +0.000 OA
ENDBRANCH  15  22
BRANCH  19  23
ATOM     23  O   UNL     1       1.420   3.886  19.805  0.00  0.00    +0.000 OA
ATOM     24  C   UNL     1       1.840   3.228  20.991  0.00  0.00    +0.000 C 
ENDBRANCH  19  23
BRANCH  20  25
ATOM     25  O   UNL     1       2.775   2.408  17.780  0.00  0.00    +0.000 OA
ATOM     26  C   UNL     1       3.555   1.389  18.381  0.00  0.00    +0.000 C 
ENDBRANCH  20  25
ENDBRANCH   1  18
TORSDOF 5
ENDMDL
MODEL 4
REMARK VINA RESULT:      -7.0      2.494      3.036
REMARK  Name = 
REMARK  8 active torsions:
REMARK  status: ('A' for Active; 'I' for Inactive)
REMARK    1  A    between atoms: C_1  and  O_2
REMARK    2  A    between atoms: O_2  and  C_3
REMARK    3  A    between atoms: C_6  and  C_7
REMARK    4  A    between atoms: N_8  and  N_9
REMARK    5  A    between atoms: C_19  and  O_20
REMARK    6  A    between atoms: O_20  and  C_21
REMARK    7  A    between atoms: C_22  and  O_23
REMARK    8  A    between atoms: O_23  and  C_24
REMARK                            x       y       z     vdW  Elec       q    Type
REMARK                         _______ _______ _______ _____ _____    ______ ____
ROOT
ATOM      1  C   UNL     1       2.992   8.360  17.854  0.00  0.00    +0.000 C 
ATOM      2  N   UNL     1       1.869   8.844  17.401  0.00  0.00    +0.000 NA
ENDROOT
BRANCH   2   3
ATOM      3  N   UNL     1       1.567  10.065  17.934  0.00  0.00    +0.000 N 
ATOM      4  C   UNL     1       0.932  10.302  19.099  0.00  0.00    +0.000 A 
ATOM      5  N   UNL     1       0.587  11.475  19.577  0.00  0.00    +0.000 NA
ATOM      6  C   UNL     1       0.031  11.219  20.806  0.00  0.00    +0.000 A 
ATOM      7  C   UNL     1      -0.488  12.114  21.752  0.00  0.00    +0.000 A 
ATOM      8  C   UNL     1      -0.985  11.608  22.958  0.00  0.00    +0.000 A 
ATOM      9  C   UNL     1      -0.967  10.234  23.215  0.00  0.00    +0.000 A 
ATOM     10  C   UNL     1      -0.461   9.323  22.278  0.00  0.00    +0.000 A 
ATOM     11  C   UNL     1       0.030   9.855  21.082  0.00  0.00    +0.000 A 
ATOM     12  N   UNL     1       0.594   9.292  19.961  0.00  0.00    +0.000 N 
ATOM     13  H   UNL     1       1.755  10.908  17.393  0.00  0.00    +0.000 HD
ATOM     14  H   UNL     1       0.773   8.318  19.780  0.00  0.00    +0.000 HD
ENDBRANCH   2   3
BRANCH   1  18
ATOM     15  C   UNL     1       4.947   4.769  16.603  0.00  0.00    +0.000 A 
ATOM     16  C   UNL     1       5.221   5.998  15.982  0.00  0.00    +0.000 A 
ATOM     17  C   UNL     1       4.555   7.155  16.365  0.00  0.00    +0.000 A 
ATOM     18  C   UNL     1       3.590   7.091  17.368  0.00  0.00    +0.000 A 
ATOM     19  C   UNL     1       3.231   5.854  17.953  0.00  0.00    +0.000 A 
ATOM     20  C   UNL     1       3.900   4.668  17.547  0.00  0.00    +0.000 A 
BRANCH  15  22
ATOM     21  C   UNL     1       6.428   3.755  15.057  0.00  0.00    +0.000 C 
ATOM     22  O   UNL     1       5.672   3.654  16.265  0.00  0.00    +0.000 OA
ENDBRANCH  15  22
BRANCH  19  23
ATOM     23  O   UNL     1       2.234   5.959  18.898  0.00  0.00    +0.000 OA
ATOM     24  C   UNL     1       2.501   5.695  20.268  0.00  0.00    +0.000 C 
ENDBRANCH  19  23
BRANCH  20  25
ATOM     25  O   UNL     1       3.455   3.506  18.117  0.00  0.00    +0.000 OA
ATOM     26  C   UNL     1       2.467   2.695  17.505  0.00  0.00    +0.000 C 
ENDBRANCH  20  25
ENDBRANCH   1  18
TORSDOF 5
ENDMDL
MODEL 5
REMARK VINA RESULT:      -6.9      4.051      8.970
REMARK  Name = 
REMARK  8 active torsions:
REMARK  status: ('A' for Active; 'I' for Inactive)
REMARK    1  A    between atoms: C_1  and  O_2
REMARK    2  A    between atoms: O_2  and  C_3
REMARK    3  A    between atoms: C_6  and  C_7
REMARK    4  A    between atoms: N_8  and  N_9
REMARK    5  A    between atoms: C_19  and  O_20
REMARK    6  A    between atoms: O_20  and  C_21
REMARK    7  A    between atoms: C_22  and  O_23
REMARK    8  A    between atoms: O_23  and  C_24
REMARK                            x       y       z     vdW  Elec       q    Type
REMARK                         _______ _______ _______ _____ _____    ______ ____
ROOT
ATOM      1  C   UNL     1       0.889   9.107  20.436  0.00  0.00    +0.000 C 
ATOM      2  N   UNL     1       1.445   8.068  20.994  0.00  0.00    +0.000 NA
ENDROOT
BRANCH   2   3
ATOM      3  N   UNL     1       2.367   7.464  20.187  0.00  0.00    +0.000 N 
ATOM      4  C   UNL     1       2.406   6.162  19.841  0.00  0.00    +0.000 A 
ATOM      5  N   UNL     1       3.329   5.572  19.116  0.00  0.00    +0.000 NA
ATOM      6  C   UNL     1       2.911   4.272  18.980  0.00  0.00    +0.000 A 
ATOM      7  C   UNL     1       3.511   3.212  18.286  0.00  0.00    +0.000 A 
ATOM      8  C   UNL     1       2.874   1.967  18.273  0.00  0.00    +0.000 A 
ATOM      9  C   UNL     1       1.659   1.782  18.940  0.00  0.00    +0.000 A 
ATOM     10  C   UNL     1       1.048   2.827  19.647  0.00  0.00    +0.000 A 
ATOM     11  C   UNL     1       1.707   4.061  19.644  0.00  0.00    +0.000 A 
ATOM     12  N   UNL     1       1.419   5.284  20.203  0.00  0.00    +0.000 N 
ATOM     13  H   UNL     1       3.166   8.000  19.851  0.00  0.00    +0.000 HD
ATOM     14  H   UNL     1       0.620   5.538  20.759  0.00  0.00    +0.000 HD
ENDBRANCH   2   3
BRANCH   1  18
ATOM     15  C   UNL     1      -1.679  11.794  22.548  0.00  0.00    +0.000 A 
ATOM     16  C   UNL     1      -1.057  10.720  23.204  0.00  0.00    +0.000 A 
ATOM     17  C   UNL     1      -0.254   9.827  22.506  0.00  0.00    +0.000 A 
ATOM     18  C   UNL     1      -0.079   9.990  21.134  0.00  0.00    +0.000 A 
ATOM     19  C   UNL     1      -0.760  11.011  20.430  0.00  0.00    +0.000 A 
ATOM     20  C   UNL     1      -1.595  11.913  21.142  0.00  0.00    +0.000 A 
BRANCH  15  22
ATOM     21  C   UNL     1      -1.690  13.884  23.664  0.00  0.00    +0.000 C 
ATOM     22  O   UNL     1      -2.402  12.710  23.269  0.00  0.00    +0.000 OA
ENDBRANCH  15  22
BRANCH  19  23
ATOM     23  O   UNL     1      -0.509  11.010  19.076  0.00  0.00    +0.000 OA
ATOM     24  C   UNL     1      -1.412  10.394  18.169  0.00  0.00    +0.000 C 
ENDBRANCH  19  23
BRANCH  20  25
ATOM     25  O   UNL     1      -2.264  12.835  20.383  0.00  0.00    +0.000 OA
ATOM     26  C   UNL     1      -3.642  12.704  20.077  0.00  0.00    +0.000 C 
ENDBRANCH  20  25
ENDBRANCH   1  18
TORSDOF 5
ENDMDL
MODEL 6
REMARK VINA RESULT:      -6.9      2.194      2.937
REMARK  Name = 
REMARK  8 active torsions:
REMARK  status: ('A' for Active; 'I' for Inactive)
REMARK    1  A    between atoms: C_1  and  O_2
REMARK    2  A    between atoms: O_2  and  C_3
REMARK    3  A    between atoms: C_6  and  C_7
REMARK    4  A    between atoms: N_8  and  N_9
REMARK    5  A    between atoms: C_19  and  O_20
REMARK    6  A    between atoms: O_20  and  C_21
REMARK    7  A    between atoms: C_22  and  O_23
REMARK    8  A    between atoms: O_23  and  C_24
REMARK                            x       y       z     vdW  Elec       q    Type
REMARK                         _______ _______ _______ _____ _____    ______ ____
ROOT
ATOM      1  C   UNL     1       2.335   7.947  18.146  0.00  0.00    +0.000 C 
ATOM      2  N   UNL     1       2.373   9.026  17.417  0.00  0.00    +0.000 NA
ENDROOT
BRANCH   2   3
ATOM      3  N   UNL     1       1.391   9.919  17.741  0.00  0.00    +0.000 N 
ATOM      4  C   UNL     1       0.796  10.063  18.942  0.00  0.00    +0.000 A 
ATOM      5  N   UNL     1      -0.190  10.880  19.233  0.00  0.00    +0.000 NA
ATOM      6  C   UNL     1      -0.412  10.719  20.579  0.00  0.00    +0.000 A 
ATOM      7  C   UNL     1      -1.339  11.362  21.411  0.00  0.00    +0.000 A 
ATOM      8  C   UNL     1      -1.358  11.041  22.772  0.00  0.00    +0.000 A 
ATOM      9  C   UNL     1      -0.470  10.097  23.294  0.00  0.00    +0.000 A 
ATOM     10  C   UNL     1       0.458   9.437  22.477  0.00  0.00    +0.000 A 
ATOM     11  C   UNL     1       0.456   9.777  21.120  0.00  0.00    +0.000 A 
ATOM     12  N   UNL     1       1.204   9.358  20.044  0.00  0.00    +0.000 N 
ATOM     13  H   UNL     1       0.985  10.505  17.011  0.00  0.00    +0.000 HD
ATOM     14  H   UNL     1       1.947   8.682  20.032  0.00  0.00    +0.000 HD
ENDBRANCH   2   3
BRANCH   1  18
ATOM     15  C   UNL     1       5.393   4.960  18.074  0.00  0.00    +0.000 A 
ATOM     16  C   UNL     1       5.531   6.156  17.354  0.00  0.00    +0.000 A 
ATOM     17  C   UNL     1       4.519   7.108  17.349  0.00  0.00    +0.000 A 
ATOM     18  C   UNL     1       3.343   6.862  18.055  0.00  0.00    +0.000 A 
ATOM     19  C   UNL     1       3.138   5.630  18.720  0.00  0.00    +0.000 A 
ATOM     20  C   UNL     1       4.168   4.651  18.709  0.00  0.00    +0.000 A 
BRANCH  15  22
ATOM     21  C   UNL     1       7.657   4.515  17.539  0.00  0.00    +0.000 C 
ATOM     22  O   UNL     1       6.435   4.070  18.131  0.00  0.00    +0.000 OA
ENDBRANCH  15  22
BRANCH  19  23
ATOM     23  O   UNL     1       1.910   5.532  19.335  0.00  0.00    +0.000 OA
ATOM     24  C   UNL     1       1.799   5.589  20.750  0.00  0.00    +0.000 C 
ENDBRANCH  19  23
BRANCH  20  25
ATOM     25  O   UNL     1       3.872   3.464  19.325  0.00  0.00    +0.000 OA
ATOM     26  C   UNL     1       3.364   2.350  18.612  0.00  0.00    +0.000 C 
ENDBRANCH  20  25
ENDBRANCH   1  18
TORSDOF 5
ENDMDL
MODEL 7
REMARK VINA RESULT:      -6.9      7.525     10.293
REMARK  Name = 
REMARK  8 active torsions:
REMARK  status: ('A' for Active; 'I' for Inactive)
REMARK    1  A    between atoms: C_1  and  O_2
REMARK    2  A    between atoms: O_2  and  C_3
REMARK    3  A    between atoms: C_6  and  C_7
REMARK    4  A    between atoms: N_8  and  N_9
REMARK    5  A    between atoms: C_19  and  O_20
REMARK    6  A    between atoms: O_20  and  C_21
REMARK    7  A    between atoms: C_22  and  O_23
REMARK    8  A    between atoms: O_23  and  C_24
REMARK                            x       y       z     vdW  Elec       q    Type
REMARK                         _______ _______ _______ _____ _____    ______ ____
ROOT
ATOM      1  C   UNL     1       9.590  10.376  18.960  0.00  0.00    +0.000 C 
ATOM      2  N   UNL     1       8.846   9.626  18.197  0.00  0.00    +0.000 NA
ENDROOT
BRANCH   2   3
ATOM      3  N   UNL     1       8.635   8.382  18.722  0.00  0.00    +0.000 N 
ATOM      4  C   UNL     1       7.793   7.441  18.252  0.00  0.00    +0.000 A 
ATOM      5  N   UNL     1       7.546   6.270  18.795  0.00  0.00    +0.000 NA
ATOM      6  C   UNL     1       6.682   5.643  17.932  0.00  0.00    +0.000 A 
ATOM      7  C   UNL     1       6.113   4.365  18.015  0.00  0.00    +0.000 A 
ATOM      8  C   UNL     1       5.268   3.934  16.987  0.00  0.00    +0.000 A 
ATOM      9  C   UNL     1       4.996   4.763  15.895  0.00  0.00    +0.000 A 
ATOM     10  C   UNL     1       5.548   6.047  15.797  0.00  0.00    +0.000 A 
ATOM     11  C   UNL     1       6.389   6.453  16.839  0.00  0.00    +0.000 A 
ATOM     12  N   UNL     1       7.098   7.606  17.083  0.00  0.00    +0.000 N 
ATOM     13  H   UNL     1       9.084   8.126  19.601  0.00  0.00    +0.000 HD
ATOM     14  H   UNL     1       7.149   8.433  16.513  0.00  0.00    +0.000 HD
ENDBRANCH   2   3
BRANCH   1  18
ATOM     15  C   UNL     1      10.264  14.465  17.907  0.00  0.00    +0.000 A 
ATOM     16  C   UNL     1      10.801  13.420  17.138  0.00  0.00    +0.000 A 
ATOM     17  C   UNL     1      10.611  12.094  17.505  0.00  0.00    +0.000 A 
ATOM     18  C   UNL     1       9.894  11.798  18.663  0.00  0.00    +0.000 A 
ATOM     19  C   UNL     1       9.414  12.830  19.504  0.00  0.00    +0.000 A 
ATOM     20  C   UNL     1       9.624  14.186  19.136  0.00  0.00    +0.000 A 
BRANCH  15  22
ATOM     21  C   UNL     1      11.723  16.174  17.158  0.00  0.00    +0.000 C 
ATOM     22  O   UNL     1      10.394  15.763  17.484  0.00  0.00    +0.000 OA
ENDBRANCH  15  22
BRANCH  19  23
ATOM     23  O   UNL     1       8.762  12.368  20.626  0.00  0.00    +0.000 OA
ATOM     24  C   UNL     1       9.416  12.338  21.886  0.00  0.00    +0.000 C 
ENDBRANCH  19  23
BRANCH  20  25
ATOM     25  O   UNL     1       9.182  15.123  20.031  0.00  0.00    +0.000 OA
ATOM     26  C   UNL     1      10.068  15.836  20.876  0.00  0.00    +0.000 C 
ENDBRANCH  20  25
ENDBRANCH   1  18
TORSDOF 5
ENDMDL
MODEL 8
REMARK VINA RESULT:      -6.8      1.101      1.288
REMARK  Name = 
REMARK  8 active torsions:
REMARK  status: ('A' for Active; 'I' for Inactive)
REMARK    1  A    between atoms: C_1  and  O_2
REMARK    2  A    between atoms: O_2  and  C_3
REMARK    3  A    between atoms: C_6  and  C_7
REMARK    4  A    between atoms: N_8  and  N_9
REMARK    5  A    between atoms: C_19  and  O_20
REMARK    6  A    between atoms: O_20  and  C_21
REMARK    7  A    between atoms: C_22  and  O_23
REMARK    8  A    between atoms: O_23  and  C_24
REMARK                            x       y       z     vdW  Elec       q    Type
REMARK                         _______ _______ _______ _____ _____    ______ ____
ROOT
ATOM      1  C   UNL     1       2.479   7.458  18.864  0.00  0.00    +0.000 C 
ATOM      2  N   UNL     1       1.956   8.533  18.344  0.00  0.00    +0.000 NA
ENDROOT
BRANCH   2   3
ATOM      3  N   UNL     1       1.446   9.382  19.286  0.00  0.00    +0.000 N 
ATOM      4  C   UNL     1       0.286  10.064  19.213  0.00  0.00    +0.000 A 
ATOM      5  N   UNL     1      -0.171  10.926  20.091  0.00  0.00    +0.000 NA
ATOM      6  C   UNL     1      -1.404  11.307  19.622  0.00  0.00    +0.000 A 
ATOM      7  C   UNL     1      -2.333  12.195  20.180  0.00  0.00    +0.000 A 
ATOM      8  C   UNL     1      -3.547  12.406  19.518  0.00  0.00    +0.000 A 
ATOM      9  C   UNL     1      -3.829  11.743  18.320  0.00  0.00    +0.000 A 
ATOM     10  C   UNL     1      -2.909  10.858  17.741  0.00  0.00    +0.000 A 
ATOM     11  C   UNL     1      -1.704  10.666  18.424  0.00  0.00    +0.000 A 
ATOM     12  N   UNL     1      -0.594   9.893  18.176  0.00  0.00    +0.000 N 
ATOM     13  H   UNL     1       2.002   9.609  20.110  0.00  0.00    +0.000 HD
ATOM     14  H   UNL     1      -0.431   9.273  17.401  0.00  0.00    +0.000 HD
ENDBRANCH   2   3
BRANCH   1  18
ATOM     15  C   UNL     1       4.704   4.481  16.750  0.00  0.00    +0.000 A 
ATOM     16  C   UNL     1       4.997   5.846  16.603  0.00  0.00    +0.000 A 
ATOM     17  C   UNL     1       4.247   6.812  17.262  0.00  0.00    +0.000 A 
ATOM     18  C   UNL     1       3.178   6.421  18.065  0.00  0.00    +0.000 A 
ATOM     19  C   UNL     1       2.804   5.060  18.166  0.00  0.00    +0.000 A 
ATOM     20  C   UNL     1       3.562   4.074  17.477  0.00  0.00    +0.000 A 
BRANCH  15  22
ATOM     21  C   UNL     1       6.392   4.034  15.150  0.00  0.00    +0.000 C 
ATOM     22  O   UNL     1       5.506   3.540  16.156  0.00  0.00    +0.000 OA
ENDBRANCH  15  22
BRANCH  19  23
ATOM     23  O   UNL     1       1.704   4.847  18.967  0.00  0.00    +0.000 OA
ATOM     24  C   UNL     1       1.857   4.470  20.327  0.00  0.00    +0.000 C 
ENDBRANCH  19  23
BRANCH  20  25
ATOM     25  O   UNL     1       3.102   2.789  17.578  0.00  0.00    +0.000 OA
ATOM     26  C   UNL     1       3.649   1.862  18.500  0.00  0.00    +0.000 C 
ENDBRANCH  20  25
ENDBRANCH   1  18
TORSDOF 5
ENDMDL
MODEL 9
REMARK VINA RESULT:      -6.8      3.717      8.528
REMARK  Name = 
REMARK  8 active torsions:
REMARK  status: ('A' for Active; 'I' for Inactive)
REMARK    1  A    between atoms: C_1  and  O_2
REMARK    2  A    between atoms: O_2  and  C_3
REMARK    3  A    between atoms: C_6  and  C_7
REMARK    4  A    between atoms: N_8  and  N_9
REMARK    5  A    between atoms: C_19  and  O_20
REMARK    6  A    between atoms: O_20  and  C_21
REMARK    7  A    between atoms: C_22  and  O_23
REMARK    8  A    between atoms: O_23  and  C_24
REMARK                            x       y       z     vdW  Elec       q    Type
REMARK                         _______ _______ _______ _____ _____    ______ ____
ROOT
ATOM      1  C   UNL     1       0.552   7.776  21.034  0.00  0.00    +0.000 C 
ATOM      2  N   UNL     1       1.833   7.567  20.915  0.00  0.00    +0.000 NA
ENDROOT
BRANCH   2   3
ATOM      3  N   UNL     1       2.126   6.300  20.494  0.00  0.00    +0.000 N 
ATOM      4  C   UNL     1       2.795   5.956  19.376  0.00  0.00    +0.000 A 
ATOM      5  N   UNL     1       3.020   4.737  18.943  0.00  0.00    +0.000 NA
ATOM      6  C   UNL     1       3.787   4.886  17.814  0.00  0.00    +0.000 A 
ATOM      7  C   UNL     1       4.325   3.906  16.968  0.00  0.00    +0.000 A 
ATOM      8  C   UNL     1       5.104   4.310  15.878  0.00  0.00    +0.000 A 
ATOM      9  C   UNL     1       5.341   5.666  15.637  0.00  0.00    +0.000 A 
ATOM     10  C   UNL     1       4.805   6.660  16.466  0.00  0.00    +0.000 A 
ATOM     11  C   UNL     1       4.031   6.229  17.548  0.00  0.00    +0.000 A 
ATOM     12  N   UNL     1       3.365   6.891  18.553  0.00  0.00    +0.000 N 
ATOM     13  H   UNL     1       1.755   5.503  21.010  0.00  0.00    +0.000 HD
ATOM     14  H   UNL     1       3.309   7.883  18.710  0.00  0.00    +0.000 HD
ENDBRANCH   2   3
BRANCH   1  18
ATOM     15  C   UNL     1      -0.882  11.641  22.167  0.00  0.00    +0.000 A 
ATOM     16  C   UNL     1      -0.811  10.593  23.098  0.00  0.00    +0.000 A 
ATOM     17  C   UNL     1      -0.381   9.328  22.716  0.00  0.00    +0.000 A 
ATOM     18  C   UNL     1      -0.032   9.094  21.388  0.00  0.00    +0.000 A 
ATOM     19  C   UNL     1      -0.173  10.106  20.410  0.00  0.00    +0.000 A 
ATOM     20  C   UNL     1      -0.630  11.394  20.798  0.00  0.00    +0.000 A 
BRANCH  15  22
ATOM     21  C   UNL     1      -2.437  12.986  23.344  0.00  0.00    +0.000 C 
ATOM     22  O   UNL     1      -1.233  12.901  22.581  0.00  0.00    +0.000 OA
ENDBRANCH  15  22
BRANCH  19  23
ATOM     23  O   UNL     1       0.177   9.701  19.141  0.00  0.00    +0.000 OA
ATOM     24  C   UNL     1       1.362  10.183  18.525  0.00  0.00    +0.000 C 
ENDBRANCH  19  23
BRANCH  20  25
ATOM     25  O   UNL     1      -0.796  12.301  19.786  0.00  0.00    +0.000 OA
ATOM     26  C   UNL     1      -1.999  12.391  19.043  0.00  0.00    +0.000 C 
ENDBRANCH  20  25
ENDBRANCH   1  18
TORSDOF 5
ENDMDL
