MODEL 1
REMARK VINA RESULT:      -7.2      0.000      0.000
REMARK  Name = 
REMARK  6 active torsions:
REMARK  status: ('A' for Active; 'I' for Inactive)
REMARK    1  A    between atoms: C_1  and  C_2
REMARK    2  A    between atoms: C_2  and  C_3
REMARK    3  A    between atoms: C_3  and  C_4
REMARK    4  A    between atoms: C_4  and  N_5
REMARK    5  A    between atoms: C_9  and  C_11
REMARK    6  A    between atoms: C_13  and  C_14
REMARK                            x       y       z     vdW  Elec       q    Type
REMARK                         _______ _______ _______ _____ _____    ______ ____
ROOT
ATOM      1  N   UNL     1       5.986   4.937  15.496  0.00  0.00    +0.000 N 
ATOM      2  C   UNL     1       5.916   3.743  16.339  0.00  0.00    +0.000 C 
ATOM      3  C   UNL     1       5.731   4.080  17.811  0.00  0.00    +0.000 C 
ATOM      4  N   UNL     1       4.540   4.901  17.968  0.00  0.00    +0.000 N 
ATOM      5  C   UNL     1       3.603   4.568  18.934  0.00  0.00    +0.000 C 
ATOM      6  O   UNL     1       3.684   3.546  19.607  0.00  0.00    +0.000 OA
ATOM      7  C   UNL     1       4.511   6.115  17.149  0.00  0.00    +0.000 C 
ATOM      8  C   UNL     1       5.221   6.061  15.782  0.00  0.00    +0.000 C 
ATOM      9  O   UNL     1       5.146   7.029  15.023  0.00  0.00    +0.000 OA
ENDROOT
BRANCH   5  10
ATOM     10  C   UNL     1       2.442   5.483  19.124  0.00  0.00    +0.000 C 
ATOM     11  C   UNL     1       1.689   5.457  20.429  0.00  0.00    +0.000 C 
ATOM     12  C   UNL     1       2.533   6.662  20.080  0.00  0.00    +0.000 C 
BRANCH  12  13
ATOM     13  C   UNL     1       1.851   7.961  19.711  0.00  0.00    +0.000 A 
ATOM     14  C   UNL     1       1.965   8.498  18.419  0.00  0.00    +0.000 A 
ATOM     15  C   UNL     1       1.356   9.710  18.078  0.00  0.00    +0.000 A 
ATOM     16  C   UNL     1       0.613  10.406  19.025  0.00  0.00    +0.000 A 
ATOM     17  C   UNL     1       0.470   9.890  20.311  0.00  0.00    +0.000 A 
ATOM     18  C   UNL     1       1.076   8.675  20.642  0.00  0.00    +0.000 A 
ENDBRANCH  12  13
ENDBRANCH   5  10
BRANCH   1  19
ATOM     19  C   UNL     1       6.699   4.848  14.225  0.00  0.00    +0.000 C 
BRANCH  19  20
ATOM     20  C   UNL     1       6.287   3.635  13.389  0.00  0.00    +0.000 C 
BRANCH  20  22
ATOM     21  C   UNL     1       4.801   2.883  11.502  0.00  0.00    +0.000 C 
ATOM     22  C   UNL     1       5.018   3.925  12.587  0.00  0.00    +0.000 C 
ENDBRANCH  20  22
ENDBRANCH  19  20
ENDBRANCH   1  19
TORSDOF 5
ENDMDL
MODEL 2
REMARK VINA RESULT:      -7.2      0.119      1.030
REMARK  Name = 
REMARK  6 active torsions:
REMARK  status: ('A' for Active; 'I' for Inactive)
REMARK    1  A    between atoms: C_1  and  C_2
REMARK    2  A    between atoms: C_2  and  C_3
REMARK    3  A    between atoms: C_3  and  C_4
REMARK    4  A    between atoms: C_4  and  N_5
REMARK    5  A    between atoms: C_9  and  C_11
REMARK    6  A    between atoms: C_13  and  C_14
REMARK                            x       y       z     vdW  Elec       q    Type
REMARK                         _______ _______ _______ _____ _____    ______ ____
ROOT
ATOM      1  N   UNL     1       5.887   4.959  15.465  0.00  0.00    +0.000 N 
ATOM      2  C   UNL     1       5.786   3.730  16.253  0.00  0.00    +0.000 C 
ATOM      3  C   UNL     1       5.612   4.005  17.739  0.00  0.00    +0.000 C 
ATOM      4  N   UNL     1       4.445   4.851  17.936  0.00  0.00    +0.000 N 
ATOM      5  C   UNL     1       3.500   4.500  18.889  0.00  0.00    +0.000 C 
ATOM      6  O   UNL     1       3.553   3.447  19.515  0.00  0.00    +0.000 OA
ATOM      7  C   UNL     1       4.448   6.101  17.173  0.00  0.00    +0.000 C 
ATOM      8  C   UNL     1       5.154   6.089  15.803  0.00  0.00    +0.000 C 
ATOM      9  O   UNL     1       5.105   7.093  15.089  0.00  0.00    +0.000 OA
ENDROOT
BRANCH   5  10
ATOM     10  C   UNL     1       2.365   5.438  19.124  0.00  0.00    +0.000 C 
ATOM     11  C   UNL     1       1.675   5.440  20.463  0.00  0.00    +0.000 C 
ATOM     12  C   UNL     1       2.522   6.626  20.059  0.00  0.00    +0.000 C 
BRANCH  12  13
ATOM     13  C   UNL     1       1.845   7.932  19.707  0.00  0.00    +0.000 A 
ATOM     14  C   UNL     1       1.000   8.580  20.622  0.00  0.00    +0.000 A 
ATOM     15  C   UNL     1       0.353   9.776  20.295  0.00  0.00    +0.000 A 
ATOM     16  C   UNL     1       0.544  10.350  19.042  0.00  0.00    +0.000 A 
ATOM     17  C   UNL     1       1.388   9.737  18.119  0.00  0.00    +0.000 A 
ATOM     18  C   UNL     1       2.037   8.546  18.458  0.00  0.00    +0.000 A 
ENDBRANCH  12  13
ENDBRANCH   5  10
BRANCH   1  19
ATOM     19  C   UNL     1       6.596   4.908  14.189  0.00  0.00    +0.000 C 
BRANCH  19  20
ATOM     20  C   UNL     1       6.309   3.633  13.393  0.00  0.00    +0.000 C 
BRANCH  20  22
ATOM     21  C   UNL     1       4.973   2.733  11.460  0.00  0.00    +0.000 C 
ATOM     22  C   UNL     1       5.036   3.779  12.560  0.00  0.00    +0.000 C 
ENDBRANCH  20  22
ENDBRANCH  19  20
ENDBRANCH   1  19
TORSDOF 5
ENDMDL
MODEL 3
REMARK VINA RESULT:      -7.0      1.879      7.886
REMARK  Name = 
REMARK  6 active torsions:
REMARK  status: ('A' for Active; 'I' for Inactive)
REMARK    1  A    between atoms: C_1  and  C_2
REMARK    2  A    between atoms: C_2  and  C_3
REMARK    3  A    between atoms: C_3  and  C_4
REMARK    4  A    between atoms: C_4  and  N_5
REMARK    5  A    between atoms: C_9  and  C_11
REMARK    6  A    between atoms: C_13  and  C_14
REMARK                            x       y       z     vdW  Elec       q    Type
REMARK                         _______ _______ _______ _____ _____    ______ ____
ROOT
ATOM      1  N   UNL     1       1.912   7.972  19.323  0.00  0.00    +0.000 N 
ATOM      2  C   UNL     1       2.294   6.737  20.008  0.00  0.00    +0.000 C 
ATOM      3  C   UNL     1       2.466   5.570  19.047  0.00  0.00    +0.000 C 
ATOM      4  N   UNL     1       3.442   5.927  18.029  0.00  0.00    +0.000 N 
ATOM      5  C   UNL     1       4.475   5.050  17.735  0.00  0.00    +0.000 C 
ATOM      6  O   UNL     1       4.664   4.016  18.368  0.00  0.00    +0.000 OA
ATOM      7  C   UNL     1       3.152   7.163  17.299  0.00  0.00    +0.000 C 
ATOM      8  C   UNL     1       2.410   8.277  18.063  0.00  0.00    +0.000 C 
ATOM      9  O   UNL     1       2.225   9.365  17.515  0.00  0.00    +0.000 OA
ENDROOT
BRANCH   5  10
ATOM     10  C   UNL     1       5.402   5.411  16.625  0.00  0.00    +0.000 C 
ATOM     11  C   UNL     1       6.879   5.516  16.902  0.00  0.00    +0.000 C 
ATOM     12  C   UNL     1       6.360   4.381  16.049  0.00  0.00    +0.000 C 
BRANCH  12  13
ATOM     13  C   UNL     1       6.637   4.388  14.562  0.00  0.00    +0.000 A 
ATOM     14  C   UNL     1       5.939   3.537  13.691  0.00  0.00    +0.000 A 
ATOM     15  C   UNL     1       6.207   3.522  12.318  0.00  0.00    +0.000 A 
ATOM     16  C   UNL     1       7.178   4.365  11.789  0.00  0.00    +0.000 A 
ATOM     17  C   UNL     1       7.877   5.230  12.627  0.00  0.00    +0.000 A 
ATOM     18  C   UNL     1       7.598   5.244  13.997  0.00  0.00    +0.000 A 
ENDBRANCH  12  13
ENDBRANCH   5  10
BRANCH   1  19
ATOM     19  C   UNL     1       1.178   8.985  20.078  0.00  0.00    +0.000 C 
BRANCH  19  20
ATOM     20  C   UNL     1       1.128   8.694  21.579  0.00  0.00    +0.000 C 
BRANCH  20  22
ATOM     21  C   UNL     1      -0.524  10.155  22.792  0.00  0.00    +0.000 C 
ATOM     22  C   UNL     1      -0.299   8.813  22.115  0.00  0.00    +0.000 C 
ENDBRANCH  20  22
ENDBRANCH  19  20
ENDBRANCH   1  19
TORSDOF 5
ENDMDL
MODEL 4
REMARK VINA RESULT:      -6.7      1.890      7.889
REMARK  Name = 
REMARK  6 active torsions:
REMARK  status: ('A' for Active; 'I' for Inactive)
REMARK    1  A    between atoms: C_1  and  C_2
REMARK    2  A    between atoms: C_2  and  C_3
REMARK    3  A    between atoms: C_3  and  C_4
REMARK    4  A    between atoms: C_4  and  N_5
REMARK    5  A    between atoms: C_9  and  C_11
REMARK    6  A    between atoms: C_13  and  C_14
REMARK                            x       y       z     vdW  Elec       q    Type
REMARK                         _______ _______ _______ _____ _____    ______ ____
ROOT
ATOM      1  N   UNL     1       1.849   8.093  19.393  0.00  0.00    +0.000 N 
ATOM      2  C   UNL     1       2.225   6.837  20.042  0.00  0.00    +0.000 C 
ATOM      3  C   UNL     1       2.358   5.688  19.053  0.00  0.00    +0.000 C 
ATOM      4  N   UNL     1       3.318   6.053  18.022  0.00  0.00    +0.000 N 
ATOM      5  C   UNL     1       4.330   5.167  17.687  0.00  0.00    +0.000 C 
ATOM      6  O   UNL     1       4.515   4.116  18.292  0.00  0.00    +0.000 OA
ATOM      7  C   UNL     1       3.033   7.310  17.326  0.00  0.00    +0.000 C 
ATOM      8  C   UNL     1       2.326   8.418  18.130  0.00  0.00    +0.000 C 
ATOM      9  O   UNL     1       2.146   9.521  17.610  0.00  0.00    +0.000 OA
ENDROOT
BRANCH   5  10
ATOM     10  C   UNL     1       5.239   5.538  16.565  0.00  0.00    +0.000 C 
ATOM     11  C   UNL     1       6.692   5.817  16.854  0.00  0.00    +0.000 C 
ATOM     12  C   UNL     1       6.311   4.573  16.083  0.00  0.00    +0.000 C 
BRANCH  12  13
ATOM     13  C   UNL     1       6.618   4.496  14.605  0.00  0.00    +0.000 A 
ATOM     14  C   UNL     1       7.583   5.332  14.020  0.00  0.00    +0.000 A 
ATOM     15  C   UNL     1       7.856   5.282  12.649  0.00  0.00    +0.000 A 
ATOM     16  C   UNL     1       7.169   4.386  11.835  0.00  0.00    +0.000 A 
ATOM     17  C   UNL     1       6.217   3.535  12.390  0.00  0.00    +0.000 A 
ATOM     18  C   UNL     1       5.956   3.587  13.762  0.00  0.00    +0.000 A 
ENDBRANCH  12  13
ENDBRANCH   5  10
BRANCH   1  19
ATOM     19  C   UNL     1       1.149   9.100  20.186  0.00  0.00    +0.000 C 
BRANCH  19  20
ATOM     20  C   UNL     1       1.287   8.879  21.694  0.00  0.00    +0.000 C 
BRANCH  20  22
ATOM     21  C   UNL     1      -0.281  10.814  22.056  0.00  0.00    +0.000 C 
ATOM     22  C   UNL     1       0.051   9.381  22.440  0.00  0.00    +0.000 C 
ENDBRANCH  20  22
ENDBRANCH  19  20
ENDBRANCH   1  19
TORSDOF 5
ENDMDL
MODEL 5
REMARK VINA RESULT:      -6.7      2.944      7.821
REMARK  Name = 
REMARK  6 active torsions:
REMARK  status: ('A' for Active; 'I' for Inactive)
REMARK    1  A    between atoms: C_1  and  C_2
REMARK    2  A    between atoms: C_2  and  C_3
REMARK    3  A    between atoms: C_3  and  C_4
REMARK    4  A    between atoms: C_4  and  N_5
REMARK    5  A    between atoms: C_9  and  C_11
REMARK    6  A    between atoms: C_13  and  C_14
REMARK                            x       y       z     vdW  Elec       q    Type
REMARK                         _______ _______ _______ _____ _____    ______ ____
ROOT
ATOM      1  N   UNL     1       4.357   3.884  18.928  0.00  0.00    +0.000 N 
ATOM      2  C   UNL     1       5.354   4.934  19.134  0.00  0.00    +0.000 C 
ATOM      3  C   UNL     1       6.593   4.737  18.273  0.00  0.00    +0.000 C 
ATOM      4  N   UNL     1       6.197   4.659  16.875  0.00  0.00    +0.000 N 
ATOM      5  C   UNL     1       6.861   5.429  15.932  0.00  0.00    +0.000 C 
ATOM      6  O   UNL     1       7.715   6.255  16.238  0.00  0.00    +0.000 OA
ATOM      7  C   UNL     1       5.186   3.644  16.573  0.00  0.00    +0.000 C 
ATOM      8  C   UNL     1       4.155   3.325  17.672  0.00  0.00    +0.000 C 
ATOM      9  O   UNL     1       3.234   2.542  17.429  0.00  0.00    +0.000 OA
ENDROOT
BRANCH   5  10
ATOM     10  C   UNL     1       6.487   5.255  14.500  0.00  0.00    +0.000 C 
ATOM     11  C   UNL     1       7.524   5.488  13.433  0.00  0.00    +0.000 C 
ATOM     12  C   UNL     1       7.027   4.085  13.694  0.00  0.00    +0.000 C 
BRANCH  12  13
ATOM     13  C   UNL     1       6.128   3.418  12.676  0.00  0.00    +0.000 A 
ATOM     14  C   UNL     1       4.861   3.940  12.376  0.00  0.00    +0.000 A 
ATOM     15  C   UNL     1       4.016   3.315  11.453  0.00  0.00    +0.000 A 
ATOM     16  C   UNL     1       4.428   2.154  10.807  0.00  0.00    +0.000 A 
ATOM     17  C   UNL     1       5.687   1.621  11.074  0.00  0.00    +0.000 A 
ATOM     18  C   UNL     1       6.528   2.256  11.993  0.00  0.00    +0.000 A 
ENDBRANCH  12  13
ENDBRANCH   5  10
BRANCH   1  19
ATOM     19  C   UNL     1       3.423   3.592  20.012  0.00  0.00    +0.000 C 
BRANCH  19  20
ATOM     20  C   UNL     1       2.239   4.559  20.060  0.00  0.00    +0.000 C 
BRANCH  20  22
ATOM     21  C   UNL     1       1.269   2.770  21.540  0.00  0.00    +0.000 C 
ATOM     22  C   UNL     1       0.964   3.848  20.513  0.00  0.00    +0.000 C 
ENDBRANCH  20  22
ENDBRANCH  19  20
ENDBRANCH   1  19
TORSDOF 5
ENDMDL
MODEL 6
REMARK VINA RESULT:      -6.7      2.790      7.686
REMARK  Name = 
REMARK  6 active torsions:
REMARK  status: ('A' for Active; 'I' for Inactive)
REMARK    1  A    between atoms: C_1  and  C_2
REMARK    2  A    between atoms: C_2  and  C_3
REMARK    3  A    between atoms: C_3  and  C_4
REMARK    4  A    between atoms: C_4  and  N_5
REMARK    5  A    between atoms: C_9  and  C_11
REMARK    6  A    between atoms: C_13  and  C_14
REMARK                            x       y       z     vdW  Elec       q    Type
REMARK                         _______ _______ _______ _____ _____    ______ ____
ROOT
ATOM      1  N   UNL     1       3.280   4.824  18.703  0.00  0.00    +0.000 N 
ATOM      2  C   UNL     1       4.457   5.630  19.026  0.00  0.00    +0.000 C 
ATOM      3  C   UNL     1       5.729   5.081  18.397  0.00  0.00    +0.000 C 
ATOM      4  N   UNL     1       5.544   4.978  16.957  0.00  0.00    +0.000 N 
ATOM      5  C   UNL     1       6.511   5.491  16.105  0.00  0.00    +0.000 C 
ATOM      6  O   UNL     1       7.481   6.122  16.512  0.00  0.00    +0.000 OA
ATOM      7  C   UNL     1       4.377   4.200  16.536  0.00  0.00    +0.000 C 
ATOM      8  C   UNL     1       3.144   4.221  17.459  0.00  0.00    +0.000 C 
ATOM      9  O   UNL     1       2.110   3.653  17.100  0.00  0.00    +0.000 OA
ENDROOT
BRANCH   5  10
ATOM     10  C   UNL     1       6.329   5.287  14.640  0.00  0.00    +0.000 C 
ATOM     11  C   UNL     1       7.532   5.336  13.734  0.00  0.00    +0.000 C 
ATOM     12  C   UNL     1       6.828   4.018  13.966  0.00  0.00    +0.000 C 
BRANCH  12  13
ATOM     13  C   UNL     1       6.009   3.410  12.849  0.00  0.00    +0.000 A 
ATOM     14  C   UNL     1       6.476   2.298  12.132  0.00  0.00    +0.000 A 
ATOM     15  C   UNL     1       5.734   1.745  11.082  0.00  0.00    +0.000 A 
ATOM     16  C   UNL     1       4.505   2.294  10.734  0.00  0.00    +0.000 A 
ATOM     17  C   UNL     1       4.010   3.389  11.438  0.00  0.00    +0.000 A 
ATOM     18  C   UNL     1       4.754   3.931  12.490  0.00  0.00    +0.000 A 
ENDBRANCH  12  13
ENDBRANCH   5  10
BRANCH   1  19
ATOM     19  C   UNL     1       2.148   4.848  19.626  0.00  0.00    +0.000 C 
BRANCH  19  20
ATOM     20  C   UNL     1       2.462   4.200  20.976  0.00  0.00    +0.000 C 
BRANCH  20  22
ATOM     21  C   UNL     1       0.716   2.653  20.031  0.00  0.00    +0.000 C 
ATOM     22  C   UNL     1       1.499   3.050  21.272  0.00  0.00    +0.000 C 
ENDBRANCH  20  22
ENDBRANCH  19  20
ENDBRANCH   1  19
TORSDOF 5
ENDMDL
MODEL 7
REMARK VINA RESULT:      -6.7      2.593      7.671
REMARK  Name = 
REMARK  6 active torsions:
REMARK  status: ('A' for Active; 'I' for Inactive)
REMARK    1  A    between atoms: C_1  and  C_2
REMARK    2  A    between atoms: C_2  and  C_3
REMARK    3  A    between atoms: C_3  and  C_4
REMARK    4  A    between atoms: C_4  and  N_5
REMARK    5  A    between atoms: C_9  and  C_11
REMARK    6  A    between atoms: C_13  and  C_14
REMARK                            x       y       z     vdW  Elec       q    Type
REMARK                         _______ _______ _______ _____ _____    ______ ____
ROOT
ATOM      1  N   UNL     1       3.422   5.179  19.107  0.00  0.00    +0.000 N 
ATOM      2  C   UNL     1       4.806   5.552  19.397  0.00  0.00    +0.000 C 
ATOM      3  C   UNL     1       5.810   4.690  18.645  0.00  0.00    +0.000 C 
ATOM      4  N   UNL     1       5.535   4.769  17.219  0.00  0.00    +0.000 N 
ATOM      5  C   UNL     1       6.572   5.027  16.336  0.00  0.00    +0.000 C 
ATOM      6  O   UNL     1       7.710   5.290  16.712  0.00  0.00    +0.000 OA
ATOM      7  C   UNL     1       4.164   4.428  16.832  0.00  0.00    +0.000 C 
ATOM      8  C   UNL     1       3.045   4.753  17.840  0.00  0.00    +0.000 C 
ATOM      9  O   UNL     1       1.870   4.564  17.520  0.00  0.00    +0.000 OA
ENDROOT
BRANCH   5  10
ATOM     10  C   UNL     1       6.267   5.010  14.877  0.00  0.00    +0.000 C 
ATOM     11  C   UNL     1       7.348   5.375  13.892  0.00  0.00    +0.000 C 
ATOM     12  C   UNL     1       6.864   3.945  13.971  0.00  0.00    +0.000 C 
BRANCH  12  13
ATOM     13  C   UNL     1       6.025   3.385  12.844  0.00  0.00    +0.000 A 
ATOM     14  C   UNL     1       4.794   3.965  12.499  0.00  0.00    +0.000 A 
ATOM     15  C   UNL     1       4.003   3.438  11.473  0.00  0.00    +0.000 A 
ATOM     16  C   UNL     1       4.434   2.320  10.766  0.00  0.00    +0.000 A 
ATOM     17  C   UNL     1       5.657   1.733  11.077  0.00  0.00    +0.000 A 
ATOM     18  C   UNL     1       6.445   2.270  12.099  0.00  0.00    +0.000 A 
ENDBRANCH  12  13
ENDBRANCH   5  10
BRANCH   1  19
ATOM     19  C   UNL     1       2.400   5.475  20.107  0.00  0.00    +0.000 C 
BRANCH  19  20
ATOM     20  C   UNL     1       2.233   4.361  21.143  0.00  0.00    +0.000 C 
BRANCH  20  22
ATOM     21  C   UNL     1       1.553   2.180  20.088  0.00  0.00    +0.000 C 
ATOM     22  C   UNL     1       1.067   3.442  20.781  0.00  0.00    +0.000 C 
ENDBRANCH  20  22
ENDBRANCH  19  20
ENDBRANCH   1  19
TORSDOF 5
ENDMDL
MODEL 8
REMARK VINA RESULT:      -6.7      4.396      9.275
REMARK  Name = 
REMARK  6 active torsions:
REMARK  status: ('A' for Active; 'I' for Inactive)
REMARK    1  A    between atoms: C_1  and  C_2
REMARK    2  A    between atoms: C_2  and  C_3
REMARK    3  A    between atoms: C_3  and  C_4
REMARK    4  A    between atoms: C_4  and  N_5
REMARK    5  A    between atoms: C_9  and  C_11
REMARK    6  A    between atoms: C_13  and  C_14
REMARK                            x       y       z     vdW  Elec       q    Type
REMARK                         _______ _______ _______ _____ _____    ______ ____
ROOT
ATOM      1  N   UNL     1      -0.581  10.691  22.151  0.00  0.00    +0.000 N 
ATOM      2  C   UNL     1      -0.137  11.648  21.137  0.00  0.00    +0.000 C 
ATOM      3  C   UNL     1       1.221  11.288  20.553  0.00  0.00    +0.000 C 
ATOM      4  N   UNL     1       1.166   9.939  20.011  0.00  0.00    +0.000 N 
ATOM      5  C   UNL     1       1.644   9.697  18.732  0.00  0.00    +0.000 C 
ATOM      6  O   UNL     1       2.029  10.594  17.989  0.00  0.00    +0.000 OA
ATOM      7  C   UNL     1       0.715   8.911  20.951  0.00  0.00    +0.000 C 
ATOM      8  C   UNL     1      -0.300   9.336  22.029  0.00  0.00    +0.000 C 
ATOM      9  O   UNL     1      -0.772   8.484  22.784  0.00  0.00    +0.000 OA
ENDROOT
BRANCH   5  10
ATOM     10  C   UNL     1       1.654   8.287  18.246  0.00  0.00    +0.000 C 
ATOM     11  C   UNL     1       2.825   7.794  17.436  0.00  0.00    +0.000 C 
ATOM     12  C   UNL     1       2.615   7.269  18.839  0.00  0.00    +0.000 C 
BRANCH  12  13
ATOM     13  C   UNL     1       2.148   5.844  19.032  0.00  0.00    +0.000 A 
ATOM     14  C   UNL     1       1.823   5.354  20.307  0.00  0.00    +0.000 A 
ATOM     15  C   UNL     1       1.412   4.031  20.496  0.00  0.00    +0.000 A 
ATOM     16  C   UNL     1       1.312   3.171  19.407  0.00  0.00    +0.000 A 
ATOM     17  C   UNL     1       1.614   3.633  18.129  0.00  0.00    +0.000 A 
ATOM     18  C   UNL     1       2.017   4.960  17.948  0.00  0.00    +0.000 A 
ENDBRANCH  12  13
ENDBRANCH   5  10
BRANCH   1  19
ATOM     19  C   UNL     1      -1.517  11.149  23.174  0.00  0.00    +0.000 C 
BRANCH  19  20
ATOM     20  C   UNL     1      -2.004  12.581  22.944  0.00  0.00    +0.000 C 
BRANCH  20  22
ATOM     21  C   UNL     1      -4.073  12.789  24.360  0.00  0.00    +0.000 C 
ATOM     22  C   UNL     1      -3.531  12.651  22.947  0.00  0.00    +0.000 C 
ENDBRANCH  20  22
ENDBRANCH  19  20
ENDBRANCH   1  19
TORSDOF 5
ENDMDL
MODEL 9
REMARK VINA RESULT:      -6.5      4.412      9.275
REMARK  Name = 
REMARK  6 active torsions:
REMARK  status: ('A' for Active; 'I' for Inactive)
REMARK    1  A    between atoms: C_1  and  C_2
REMARK    2  A    between atoms: C_2  and  C_3
REMARK    3  A    between atoms: C_3  and  C_4
REMARK    4  A    between atoms: C_4  and  N_5
REMARK    5  A    between atoms: C_9  and  C_11
REMARK    6  A    between atoms: C_13  and  C_14
REMARK                            x       y       z     vdW  Elec       q    Type
REMARK                         _______ _______ _______ _____ _____    ______ ____
ROOT
ATOM      1  N   UNL     1      -0.637  10.760  22.092  0.00  0.00    +0.000 N 
ATOM      2  C   UNL     1      -0.189  11.707  21.071  0.00  0.00    +0.000 C 
ATOM      3  C   UNL     1       1.182  11.354  20.512  0.00  0.00    +0.000 C 
ATOM      4  N   UNL     1       1.149   9.997  19.988  0.00  0.00    +0.000 N 
ATOM      5  C   UNL     1       1.648   9.742  18.719  0.00  0.00    +0.000 C 
ATOM      6  O   UNL     1       2.034  10.633  17.970  0.00  0.00    +0.000 OA
ATOM      7  C   UNL     1       0.696   8.977  20.936  0.00  0.00    +0.000 C 
ATOM      8  C   UNL     1      -0.339   9.406  21.993  0.00  0.00    +0.000 C 
ATOM      9  O   UNL     1      -0.813   8.560  22.753  0.00  0.00    +0.000 OA
ENDROOT
BRANCH   5  10
ATOM     10  C   UNL     1       1.680   8.326  18.254  0.00  0.00    +0.000 C 
ATOM     11  C   UNL     1       2.892   7.820  17.516  0.00  0.00    +0.000 C 
ATOM     12  C   UNL     1       2.605   7.314  18.912  0.00  0.00    +0.000 C 
BRANCH  12  13
ATOM     13  C   UNL     1       2.123   5.893  19.098  0.00  0.00    +0.000 A 
ATOM     14  C   UNL     1       2.056   5.002  18.016  0.00  0.00    +0.000 A 
ATOM     15  C   UNL     1       1.589   3.693  18.178  0.00  0.00    +0.000 A 
ATOM     16  C   UNL     1       1.186   3.248  19.432  0.00  0.00    +0.000 A 
ATOM     17  C   UNL     1       1.255   4.106  20.527  0.00  0.00    +0.000 A 
ATOM     18  C   UNL     1       1.729   5.410  20.358  0.00  0.00    +0.000 A 
ENDBRANCH  12  13
ENDBRANCH   5  10
BRANCH   1  19
ATOM     19  C   UNL     1      -1.592  11.222  23.095  0.00  0.00    +0.000 C 
BRANCH  19  20
ATOM     20  C   UNL     1      -2.495  12.349  22.590  0.00  0.00    +0.000 C 
BRANCH  20  22
ATOM     21  C   UNL     1      -3.968  14.028  23.748  0.00  0.00    +0.000 C 
ATOM     22  C   UNL     1      -2.551  13.501  23.592  0.00  0.00    +0.000 C 
ENDBRANCH  20  22
ENDBRANCH  19  20
ENDBRANCH   1  19
TORSDOF 5
ENDMDL
