MODEL 1
REMARK VINA RESULT:      -9.1      0.000      0.000
REMARK  Name = 
REMARK  12 active torsions:
REMARK  status: ('A' for Active; 'I' for Inactive)
REMARK    1  A    between atoms: C_1  and  C_2
REMARK    2  A    between atoms: C_2  and  C_3
REMARK    3  A    between atoms: C_3  and  C_4
REMARK    4  A    between atoms: N_6  and  S_7
REMARK    5  A    between atoms: S_7  and  C_10
REMARK    6  A    between atoms: C_15  and  C_16
REMARK    7  A    between atoms: C_19  and  C_20
REMARK    8  A    between atoms: C_20  and  N_21
REMARK    9  A    between atoms: C_22  and  C_23
REMARK   10  A    between atoms: C_23  and  C_24
REMARK   11  A    between atoms: C_27  and  C_28
REMARK   12  A    between atoms: C_30  and  C_31
REMARK                            x       y       z     vdW  Elec       q    Type
REMARK                         _______ _______ _______ _____ _____    ______ ____
ROOT
ATOM      1  C   UNL     1       1.971   6.491  19.461  0.00  0.00    +0.000 A 
ATOM      2  C   UNL     1       2.104   6.983  18.155  0.00  0.00    +0.000 A 
ATOM      3  C   UNL     1       1.894   8.332  17.835  0.00  0.00    +0.000 A 
ATOM      4  C   UNL     1       1.618   9.269  18.832  0.00  0.00    +0.000 A 
ATOM      5  C   UNL     1       1.557   8.825  20.154  0.00  0.00    +0.000 A 
ATOM      6  C   UNL     1       1.706   7.463  20.453  0.00  0.00    +0.000 A 
ENDROOT
BRANCH   1  12
ATOM      7  C   UNL     1       3.319   4.256  19.682  0.00  0.00    +0.000 A 
ATOM      8  C   UNL     1       3.317   2.902  20.092  0.00  0.00    +0.000 A 
ATOM      9  C   UNL     1       2.186   2.299  20.625  0.00  0.00    +0.000 A 
ATOM     10  C   UNL     1       1.039   3.047  20.790  0.00  0.00    +0.000 A 
ATOM     11  C   UNL     1       1.033   4.395  20.415  0.00  0.00    +0.000 A 
ATOM     12  C   UNL     1       2.155   5.052  19.836  0.00  0.00    +0.000 A 
BRANCH   7  13
ATOM     13  S   UNL     1       4.851   4.881  19.004  0.00  0.00    +0.000 S 
ATOM     14  O   UNL     1       5.886   3.923  19.339  0.00  0.00    +0.000 OA
ATOM     15  O   UNL     1       4.976   6.286  19.303  0.00  0.00    +0.000 OA
BRANCH  13  18
ATOM     16  C   UNL     1       5.747   4.926  16.417  0.00  0.00    +0.000 C 
ATOM     17  O   UNL     1       6.861   5.336  16.710  0.00  0.00    +0.000 OA
ATOM     18  N   UNL     1       4.737   4.697  17.354  0.00  0.00    +0.000 N 
ATOM     19  H   UNL     1       3.855   4.273  17.086  0.00  0.00    +0.000 HD
BRANCH  16  20
ATOM     20  C   UNL     1       5.305   4.756  14.980  0.00  0.00    +0.000 C 
BRANCH  20  22
ATOM     21  C   UNL     1       5.841   3.574  12.786  0.00  0.00    +0.000 C 
ATOM     22  C   UNL     1       6.327   3.945  14.181  0.00  0.00    +0.000 C 
ENDBRANCH  20  22
ENDBRANCH  16  20
ENDBRANCH  13  18
ENDBRANCH   7  13
ENDBRANCH   1  12
BRANCH   4  23
ATOM     23  C   UNL     1       1.323  10.703  18.476  0.00  0.00    +0.000 C 
BRANCH  23  24
ATOM     24  N   UNL     1      -0.001  11.202  18.844  0.00  0.00    +0.000 N 
ATOM     25  C   UNL     1      -0.277  11.911  20.006  0.00  0.00    +0.000 A 
ATOM     26  N   UNL     1      -1.570  12.152  20.121  0.00  0.00    +0.000 NA
ATOM     27  C   UNL     1      -2.152  11.608  19.004  0.00  0.00    +0.000 A 
ATOM     28  C   UNL     1      -3.496  11.543  18.602  0.00  0.00    +0.000 A 
ATOM     29  C   UNL     1      -4.634  12.081  19.408  0.00  0.00    +0.000 C 
ATOM     30  C   UNL     1      -3.744  10.924  17.363  0.00  0.00    +0.000 A 
ATOM     31  C   UNL     1      -2.693  10.398  16.614  0.00  0.00    +0.000 A 
ATOM     32  C   UNL     1      -2.956   9.772  15.277  0.00  0.00    +0.000 C 
ATOM     33  N   UNL     1      -1.404  10.426  17.005  0.00  0.00    +0.000 NA
ATOM     34  C   UNL     1      -1.193  11.033  18.184  0.00  0.00    +0.000 A 
BRANCH  25  35
ATOM     35  C   UNL     1       0.746  12.320  21.019  0.00  0.00    +0.000 C 
ATOM     36  C   UNL     1       1.323  13.695  20.726  0.00  0.00    +0.000 C 
ENDBRANCH  25  35
ENDBRANCH  23  24
ENDBRANCH   4  23
TORSDOF 8
ENDMDL
MODEL 2
REMARK VINA RESULT:      -9.0      3.477      9.738
REMARK  Name = 
REMARK  12 active torsions:
REMARK  status: ('A' for Active; 'I' for Inactive)
REMARK    1  A    between atoms: C_1  and  C_2
REMARK    2  A    between atoms: C_2  and  C_3
REMARK    3  A    between atoms: C_3  and  C_4
REMARK    4  A    between atoms: N_6  and  S_7
REMARK    5  A    between atoms: S_7  and  C_10
REMARK    6  A    between atoms: C_15  and  C_16
REMARK    7  A    between atoms: C_19  and  C_20
REMARK    8  A    between atoms: C_20  and  N_21
REMARK    9  A    between atoms: C_22  and  C_23
REMARK   10  A    between atoms: C_23  and  C_24
REMARK   11  A    between atoms: C_27  and  C_28
REMARK   12  A    between atoms: C_30  and  C_31
REMARK                            x       y       z     vdW  Elec       q    Type
REMARK                         _______ _______ _______ _____ _____    ______ ____
ROOT
ATOM      1  C   UNL     1       1.159   9.934  19.065  0.00  0.00    +0.000 A 
ATOM      2  C   UNL     1       1.715   9.218  17.997  0.00  0.00    +0.000 A 
ATOM      3  C   UNL     1       2.276   7.942  18.157  0.00  0.00    +0.000 A 
ATOM      4  C   UNL     1       2.230   7.291  19.390  0.00  0.00    +0.000 A 
ATOM      5  C   UNL     1       1.613   7.945  20.457  0.00  0.00    +0.000 A 
ATOM      6  C   UNL     1       1.112   9.246  20.300  0.00  0.00    +0.000 A 
ENDROOT
BRANCH   1  12
ATOM      7  C   UNL     1      -0.712  11.673  18.484  0.00  0.00    +0.000 A 
ATOM      8  C   UNL     1      -1.095  13.034  18.428  0.00  0.00    +0.000 A 
ATOM      9  C   UNL     1      -0.224  14.056  18.782  0.00  0.00    +0.000 A 
ATOM     10  C   UNL     1       1.040  13.736  19.232  0.00  0.00    +0.000 A 
ATOM     11  C   UNL     1       1.424  12.394  19.320  0.00  0.00    +0.000 A 
ATOM     12  C   UNL     1       0.582  11.312  18.940  0.00  0.00    +0.000 A 
BRANCH   7  13
ATOM     13  S   UNL     1      -1.944  10.477  17.983  0.00  0.00    +0.000 S 
ATOM     14  O   UNL     1      -2.152   9.585  19.106  0.00  0.00    +0.000 OA
ATOM     15  O   UNL     1      -1.640   9.992  16.659  0.00  0.00    +0.000 OA
BRANCH  13  18
ATOM     16  C   UNL     1      -4.290  11.334  16.859  0.00  0.00    +0.000 C 
ATOM     17  O   UNL     1      -4.094  10.773  15.792  0.00  0.00    +0.000 OA
ATOM     18  N   UNL     1      -3.391  11.299  17.927  0.00  0.00    +0.000 N 
ATOM     19  H   UNL     1      -3.625  11.702  18.828  0.00  0.00    +0.000 HD
BRANCH  16  20
ATOM     20  C   UNL     1      -5.476  12.246  17.082  0.00  0.00    +0.000 C 
BRANCH  20  22
ATOM     21  C   UNL     1      -6.886  10.850  18.682  0.00  0.00    +0.000 C 
ATOM     22  C   UNL     1      -6.028  12.095  18.501  0.00  0.00    +0.000 C 
ENDBRANCH  20  22
ENDBRANCH  16  20
ENDBRANCH  13  18
ENDBRANCH   7  13
ENDBRANCH   1  12
BRANCH   4  23
ATOM     23  C   UNL     1       2.896   5.952  19.575  0.00  0.00    +0.000 C 
BRANCH  23  24
ATOM     24  N   UNL     1       3.446   5.330  18.372  0.00  0.00    +0.000 N 
ATOM     25  C   UNL     1       2.832   4.301  17.671  0.00  0.00    +0.000 A 
ATOM     26  N   UNL     1       3.600   3.874  16.684  0.00  0.00    +0.000 NA
ATOM     27  C   UNL     1       4.730   4.651  16.728  0.00  0.00    +0.000 A 
ATOM     28  C   UNL     1       5.891   4.636  15.938  0.00  0.00    +0.000 A 
ATOM     29  C   UNL     1       6.132   3.663  14.829  0.00  0.00    +0.000 C 
ATOM     30  C   UNL     1       6.863   5.606  16.243  0.00  0.00    +0.000 A 
ATOM     31  C   UNL     1       6.658   6.504  17.291  0.00  0.00    +0.000 A 
ATOM     32  C   UNL     1       7.679   7.561  17.590  0.00  0.00    +0.000 C 
ATOM     33  N   UNL     1       5.563   6.507  18.075  0.00  0.00    +0.000 NA
ATOM     34  C   UNL     1       4.646   5.580  17.754  0.00  0.00    +0.000 A 
BRANCH  25  35
ATOM     35  C   UNL     1       1.495   3.721  18.005  0.00  0.00    +0.000 C 
ATOM     36  C   UNL     1       1.613   2.450  18.829  0.00  0.00    +0.000 C 
ENDBRANCH  25  35
ENDBRANCH  23  24
ENDBRANCH   4  23
TORSDOF 8
ENDMDL
MODEL 3
REMARK VINA RESULT:      -9.0      3.523      9.286
REMARK  Name = 
REMARK  12 active torsions:
REMARK  status: ('A' for Active; 'I' for Inactive)
REMARK    1  A    between atoms: C_1  and  C_2
REMARK    2  A    between atoms: C_2  and  C_3
REMARK    3  A    between atoms: C_3  and  C_4
REMARK    4  A    between atoms: N_6  and  S_7
REMARK    5  A    between atoms: S_7  and  C_10
REMARK    6  A    between atoms: C_15  and  C_16
REMARK    7  A    between atoms: C_19  and  C_20
REMARK    8  A    between atoms: C_20  and  N_21
REMARK    9  A    between atoms: C_22  and  C_23
REMARK   10  A    between atoms: C_23  and  C_24
REMARK   11  A    between atoms: C_27  and  C_28
REMARK   12  A    between atoms: C_30  and  C_31
REMARK                            x       y       z     vdW  Elec       q    Type
REMARK                         _______ _______ _______ _____ _____    ______ ____
ROOT
ATOM      1  C   UNL     1       1.317  10.099  18.945  0.00  0.00    +0.000 A 
ATOM      2  C   UNL     1       1.800   9.331  17.877  0.00  0.00    +0.000 A 
ATOM      3  C   UNL     1       2.285   8.026  18.048  0.00  0.00    +0.000 A 
ATOM      4  C   UNL     1       2.231   7.401  19.295  0.00  0.00    +0.000 A 
ATOM      5  C   UNL     1       1.683   8.112  20.364  0.00  0.00    +0.000 A 
ATOM      6  C   UNL     1       1.260   9.438  20.193  0.00  0.00    +0.000 A 
ENDROOT
BRANCH   1  12
ATOM      7  C   UNL     1      -0.502  11.940  18.541  0.00  0.00    +0.000 A 
ATOM      8  C   UNL     1      -0.796  13.321  18.441  0.00  0.00    +0.000 A 
ATOM      9  C   UNL     1       0.190  14.291  18.565  0.00  0.00    +0.000 A 
ATOM     10  C   UNL     1       1.488  13.901  18.825  0.00  0.00    +0.000 A 
ATOM     11  C   UNL     1       1.789  12.541  18.955  0.00  0.00    +0.000 A 
ATOM     12  C   UNL     1       0.822  11.507  18.806  0.00  0.00    +0.000 A 
BRANCH   7  13
ATOM     13  S   UNL     1      -1.880  10.817  18.346  0.00  0.00    +0.000 S 
ATOM     14  O   UNL     1      -3.091  11.594  18.531  0.00  0.00    +0.000 OA
ATOM     15  O   UNL     1      -1.624   9.603  19.080  0.00  0.00    +0.000 OA
BRANCH  13  18
ATOM     16  C   UNL     1      -3.046  10.641  15.874  0.00  0.00    +0.000 C 
ATOM     17  O   UNL     1      -4.123  11.081  16.246  0.00  0.00    +0.000 OA
ATOM     18  N   UNL     1      -1.954  10.451  16.724  0.00  0.00    +0.000 N 
ATOM     19  H   UNL     1      -1.048  10.168  16.365  0.00  0.00    +0.000 HD
BRANCH  16  20
ATOM     20  C   UNL     1      -2.830  10.123  14.469  0.00  0.00    +0.000 C 
BRANCH  20  22
ATOM     21  C   UNL     1      -4.024   9.792  12.241  0.00  0.00    +0.000 C 
ATOM     22  C   UNL     1      -4.164   9.900  13.754  0.00  0.00    +0.000 C 
ENDBRANCH  20  22
ENDBRANCH  16  20
ENDBRANCH  13  18
ENDBRANCH   7  13
ENDBRANCH   1  12
BRANCH   4  23
ATOM     23  C   UNL     1       2.818   6.028  19.490  0.00  0.00    +0.000 C 
BRANCH  23  24
ATOM     24  N   UNL     1       3.393   5.394  18.305  0.00  0.00    +0.000 N 
ATOM     25  C   UNL     1       2.789   4.364  17.596  0.00  0.00    +0.000 A 
ATOM     26  N   UNL     1       3.577   3.925  16.630  0.00  0.00    +0.000 NA
ATOM     27  C   UNL     1       4.710   4.696  16.695  0.00  0.00    +0.000 A 
ATOM     28  C   UNL     1       5.889   4.668  15.933  0.00  0.00    +0.000 A 
ATOM     29  C   UNL     1       6.150   3.686  14.836  0.00  0.00    +0.000 C 
ATOM     30  C   UNL     1       6.859   5.635  16.254  0.00  0.00    +0.000 A 
ATOM     31  C   UNL     1       6.636   6.541  17.290  0.00  0.00    +0.000 A 
ATOM     32  C   UNL     1       7.656   7.594  17.605  0.00  0.00    +0.000 C 
ATOM     33  N   UNL     1       5.523   6.556  18.048  0.00  0.00    +0.000 NA
ATOM     34  C   UNL     1       4.608   5.632  17.712  0.00  0.00    +0.000 A 
BRANCH  25  35
ATOM     35  C   UNL     1       1.441   3.793  17.903  0.00  0.00    +0.000 C 
ATOM     36  C   UNL     1       1.528   2.570  18.800  0.00  0.00    +0.000 C 
ENDBRANCH  25  35
ENDBRANCH  23  24
ENDBRANCH   4  23
TORSDOF 8
ENDMDL
MODEL 4
REMARK VINA RESULT:      -8.9      0.613      1.038
REMARK  Name = 
REMARK  12 active torsions:
REMARK  status: ('A' for Active; 'I' for Inactive)
REMARK    1  A    between atoms: C_1  and  C_2
REMARK    2  A    between atoms: C_2  and  C_3
REMARK    3  A    between atoms: C_3  and  C_4
REMARK    4  A    between atoms: N_6  and  S_7
REMARK    5  A    between atoms: S_7  and  C_10
REMARK    6  A    between atoms: C_15  and  C_16
REMARK    7  A    between atoms: C_19  and  C_20
REMARK    8  A    between atoms: C_20  and  N_21
REMARK    9  A    between atoms: C_22  and  C_23
REMARK   10  A    between atoms: C_23  and  C_24
REMARK   11  A    between atoms: C_27  and  C_28
REMARK   12  A    between atoms: C_30  and  C_31
REMARK                            x       y       z     vdW  Elec       q    Type
REMARK                         _______ _______ _______ _____ _____    ______ ____
ROOT
ATOM      1  C   UNL     1       2.173   6.653  19.414  0.00  0.00    +0.000 A 
ATOM      2  C   UNL     1       1.800   7.547  20.427  0.00  0.00    +0.000 A 
ATOM      3  C   UNL     1       1.494   8.891  20.169  0.00  0.00    +0.000 A 
ATOM      4  C   UNL     1       1.470   9.380  18.862  0.00  0.00    +0.000 A 
ATOM      5  C   UNL     1       1.761   8.495  17.822  0.00  0.00    +0.000 A 
ATOM      6  C   UNL     1       2.127   7.170  18.099  0.00  0.00    +0.000 A 
ENDROOT
BRANCH   1  12
ATOM      7  C   UNL     1       3.779   4.583  19.389  0.00  0.00    +0.000 A 
ATOM      8  C   UNL     1       3.954   3.210  19.681  0.00  0.00    +0.000 A 
ATOM      9  C   UNL     1       2.927   2.435  20.203  0.00  0.00    +0.000 A 
ATOM     10  C   UNL     1       1.710   3.026  20.476  0.00  0.00    +0.000 A 
ATOM     11  C   UNL     1       1.531   4.389  20.219  0.00  0.00    +0.000 A 
ATOM     12  C   UNL     1       2.540   5.220  19.656  0.00  0.00    +0.000 A 
BRANCH   7  13
ATOM     13  S   UNL     1       5.194   5.439  18.709  0.00  0.00    +0.000 S 
ATOM     14  O   UNL     1       6.303   5.214  19.616  0.00  0.00    +0.000 OA
ATOM     15  O   UNL     1       4.803   6.760  18.283  0.00  0.00    +0.000 OA
BRANCH  13  18
ATOM     16  C   UNL     1       6.609   4.949  16.416  0.00  0.00    +0.000 C 
ATOM     17  O   UNL     1       7.193   6.022  16.435  0.00  0.00    +0.000 OA
ATOM     18  N   UNL     1       5.664   4.568  17.371  0.00  0.00    +0.000 N 
ATOM     19  H   UNL     1       5.264   3.635  17.375  0.00  0.00    +0.000 HD
BRANCH  16  20
ATOM     20  C   UNL     1       6.750   3.976  15.266  0.00  0.00    +0.000 C 
BRANCH  20  22
ATOM     21  C   UNL     1       6.055   3.597  12.843  0.00  0.00    +0.000 C 
ATOM     22  C   UNL     1       5.721   4.265  14.171  0.00  0.00    +0.000 C 
ENDBRANCH  20  22
ENDBRANCH  16  20
ENDBRANCH  13  18
ENDBRANCH   7  13
ENDBRANCH   1  12
BRANCH   4  23
ATOM     23  C   UNL     1       1.211  10.840  18.594  0.00  0.00    +0.000 C 
BRANCH  23  24
ATOM     24  N   UNL     1      -0.124  11.333  18.927  0.00  0.00    +0.000 N 
ATOM     25  C   UNL     1      -0.431  12.051  20.075  0.00  0.00    +0.000 A 
ATOM     26  N   UNL     1      -1.729  12.283  20.158  0.00  0.00    +0.000 NA
ATOM     27  C   UNL     1      -2.280  11.724  19.034  0.00  0.00    +0.000 A 
ATOM     28  C   UNL     1      -3.614  11.646  18.602  0.00  0.00    +0.000 A 
ATOM     29  C   UNL     1      -4.774  12.183  19.376  0.00  0.00    +0.000 C 
ATOM     30  C   UNL     1      -3.830  11.013  17.364  0.00  0.00    +0.000 A 
ATOM     31  C   UNL     1      -2.758  10.487  16.644  0.00  0.00    +0.000 A 
ATOM     32  C   UNL     1      -2.987   9.847  15.307  0.00  0.00    +0.000 C 
ATOM     33  N   UNL     1      -1.479  10.528  17.064  0.00  0.00    +0.000 NA
ATOM     34  C   UNL     1      -1.299  11.149  18.241  0.00  0.00    +0.000 A 
BRANCH  25  35
ATOM     35  C   UNL     1       0.565  12.476  21.107  0.00  0.00    +0.000 C 
ATOM     36  C   UNL     1       0.232  13.836  21.698  0.00  0.00    +0.000 C 
ENDBRANCH  25  35
ENDBRANCH  23  24
ENDBRANCH   4  23
TORSDOF 8
ENDMDL
MODEL 5
REMARK VINA RESULT:      -8.6      2.228      5.086
REMARK  Name = 
REMARK  12 active torsions:
REMARK  status: ('A' for Active; 'I' for Inactive)
REMARK    1  A    between atoms: C_1  and  C_2
REMARK    2  A    between atoms: C_2  and  C_3
REMARK    3  A    between atoms: C_3  and  C_4
REMARK    4  A    between atoms: N_6  and  S_7
REMARK    5  A    between atoms: S_7  and  C_10
REMARK    6  A    between atoms: C_15  and  C_16
REMARK    7  A    between atoms: C_19  and  C_20
REMARK    8  A    between atoms: C_20  and  N_21
REMARK    9  A    between atoms: C_22  and  C_23
REMARK   10  A    between atoms: C_23  and  C_24
REMARK   11  A    between atoms: C_27  and  C_28
REMARK   12  A    between atoms: C_30  and  C_31
REMARK                            x       y       z     vdW  Elec       q    Type
REMARK                         _______ _______ _______ _____ _____    ______ ____
ROOT
ATOM      1  C   UNL     1       2.963   7.140  18.325  0.00  0.00    +0.000 A 
ATOM      2  C   UNL     1       2.408   8.278  17.724  0.00  0.00    +0.000 A 
ATOM      3  C   UNL     1       1.498   9.112  18.390  0.00  0.00    +0.000 A 
ATOM      4  C   UNL     1       1.163   8.882  19.725  0.00  0.00    +0.000 A 
ATOM      5  C   UNL     1       1.758   7.801  20.376  0.00  0.00    +0.000 A 
ATOM      6  C   UNL     1       2.618   6.939  19.681  0.00  0.00    +0.000 A 
ENDROOT
BRANCH   1  12
ATOM      7  C   UNL     1       3.676   4.868  17.233  0.00  0.00    +0.000 A 
ATOM      8  C   UNL     1       4.694   4.126  16.589  0.00  0.00    +0.000 A 
ATOM      9  C   UNL     1       5.955   4.660  16.355  0.00  0.00    +0.000 A 
ATOM     10  C   UNL     1       6.214   5.961  16.733  0.00  0.00    +0.000 A 
ATOM     11  C   UNL     1       5.210   6.717  17.345  0.00  0.00    +0.000 A 
ATOM     12  C   UNL     1       3.913   6.207  17.635  0.00  0.00    +0.000 A 
BRANCH   7  13
ATOM     13  S   UNL     1       2.112   4.035  17.470  0.00  0.00    +0.000 S 
ATOM     14  O   UNL     1       2.244   2.711  16.895  0.00  0.00    +0.000 OA
ATOM     15  O   UNL     1       1.031   4.923  17.120  0.00  0.00    +0.000 OA
BRANCH  13  18
ATOM     16  C   UNL     1       1.044   2.906  19.725  0.00  0.00    +0.000 C 
ATOM     17  O   UNL     1       0.105   2.390  19.137  0.00  0.00    +0.000 OA
ATOM     18  N   UNL     1       2.011   3.692  19.096  0.00  0.00    +0.000 N 
ATOM     19  H   UNL     1       2.825   4.031  19.599  0.00  0.00    +0.000 HD
BRANCH  16  20
ATOM     20  C   UNL     1       1.173   2.857  21.232  0.00  0.00    +0.000 C 
BRANCH  20  22
ATOM     21  C   UNL     1       3.620   2.147  21.237  0.00  0.00    +0.000 C 
ATOM     22  C   UNL     1       2.599   3.189  21.674  0.00  0.00    +0.000 C 
ENDBRANCH  20  22
ENDBRANCH  16  20
ENDBRANCH  13  18
ENDBRANCH   7  13
ENDBRANCH   1  12
BRANCH   4  23
ATOM     23  C   UNL     1       0.130   9.736  20.414  0.00  0.00    +0.000 C 
BRANCH  23  24
ATOM     24  N   UNL     1      -0.119  11.052  19.827  0.00  0.00    +0.000 N 
ATOM     25  C   UNL     1      -1.134  11.325  18.919  0.00  0.00    +0.000 A 
ATOM     26  N   UNL     1      -1.063  12.572  18.488  0.00  0.00    +0.000 NA
ATOM     27  C   UNL     1       0.006  13.131  19.140  0.00  0.00    +0.000 A 
ATOM     28  C   UNL     1       0.564  14.418  19.062  0.00  0.00    +0.000 A 
ATOM     29  C   UNL     1       0.060  15.491  18.152  0.00  0.00    +0.000 C 
ATOM     30  C   UNL     1       1.663  14.671  19.903  0.00  0.00    +0.000 A 
ATOM     31  C   UNL     1       2.156  13.669  20.739  0.00  0.00    +0.000 A 
ATOM     32  C   UNL     1       3.304  13.952  21.662  0.00  0.00    +0.000 C 
ATOM     33  N   UNL     1       1.649  12.423  20.799  0.00  0.00    +0.000 NA
ATOM     34  C   UNL     1       0.594  12.212  19.996  0.00  0.00    +0.000 A 
BRANCH  25  35
ATOM     35  C   UNL     1      -2.155  10.334  18.456  0.00  0.00    +0.000 C 
ATOM     36  C   UNL     1      -1.961   9.953  16.998  0.00  0.00    +0.000 C 
ENDBRANCH  25  35
ENDBRANCH  23  24
ENDBRANCH   4  23
TORSDOF 8
ENDMDL
MODEL 6
REMARK VINA RESULT:      -8.6      3.388      9.347
REMARK  Name = 
REMARK  12 active torsions:
REMARK  status: ('A' for Active; 'I' for Inactive)
REMARK    1  A    between atoms: C_1  and  C_2
REMARK    2  A    between atoms: C_2  and  C_3
REMARK    3  A    between atoms: C_3  and  C_4
REMARK    4  A    between atoms: N_6  and  S_7
REMARK    5  A    between atoms: S_7  and  C_10
REMARK    6  A    between atoms: C_15  and  C_16
REMARK    7  A    between atoms: C_19  and  C_20
REMARK    8  A    between atoms: C_20  and  N_21
REMARK    9  A    between atoms: C_22  and  C_23
REMARK   10  A    between atoms: C_23  and  C_24
REMARK   11  A    between atoms: C_27  and  C_28
REMARK   12  A    between atoms: C_30  and  C_31
REMARK                            x       y       z     vdW  Elec       q    Type
REMARK                         _______ _______ _______ _____ _____    ______ ____
ROOT
ATOM      1  C   UNL     1       0.696   9.738  19.250  0.00  0.00    +0.000 A 
ATOM      2  C   UNL     1       1.273   9.095  18.147  0.00  0.00    +0.000 A 
ATOM      3  C   UNL     1       2.055   7.938  18.275  0.00  0.00    +0.000 A 
ATOM      4  C   UNL     1       2.227   7.326  19.518  0.00  0.00    +0.000 A 
ATOM      5  C   UNL     1       1.601   7.899  20.626  0.00  0.00    +0.000 A 
ATOM      6  C   UNL     1       0.874   9.090  20.494  0.00  0.00    +0.000 A 
ENDROOT
BRANCH   1  12
ATOM      7  C   UNL     1       0.354  12.328  19.055  0.00  0.00    +0.000 A 
ATOM      8  C   UNL     1      -0.562  13.404  18.976  0.00  0.00    +0.000 A 
ATOM      9  C   UNL     1      -1.935  13.203  19.023  0.00  0.00    +0.000 A 
ATOM     10  C   UNL     1      -2.423  11.917  19.118  0.00  0.00    +0.000 A 
ATOM     11  C   UNL     1      -1.532  10.841  19.169  0.00  0.00    +0.000 A 
ATOM     12  C   UNL     1      -0.117  10.994  19.156  0.00  0.00    +0.000 A 
BRANCH   7  13
ATOM     13  S   UNL     1       2.090  12.753  18.993  0.00  0.00    +0.000 S 
ATOM     14  O   UNL     1       2.688  11.943  17.950  0.00  0.00    +0.000 OA
ATOM     15  O   UNL     1       2.625  12.806  20.331  0.00  0.00    +0.000 OA
BRANCH  13  18
ATOM     16  C   UNL     1       3.324  15.030  18.103  0.00  0.00    +0.000 C 
ATOM     17  O   UNL     1       4.446  14.656  18.413  0.00  0.00    +0.000 OA
ATOM     18  N   UNL     1       2.170  14.277  18.328  0.00  0.00    +0.000 N 
ATOM     19  H   UNL     1       1.266  14.579  17.979  0.00  0.00    +0.000 HD
BRANCH  16  20
ATOM     20  C   UNL     1       3.059  16.420  17.567  0.00  0.00    +0.000 C 
BRANCH  20  22
ATOM     21  C   UNL     1       0.811  17.574  17.901  0.00  0.00    +0.000 C 
ATOM     22  C   UNL     1       2.158  17.213  18.514  0.00  0.00    +0.000 C 
ENDBRANCH  20  22
ENDBRANCH  16  20
ENDBRANCH  13  18
ENDBRANCH   7  13
ENDBRANCH   1  12
BRANCH   4  23
ATOM     23  C   UNL     1       3.126   6.125  19.663  0.00  0.00    +0.000 C 
BRANCH  23  24
ATOM     24  N   UNL     1       3.598   5.515  18.421  0.00  0.00    +0.000 N 
ATOM     25  C   UNL     1       2.913   4.529  17.723  0.00  0.00    +0.000 A 
ATOM     26  N   UNL     1       3.618   4.099  16.692  0.00  0.00    +0.000 NA
ATOM     27  C   UNL     1       4.778   4.831  16.703  0.00  0.00    +0.000 A 
ATOM     28  C   UNL     1       5.902   4.791  15.862  0.00  0.00    +0.000 A 
ATOM     29  C   UNL     1       6.055   3.839  14.719  0.00  0.00    +0.000 C 
ATOM     30  C   UNL     1       6.924   5.715  16.146  0.00  0.00    +0.000 A 
ATOM     31  C   UNL     1       6.802   6.592  17.224  0.00  0.00    +0.000 A 
ATOM     32  C   UNL     1       7.876   7.601  17.502  0.00  0.00    +0.000 C 
ATOM     33  N   UNL     1       5.744   6.617  18.056  0.00  0.00    +0.000 NA
ATOM     34  C   UNL     1       4.777   5.734  17.755  0.00  0.00    +0.000 A 
BRANCH  25  35
ATOM     35  C   UNL     1       1.570   3.991  18.103  0.00  0.00    +0.000 C 
ATOM     36  C   UNL     1       1.668   2.641  18.793  0.00  0.00    +0.000 C 
ENDBRANCH  25  35
ENDBRANCH  23  24
ENDBRANCH   4  23
TORSDOF 8
ENDMDL
MODEL 7
REMARK VINA RESULT:      -8.6      3.332      9.381
REMARK  Name = 
REMARK  12 active torsions:
REMARK  status: ('A' for Active; 'I' for Inactive)
REMARK    1  A    between atoms: C_1  and  C_2
REMARK    2  A    between atoms: C_2  and  C_3
REMARK    3  A    between atoms: C_3  and  C_4
REMARK    4  A    between atoms: N_6  and  S_7
REMARK    5  A    between atoms: S_7  and  C_10
REMARK    6  A    between atoms: C_15  and  C_16
REMARK    7  A    between atoms: C_19  and  C_20
REMARK    8  A    between atoms: C_20  and  N_21
REMARK    9  A    between atoms: C_22  and  C_23
REMARK   10  A    between atoms: C_23  and  C_24
REMARK   11  A    between atoms: C_27  and  C_28
REMARK   12  A    between atoms: C_30  and  C_31
REMARK                            x       y       z     vdW  Elec       q    Type
REMARK                         _______ _______ _______ _____ _____    ______ ____
ROOT
ATOM      1  C   UNL     1       0.600   9.424  19.186  0.00  0.00    +0.000 A 
ATOM      2  C   UNL     1       0.837   8.810  20.423  0.00  0.00    +0.000 A 
ATOM      3  C   UNL     1       1.667   7.687  20.559  0.00  0.00    +0.000 A 
ATOM      4  C   UNL     1       2.363   7.176  19.463  0.00  0.00    +0.000 A 
ATOM      5  C   UNL     1       2.209   7.812  18.231  0.00  0.00    +0.000 A 
ATOM      6  C   UNL     1       1.329   8.895  18.095  0.00  0.00    +0.000 A 
ENDROOT
BRANCH   1  12
ATOM      7  C   UNL     1       0.024  11.978  19.116  0.00  0.00    +0.000 A 
ATOM      8  C   UNL     1      -0.963  12.969  18.902  0.00  0.00    +0.000 A 
ATOM      9  C   UNL     1      -2.279  12.641  18.602  0.00  0.00    +0.000 A 
ATOM     10  C   UNL     1      -2.629  11.313  18.477  0.00  0.00    +0.000 A 
ATOM     11  C   UNL     1      -1.658  10.322  18.658  0.00  0.00    +0.000 A 
ATOM     12  C   UNL     1      -0.305  10.603  18.996  0.00  0.00    +0.000 A 
BRANCH   7  13
ATOM     13  S   UNL     1       1.668  12.563  19.505  0.00  0.00    +0.000 S 
ATOM     14  O   UNL     1       2.555  12.051  18.479  0.00  0.00    +0.000 OA
ATOM     15  O   UNL     1       1.928  12.378  20.912  0.00  0.00    +0.000 OA
BRANCH  13  18
ATOM     16  C   UNL     1       2.780  15.042  19.164  0.00  0.00    +0.000 C 
ATOM     17  O   UNL     1       3.912  14.677  19.441  0.00  0.00    +0.000 OA
ATOM     18  N   UNL     1       1.670  14.194  19.175  0.00  0.00    +0.000 N 
ATOM     19  H   UNL     1       0.761  14.510  18.854  0.00  0.00    +0.000 HD
BRANCH  16  20
ATOM     20  C   UNL     1       2.442  16.496  18.915  0.00  0.00    +0.000 C 
BRANCH  20  22
ATOM     21  C   UNL     1       2.360  17.465  16.559  0.00  0.00    +0.000 C 
ATOM     22  C   UNL     1       3.238  17.052  17.733  0.00  0.00    +0.000 C 
ENDBRANCH  20  22
ENDBRANCH  16  20
ENDBRANCH  13  18
ENDBRANCH   7  13
ENDBRANCH   1  12
BRANCH   4  23
ATOM     23  C   UNL     1       3.195   5.927  19.598  0.00  0.00    +0.000 C 
BRANCH  23  24
ATOM     24  N   UNL     1       3.701   5.348  18.355  0.00  0.00    +0.000 N 
ATOM     25  C   UNL     1       3.068   4.333  17.650  0.00  0.00    +0.000 A 
ATOM     26  N   UNL     1       3.797   3.944  16.618  0.00  0.00    +0.000 NA
ATOM     27  C   UNL     1       4.919   4.732  16.637  0.00  0.00    +0.000 A 
ATOM     28  C   UNL     1       6.046   4.754  15.799  0.00  0.00    +0.000 A 
ATOM     29  C   UNL     1       6.249   3.817  14.652  0.00  0.00    +0.000 C 
ATOM     30  C   UNL     1       7.020   5.726  16.092  0.00  0.00    +0.000 A 
ATOM     31  C   UNL     1       6.851   6.590  17.173  0.00  0.00    +0.000 A 
ATOM     32  C   UNL     1       7.872   7.649  17.461  0.00  0.00    +0.000 C 
ATOM     33  N   UNL     1       5.790   6.557  18.003  0.00  0.00    +0.000 NA
ATOM     34  C   UNL     1       4.870   5.629  17.694  0.00  0.00    +0.000 A 
BRANCH  25  35
ATOM     35  C   UNL     1       1.752   3.727  18.022  0.00  0.00    +0.000 C 
ATOM     36  C   UNL     1       1.908   2.328  18.596  0.00  0.00    +0.000 C 
ENDBRANCH  25  35
ENDBRANCH  23  24
ENDBRANCH   4  23
TORSDOF 8
ENDMDL
MODEL 8
REMARK VINA RESULT:      -8.4      3.615      9.845
REMARK  Name = 
REMARK  12 active torsions:
REMARK  status: ('A' for Active; 'I' for Inactive)
REMARK    1  A    between atoms: C_1  and  C_2
REMARK    2  A    between atoms: C_2  and  C_3
REMARK    3  A    between atoms: C_3  and  C_4
REMARK    4  A    between atoms: N_6  and  S_7
REMARK    5  A    between atoms: S_7  and  C_10
REMARK    6  A    between atoms: C_15  and  C_16
REMARK    7  A    between atoms: C_19  and  C_20
REMARK    8  A    between atoms: C_20  and  N_21
REMARK    9  A    between atoms: C_22  and  C_23
REMARK   10  A    between atoms: C_23  and  C_24
REMARK   11  A    between atoms: C_27  and  C_28
REMARK   12  A    between atoms: C_30  and  C_31
REMARK                            x       y       z     vdW  Elec       q    Type
REMARK                         _______ _______ _______ _____ _____    ______ ____
ROOT
ATOM      1  C   UNL     1       1.322  10.127  18.969  0.00  0.00    +0.000 A 
ATOM      2  C   UNL     1       1.782   9.351  17.897  0.00  0.00    +0.000 A 
ATOM      3  C   UNL     1       2.254   8.041  18.065  0.00  0.00    +0.000 A 
ATOM      4  C   UNL     1       2.208   7.420  19.314  0.00  0.00    +0.000 A 
ATOM      5  C   UNL     1       1.682   8.139  20.388  0.00  0.00    +0.000 A 
ATOM      6  C   UNL     1       1.272   9.469  20.220  0.00  0.00    +0.000 A 
ENDROOT
BRANCH   1  12
ATOM      7  C   UNL     1      -0.456  11.988  18.480  0.00  0.00    +0.000 A 
ATOM      8  C   UNL     1      -0.738  13.372  18.397  0.00  0.00    +0.000 A 
ATOM      9  C   UNL     1       0.238  14.333  18.625  0.00  0.00    +0.000 A 
ATOM     10  C   UNL     1       1.510  13.930  18.973  0.00  0.00    +0.000 A 
ATOM     11  C   UNL     1       1.797  12.566  19.087  0.00  0.00    +0.000 A 
ATOM     12  C   UNL     1       0.842  11.541  18.834  0.00  0.00    +0.000 A 
BRANCH   7  13
ATOM     13  S   UNL     1      -1.818  10.877  18.147  0.00  0.00    +0.000 S 
ATOM     14  O   UNL     1      -1.856   9.915  19.230  0.00  0.00    +0.000 OA
ATOM     15  O   UNL     1      -1.791  10.478  16.761  0.00  0.00    +0.000 OA
BRANCH  13  18
ATOM     16  C   UNL     1      -3.625  12.300  19.634  0.00  0.00    +0.000 C 
ATOM     17  O   UNL     1      -3.012  12.163  20.682  0.00  0.00    +0.000 OA
ATOM     18  N   UNL     1      -3.207  11.753  18.419  0.00  0.00    +0.000 N 
ATOM     19  H   UNL     1      -3.692  11.960  17.552  0.00  0.00    +0.000 HD
BRANCH  16  20
ATOM     20  C   UNL     1      -4.982  12.966  19.576  0.00  0.00    +0.000 C 
BRANCH  20  22
ATOM     21  C   UNL     1      -6.804  11.510  18.547  0.00  0.00    +0.000 C 
ATOM     22  C   UNL     1      -6.103  11.954  19.824  0.00  0.00    +0.000 C 
ENDBRANCH  20  22
ENDBRANCH  16  20
ENDBRANCH  13  18
ENDBRANCH   7  13
ENDBRANCH   1  12
BRANCH   4  23
ATOM     23  C   UNL     1       2.780   6.039  19.505  0.00  0.00    +0.000 C 
BRANCH  23  24
ATOM     24  N   UNL     1       3.357   5.407  18.319  0.00  0.00    +0.000 N 
ATOM     25  C   UNL     1       2.753   4.381  17.606  0.00  0.00    +0.000 A 
ATOM     26  N   UNL     1       3.543   3.943  16.641  0.00  0.00    +0.000 NA
ATOM     27  C   UNL     1       4.678   4.710  16.712  0.00  0.00    +0.000 A 
ATOM     28  C   UNL     1       5.860   4.681  15.954  0.00  0.00    +0.000 A 
ATOM     29  C   UNL     1       6.122   3.701  14.856  0.00  0.00    +0.000 C 
ATOM     30  C   UNL     1       6.831   5.644  16.281  0.00  0.00    +0.000 A 
ATOM     31  C   UNL     1       6.607   6.548  17.319  0.00  0.00    +0.000 A 
ATOM     32  C   UNL     1       7.629   7.597  17.641  0.00  0.00    +0.000 C 
ATOM     33  N   UNL     1       5.491   6.564  18.073  0.00  0.00    +0.000 NA
ATOM     34  C   UNL     1       4.575   5.643  17.732  0.00  0.00    +0.000 A 
BRANCH  25  35
ATOM     35  C   UNL     1       1.402   3.813  17.907  0.00  0.00    +0.000 C 
ATOM     36  C   UNL     1       1.484   2.571  18.778  0.00  0.00    +0.000 C 
ENDBRANCH  25  35
ENDBRANCH  23  24
ENDBRANCH   4  23
TORSDOF 8
ENDMDL
MODEL 9
REMARK VINA RESULT:      -8.4      1.133      3.187
REMARK  Name = 
REMARK  12 active torsions:
REMARK  status: ('A' for Active; 'I' for Inactive)
REMARK    1  A    between atoms: C_1  and  C_2
REMARK    2  A    between atoms: C_2  and  C_3
REMARK    3  A    between atoms: C_3  and  C_4
REMARK    4  A    between atoms: N_6  and  S_7
REMARK    5  A    between atoms: S_7  and  C_10
REMARK    6  A    between atoms: C_15  and  C_16
REMARK    7  A    between atoms: C_19  and  C_20
REMARK    8  A    between atoms: C_20  and  N_21
REMARK    9  A    between atoms: C_22  and  C_23
REMARK   10  A    between atoms: C_23  and  C_24
REMARK   11  A    between atoms: C_27  and  C_28
REMARK   12  A    between atoms: C_30  and  C_31
REMARK                            x       y       z     vdW  Elec       q    Type
REMARK                         _______ _______ _______ _____ _____    ______ ____
ROOT
ATOM      1  C   UNL     1       2.225   6.452  19.261  0.00  0.00    +0.000 A 
ATOM      2  C   UNL     1       1.880   7.399  20.234  0.00  0.00    +0.000 A 
ATOM      3  C   UNL     1       1.683   8.754  19.930  0.00  0.00    +0.000 A 
ATOM      4  C   UNL     1       1.746   9.206  18.611  0.00  0.00    +0.000 A 
ATOM      5  C   UNL     1       2.011   8.274  17.607  0.00  0.00    +0.000 A 
ATOM      6  C   UNL     1       2.267   6.934  17.932  0.00  0.00    +0.000 A 
ENDROOT
BRANCH   1  12
ATOM      7  C   UNL     1       3.673   4.271  19.347  0.00  0.00    +0.000 A 
ATOM      8  C   UNL     1       3.735   2.897  19.680  0.00  0.00    +0.000 A 
ATOM      9  C   UNL     1       2.637   2.215  20.186  0.00  0.00    +0.000 A 
ATOM     10  C   UNL     1       1.460   2.901  20.400  0.00  0.00    +0.000 A 
ATOM     11  C   UNL     1       1.390   4.265  20.102  0.00  0.00    +0.000 A 
ATOM     12  C   UNL     1       2.476   5.004  19.553  0.00  0.00    +0.000 A 
BRANCH   7  13
ATOM     13  S   UNL     1       5.170   5.001  18.695  0.00  0.00    +0.000 S 
ATOM     14  O   UNL     1       6.261   4.112  19.040  0.00  0.00    +0.000 OA
ATOM     15  O   UNL     1       5.196   6.410  19.003  0.00  0.00    +0.000 OA
BRANCH  13  18
ATOM     16  C   UNL     1       5.967   5.366  16.101  0.00  0.00    +0.000 C 
ATOM     17  O   UNL     1       6.904   6.095  16.392  0.00  0.00    +0.000 OA
ATOM     18  N   UNL     1       5.092   4.820  17.042  0.00  0.00    +0.000 N 
ATOM     19  H   UNL     1       4.380   4.150  16.774  0.00  0.00    +0.000 HD
BRANCH  16  20
ATOM     20  C   UNL     1       5.576   5.094  14.665  0.00  0.00    +0.000 C 
BRANCH  20  22
ATOM     21  C   UNL     1       5.939   3.539  12.678  0.00  0.00    +0.000 C 
ATOM     22  C   UNL     1       6.255   3.827  14.140  0.00  0.00    +0.000 C 
ENDBRANCH  20  22
ENDBRANCH  16  20
ENDBRANCH  13  18
ENDBRANCH   7  13
ENDBRANCH   1  12
BRANCH   4  23
ATOM     23  C   UNL     1       1.605  10.673  18.297  0.00  0.00    +0.000 C 
BRANCH  23  24
ATOM     24  N   UNL     1       0.521  11.380  18.976  0.00  0.00    +0.000 N 
ATOM     25  C   UNL     1      -0.829  11.110  18.792  0.00  0.00    +0.000 A 
ATOM     26  N   UNL     1      -1.581  11.964  19.461  0.00  0.00    +0.000 NA
ATOM     27  C   UNL     1      -0.709  12.799  20.112  0.00  0.00    +0.000 A 
ATOM     28  C   UNL     1      -0.938  13.902  20.950  0.00  0.00    +0.000 A 
ATOM     29  C   UNL     1      -2.298  14.425  21.287  0.00  0.00    +0.000 C 
ATOM     30  C   UNL     1       0.204  14.528  21.480  0.00  0.00    +0.000 A 
ATOM     31  C   UNL     1       1.478  14.064  21.155  0.00  0.00    +0.000 A 
ATOM     32  C   UNL     1       2.693  14.710  21.750  0.00  0.00    +0.000 C 
ATOM     33  N   UNL     1       1.711  13.027  20.327  0.00  0.00    +0.000 NA
ATOM     34  C   UNL     1       0.603  12.440  19.845  0.00  0.00    +0.000 A 
BRANCH  25  35
ATOM     35  C   UNL     1      -1.369  10.020  17.921  0.00  0.00    +0.000 C 
ATOM     36  C   UNL     1      -2.312  10.553  16.855  0.00  0.00    +0.000 C 
ENDBRANCH  25  35
ENDBRANCH  23  24
ENDBRANCH   4  23
TORSDOF 8
ENDMDL
