MODEL 1
REMARK VINA RESULT:      -7.8      0.000      0.000
REMARK  Name = 
REMARK  13 active torsions:
REMARK  status: ('A' for Active; 'I' for Inactive)
REMARK    1  A    between atoms: C_1  and  C_2
REMARK    2  A    between atoms: C_2  and  C_3
REMARK    3  A    between atoms: C_3  and  C_4
REMARK    4  A    between atoms: C_4  and  C_5
REMARK    5  A    between atoms: C_5  and  C_6
REMARK    6  A    between atoms: C_6  and  C_7
REMARK    7  A    between atoms: C_7  and  C_8
REMARK    8  A    between atoms: C_8  and  O_9
REMARK    9  A    between atoms: C_8  and  C_10
REMARK   10  A    between atoms: C_12  and  O_13
REMARK   11  A    between atoms: O_13  and  C_14
REMARK   12  A    between atoms: C_17  and  O_18
REMARK   13  A    between atoms: O_18  and  C_19
REMARK                            x       y       z     vdW  Elec       q    Type
REMARK                         _______ _______ _______ _____ _____    ______ ____
ROOT
ATOM      1  C   UNL     1       5.482   4.346  16.582  0.00  0.00    +0.000 A 
ATOM      2  C   UNL     1       4.735   3.212  16.930  0.00  0.00    +0.000 A 
ATOM      3  C   UNL     1       3.575   3.253  17.719  0.00  0.00    +0.000 A 
ATOM      4  C   UNL     1       3.133   4.502  18.176  0.00  0.00    +0.000 A 
ATOM      5  C   UNL     1       3.837   5.685  17.782  0.00  0.00    +0.000 A 
ATOM      6  C   UNL     1       4.998   5.613  16.971  0.00  0.00    +0.000 A 
ATOM      7  C   UNL     1       3.252   6.974  18.241  0.00  0.00    +0.000 C 
ATOM      8  O   UNL     1       3.281   8.012  17.604  0.00  0.00    +0.000 OA
ATOM      9  C   UNL     1       2.576   6.977  19.550  0.00  0.00    +0.000 C 
ATOM     10  C   UNL     1       1.946   5.874  19.944  0.00  0.00    +0.000 C 
ATOM     11  C   UNL     1       1.944   4.695  19.060  0.00  0.00    +0.000 C 
ATOM     12  O   UNL     1       0.963   3.976  19.096  0.00  0.00    +0.000 OA
ENDROOT
BRANCH   3  13
ATOM     13  O   UNL     1       3.151   1.971  17.904  0.00  0.00    +0.000 OA
ATOM     14  C   UNL     1       3.735   1.063  18.810  0.00  0.00    +0.000 C 
ENDBRANCH   3  13
BRANCH   6  15
ATOM     15  O   UNL     1       5.712   6.630  16.401  0.00  0.00    +0.000 OA
ATOM     16  C   UNL     1       6.554   7.489  17.147  0.00  0.00    +0.000 C 
ENDBRANCH   6  15
BRANCH   1  17
ATOM     17  C   UNL     1       6.794   4.187  15.809  0.00  0.00    +0.000 C 
BRANCH  17  18
ATOM     18  O   UNL     1       7.808   4.955  16.449  0.00  0.00    +0.000 OA
ATOM     19  H   UNL     1       8.440   4.336  16.849  0.00  0.00    +0.000 HD
ENDBRANCH  17  18
BRANCH  17  20
ATOM     20  C   UNL     1       6.699   4.590  14.321  0.00  0.00    +0.000 C 
BRANCH  20  21
ATOM     21  C   UNL     1       5.633   3.820  13.538  0.00  0.00    +0.000 C 
BRANCH  21  22
ATOM     22  C   UNL     1       6.195   3.401  12.176  0.00  0.00    +0.000 C 
BRANCH  22  23
ATOM     23  C   UNL     1       5.153   2.688  11.318  0.00  0.00    +0.000 C 
BRANCH  23  24
ATOM     24  C   UNL     1       3.868   3.511  11.230  0.00  0.00    +0.000 C 
BRANCH  24  26
ATOM     25  C   UNL     1       2.588   4.579   9.345  0.00  0.00    +0.000 C 
ATOM     26  C   UNL     1       3.146   3.282   9.905  0.00  0.00    +0.000 C 
ENDBRANCH  24  26
ENDBRANCH  23  24
ENDBRANCH  22  23
ENDBRANCH  21  22
ENDBRANCH  20  21
ENDBRANCH  17  20
ENDBRANCH   1  17
TORSDOF 10
ENDMDL
MODEL 2
REMARK VINA RESULT:      -7.4      2.653      6.412
REMARK  Name = 
REMARK  13 active torsions:
REMARK  status: ('A' for Active; 'I' for Inactive)
REMARK    1  A    between atoms: C_1  and  C_2
REMARK    2  A    between atoms: C_2  and  C_3
REMARK    3  A    between atoms: C_3  and  C_4
REMARK    4  A    between atoms: C_4  and  C_5
REMARK    5  A    between atoms: C_5  and  C_6
REMARK    6  A    between atoms: C_6  and  C_7
REMARK    7  A    between atoms: C_7  and  C_8
REMARK    8  A    between atoms: C_8  and  O_9
REMARK    9  A    between atoms: C_8  and  C_10
REMARK   10  A    between atoms: C_12  and  O_13
REMARK   11  A    between atoms: O_13  and  C_14
REMARK   12  A    between atoms: C_17  and  O_18
REMARK   13  A    between atoms: O_18  and  C_19
REMARK                            x       y       z     vdW  Elec       q    Type
REMARK                         _______ _______ _______ _____ _____    ______ ____
ROOT
ATOM      1  C   UNL     1       4.701   6.101  17.463  0.00  0.00    +0.000 A 
ATOM      2  C   UNL     1       3.815   6.836  18.263  0.00  0.00    +0.000 A 
ATOM      3  C   UNL     1       2.743   6.267  18.966  0.00  0.00    +0.000 A 
ATOM      4  C   UNL     1       2.555   4.881  18.873  0.00  0.00    +0.000 A 
ATOM      5  C   UNL     1       3.483   4.095  18.118  0.00  0.00    +0.000 A 
ATOM      6  C   UNL     1       4.567   4.697  17.429  0.00  0.00    +0.000 A 
ATOM      7  C   UNL     1       3.260   2.624  18.142  0.00  0.00    +0.000 C 
ATOM      8  O   UNL     1       4.146   1.788  18.116  0.00  0.00    +0.000 OA
ATOM      9  C   UNL     1       1.865   2.158  18.220  0.00  0.00    +0.000 C 
ATOM     10  C   UNL     1       0.983   2.895  18.890  0.00  0.00    +0.000 C 
ATOM     11  C   UNL     1       1.433   4.144  19.528  0.00  0.00    +0.000 C 
ATOM     12  O   UNL     1       0.873   4.474  20.557  0.00  0.00    +0.000 OA
ENDROOT
BRANCH   3  13
ATOM     13  O   UNL     1       2.064   7.277  19.580  0.00  0.00    +0.000 OA
ATOM     14  C   UNL     1       1.817   8.537  18.999  0.00  0.00    +0.000 C 
ENDBRANCH   3  13
BRANCH   6  15
ATOM     15  O   UNL     1       5.609   4.099  16.776  0.00  0.00    +0.000 OA
ATOM     16  C   UNL     1       5.474   3.505  15.498  0.00  0.00    +0.000 C 
ENDBRANCH   6  15
BRANCH   1  17
ATOM     17  C   UNL     1       5.774   6.827  16.647  0.00  0.00    +0.000 C 
BRANCH  17  18
ATOM     18  O   UNL     1       5.551   6.583  15.262  0.00  0.00    +0.000 OA
ATOM     19  H   UNL     1       5.012   5.780  15.185  0.00  0.00    +0.000 HD
ENDBRANCH  17  18
BRANCH  17  20
ATOM     20  C   UNL     1       7.220   6.434  17.018  0.00  0.00    +0.000 C 
BRANCH  20  21
ATOM     21  C   UNL     1       7.806   7.247  18.174  0.00  0.00    +0.000 C 
BRANCH  21  22
ATOM     22  C   UNL     1       8.107   8.673  17.703  0.00  0.00    +0.000 C 
BRANCH  22  23
ATOM     23  C   UNL     1       8.901   9.465  18.737  0.00  0.00    +0.000 C 
BRANCH  23  24
ATOM     24  C   UNL     1       8.917  10.953  18.387  0.00  0.00    +0.000 C 
BRANCH  24  26
ATOM     25  C   UNL     1      11.270  11.542  19.059  0.00  0.00    +0.000 C 
ATOM     26  C   UNL     1      10.294  11.399  17.903  0.00  0.00    +0.000 C 
ENDBRANCH  24  26
ENDBRANCH  23  24
ENDBRANCH  22  23
ENDBRANCH  21  22
ENDBRANCH  20  21
ENDBRANCH  17  20
ENDBRANCH   1  17
TORSDOF 10
ENDMDL
MODEL 3
REMARK VINA RESULT:      -7.3      1.416      3.440
REMARK  Name = 
REMARK  13 active torsions:
REMARK  status: ('A' for Active; 'I' for Inactive)
REMARK    1  A    between atoms: C_1  and  C_2
REMARK    2  A    between atoms: C_2  and  C_3
REMARK    3  A    between atoms: C_3  and  C_4
REMARK    4  A    between atoms: C_4  and  C_5
REMARK    5  A    between atoms: C_5  and  C_6
REMARK    6  A    between atoms: C_6  and  C_7
REMARK    7  A    between atoms: C_7  and  C_8
REMARK    8  A    between atoms: C_8  and  O_9
REMARK    9  A    between atoms: C_8  and  C_10
REMARK   10  A    between atoms: C_12  and  O_13
REMARK   11  A    between atoms: O_13  and  C_14
REMARK   12  A    between atoms: C_17  and  O_18
REMARK   13  A    between atoms: O_18  and  C_19
REMARK                            x       y       z     vdW  Elec       q    Type
REMARK                         _______ _______ _______ _____ _____    ______ ____
ROOT
ATOM      1  C   UNL     1       4.682   4.565  17.274  0.00  0.00    +0.000 A 
ATOM      2  C   UNL     1       4.421   5.942  17.240  0.00  0.00    +0.000 A 
ATOM      3  C   UNL     1       3.567   6.598  18.139  0.00  0.00    +0.000 A 
ATOM      4  C   UNL     1       2.947   5.832  19.136  0.00  0.00    +0.000 A 
ATOM      5  C   UNL     1       3.245   4.436  19.239  0.00  0.00    +0.000 A 
ATOM      6  C   UNL     1       4.126   3.803  18.324  0.00  0.00    +0.000 A 
ATOM      7  C   UNL     1       2.612   3.717  20.377  0.00  0.00    +0.000 C 
ATOM      8  O   UNL     1       3.127   2.798  20.989  0.00  0.00    +0.000 OA
ATOM      9  C   UNL     1       1.274   4.169  20.795  0.00  0.00    +0.000 C 
ATOM     10  C   UNL     1       0.970   5.458  20.675  0.00  0.00    +0.000 C 
ATOM     11  C   UNL     1       1.979   6.384  20.132  0.00  0.00    +0.000 C 
ATOM     12  O   UNL     1       1.968   7.526  20.552  0.00  0.00    +0.000 OA
ENDROOT
BRANCH   3  13
ATOM     13  O   UNL     1       3.503   7.909  17.772  0.00  0.00    +0.000 OA
ATOM     14  C   UNL     1       2.305   8.611  17.532  0.00  0.00    +0.000 C 
ENDBRANCH   3  13
BRANCH   6  15
ATOM     15  O   UNL     1       4.618   2.528  18.347  0.00  0.00    +0.000 OA
ATOM     16  C   UNL     1       3.824   1.393  18.053  0.00  0.00    +0.000 C 
ENDBRANCH   6  15
BRANCH   1  17
ATOM     17  C   UNL     1       5.543   3.924  16.183  0.00  0.00    +0.000 C 
BRANCH  17  18
ATOM     18  O   UNL     1       6.894   3.866  16.629  0.00  0.00    +0.000 OA
ATOM     19  H   UNL     1       6.945   3.204  17.337  0.00  0.00    +0.000 HD
ENDBRANCH  17  18
BRANCH  17  20
ATOM     20  C   UNL     1       5.476   4.649  14.821  0.00  0.00    +0.000 C 
BRANCH  20  21
ATOM     21  C   UNL     1       6.800   4.647  14.054  0.00  0.00    +0.000 C 
BRANCH  21  22
ATOM     22  C   UNL     1       6.657   3.809  12.779  0.00  0.00    +0.000 C 
BRANCH  22  23
ATOM     23  C   UNL     1       5.217   3.360  12.545  0.00  0.00    +0.000 C 
BRANCH  23  24
ATOM     24  C   UNL     1       4.830   3.524  11.076  0.00  0.00    +0.000 C 
BRANCH  24  26
ATOM     25  C   UNL     1       2.840   4.038   9.624  0.00  0.00    +0.000 C 
ATOM     26  C   UNL     1       3.332   3.314  10.865  0.00  0.00    +0.000 C 
ENDBRANCH  24  26
ENDBRANCH  23  24
ENDBRANCH  22  23
ENDBRANCH  21  22
ENDBRANCH  20  21
ENDBRANCH  17  20
ENDBRANCH   1  17
TORSDOF 10
ENDMDL
MODEL 4
REMARK VINA RESULT:      -7.3      2.325      6.200
REMARK  Name = 
REMARK  13 active torsions:
REMARK  status: ('A' for Active; 'I' for Inactive)
REMARK    1  A    between atoms: C_1  and  C_2
REMARK    2  A    between atoms: C_2  and  C_3
REMARK    3  A    between atoms: C_3  and  C_4
REMARK    4  A    between atoms: C_4  and  C_5
REMARK    5  A    between atoms: C_5  and  C_6
REMARK    6  A    between atoms: C_6  and  C_7
REMARK    7  A    between atoms: C_7  and  C_8
REMARK    8  A    between atoms: C_8  and  O_9
REMARK    9  A    between atoms: C_8  and  C_10
REMARK   10  A    between atoms: C_12  and  O_13
REMARK   11  A    between atoms: O_13  and  C_14
REMARK   12  A    between atoms: C_17  and  O_18
REMARK   13  A    between atoms: O_18  and  C_19
REMARK                            x       y       z     vdW  Elec       q    Type
REMARK                         _______ _______ _______ _____ _____    ______ ____
ROOT
ATOM      1  C   UNL     1       4.004   3.322  17.870  0.00  0.00    +0.000 A 
ATOM      2  C   UNL     1       4.190   3.537  16.497  0.00  0.00    +0.000 A 
ATOM      3  C   UNL     1       5.186   4.370  15.965  0.00  0.00    +0.000 A 
ATOM      4  C   UNL     1       6.052   5.015  16.858  0.00  0.00    +0.000 A 
ATOM      5  C   UNL     1       5.931   4.762  18.262  0.00  0.00    +0.000 A 
ATOM      6  C   UNL     1       4.923   3.902  18.770  0.00  0.00    +0.000 A 
ATOM      7  C   UNL     1       6.943   5.419  19.132  0.00  0.00    +0.000 C 
ATOM      8  O   UNL     1       7.399   4.934  20.152  0.00  0.00    +0.000 OA
ATOM      9  C   UNL     1       7.435   6.742  18.709  0.00  0.00    +0.000 C 
ATOM     10  C   UNL     1       7.522   7.003  17.408  0.00  0.00    +0.000 C 
ATOM     11  C   UNL     1       7.128   5.964  16.441  0.00  0.00    +0.000 C 
ATOM     12  O   UNL     1       7.724   5.938  15.380  0.00  0.00    +0.000 OA
ENDROOT
BRANCH   3  13
ATOM     13  O   UNL     1       5.033   4.391  14.611  0.00  0.00    +0.000 OA
ATOM     14  C   UNL     1       5.908   3.763  13.701  0.00  0.00    +0.000 C 
ENDBRANCH   3  13
BRANCH   6  15
ATOM     15  O   UNL     1       4.741   3.452  20.048  0.00  0.00    +0.000 OA
ATOM     16  C   UNL     1       4.945   2.102  20.423  0.00  0.00    +0.000 C 
ENDBRANCH   6  15
BRANCH   1  17
ATOM     17  C   UNL     1       2.821   2.482  18.357  0.00  0.00    +0.000 C 
BRANCH  17  18
ATOM     18  O   UNL     1       2.265   1.774  17.254  0.00  0.00    +0.000 OA
ATOM     19  H   UNL     1       2.964   1.217  16.876  0.00  0.00    +0.000 HD
ENDBRANCH  17  18
BRANCH  17  20
ATOM     20  C   UNL     1       1.716   3.300  19.059  0.00  0.00    +0.000 C 
BRANCH  20  21
ATOM     21  C   UNL     1       1.728   4.789  18.706  0.00  0.00    +0.000 C 
BRANCH  21  22
ATOM     22  C   UNL     1       1.967   5.618  19.971  0.00  0.00    +0.000 C 
BRANCH  22  23
ATOM     23  C   UNL     1       2.384   7.050  19.650  0.00  0.00    +0.000 C 
BRANCH  23  24
ATOM     24  C   UNL     1       2.691   7.205  18.161  0.00  0.00    +0.000 C 
BRANCH  24  26
ATOM     25  C   UNL     1       1.270   9.273  17.964  0.00  0.00    +0.000 C 
ATOM     26  C   UNL     1       2.644   8.669  17.729  0.00  0.00    +0.000 C 
ENDBRANCH  24  26
ENDBRANCH  23  24
ENDBRANCH  22  23
ENDBRANCH  21  22
ENDBRANCH  20  21
ENDBRANCH  17  20
ENDBRANCH   1  17
TORSDOF 10
ENDMDL
MODEL 5
REMARK VINA RESULT:      -7.2      1.152      1.710
REMARK  Name = 
REMARK  13 active torsions:
REMARK  status: ('A' for Active; 'I' for Inactive)
REMARK    1  A    between atoms: C_1  and  C_2
REMARK    2  A    between atoms: C_2  and  C_3
REMARK    3  A    between atoms: C_3  and  C_4
REMARK    4  A    between atoms: C_4  and  C_5
REMARK    5  A    between atoms: C_5  and  C_6
REMARK    6  A    between atoms: C_6  and  C_7
REMARK    7  A    between atoms: C_7  and  C_8
REMARK    8  A    between atoms: C_8  and  O_9
REMARK    9  A    between atoms: C_8  and  C_10
REMARK   10  A    between atoms: C_12  and  O_13
REMARK   11  A    between atoms: O_13  and  C_14
REMARK   12  A    between atoms: C_17  and  O_18
REMARK   13  A    between atoms: O_18  and  C_19
REMARK                            x       y       z     vdW  Elec       q    Type
REMARK                         _______ _______ _______ _____ _____    ______ ____
ROOT
ATOM      1  C   UNL     1       4.654   5.238  17.028  0.00  0.00    +0.000 A 
ATOM      2  C   UNL     1       4.295   3.885  16.944  0.00  0.00    +0.000 A 
ATOM      3  C   UNL     1       3.338   3.279  17.772  0.00  0.00    +0.000 A 
ATOM      4  C   UNL     1       2.695   4.076  18.728  0.00  0.00    +0.000 A 
ATOM      5  C   UNL     1       2.991   5.475  18.793  0.00  0.00    +0.000 A 
ATOM      6  C   UNL     1       3.954   6.063  17.933  0.00  0.00    +0.000 A 
ATOM      7  C   UNL     1       2.202   6.263  19.779  0.00  0.00    +0.000 C 
ATOM      8  O   UNL     1       1.847   7.417  19.617  0.00  0.00    +0.000 OA
ATOM      9  C   UNL     1       1.814   5.582  21.026  0.00  0.00    +0.000 C 
ATOM     10  C   UNL     1       1.568   4.275  20.988  0.00  0.00    +0.000 C 
ATOM     11  C   UNL     1       1.690   3.560  19.706  0.00  0.00    +0.000 C 
ATOM     12  O   UNL     1       0.945   2.614  19.525  0.00  0.00    +0.000 OA
ENDROOT
BRANCH   3  13
ATOM     13  O   UNL     1       3.291   1.954  17.454  0.00  0.00    +0.000 OA
ATOM     14  C   UNL     1       3.867   0.929  18.232  0.00  0.00    +0.000 C 
ENDBRANCH   3  13
BRANCH   6  15
ATOM     15  O   UNL     1       4.267   7.383  17.769  0.00  0.00    +0.000 OA
ATOM     16  C   UNL     1       3.334   8.342  17.305  0.00  0.00    +0.000 C 
ENDBRANCH   6  15
BRANCH   1  17
ATOM     17  C   UNL     1       5.788   5.781  16.155  0.00  0.00    +0.000 C 
BRANCH  17  18
ATOM     18  O   UNL     1       5.239   6.624  15.147  0.00  0.00    +0.000 OA
ATOM     19  H   UNL     1       5.008   6.067  14.388  0.00  0.00    +0.000 HD
ENDBRANCH  17  18
BRANCH  17  20
ATOM     20  C   UNL     1       6.658   4.687  15.499  0.00  0.00    +0.000 C 
BRANCH  20  21
ATOM     21  C   UNL     1       6.922   4.917  14.009  0.00  0.00    +0.000 C 
BRANCH  21  22
ATOM     22  C   UNL     1       6.493   3.681  13.212  0.00  0.00    +0.000 C 
BRANCH  22  23
ATOM     23  C   UNL     1       5.018   3.732  12.823  0.00  0.00    +0.000 C 
BRANCH  23  24
ATOM     24  C   UNL     1       4.797   3.101  11.449  0.00  0.00    +0.000 C 
BRANCH  24  26
ATOM     25  C   UNL     1       3.174   4.009   9.753  0.00  0.00    +0.000 C 
ATOM     26  C   UNL     1       3.334   3.188  11.021  0.00  0.00    +0.000 C 
ENDBRANCH  24  26
ENDBRANCH  23  24
ENDBRANCH  22  23
ENDBRANCH  21  22
ENDBRANCH  20  21
ENDBRANCH  17  20
ENDBRANCH   1  17
TORSDOF 10
ENDMDL
MODEL 6
REMARK VINA RESULT:      -7.1      1.592      3.228
REMARK  Name = 
REMARK  13 active torsions:
REMARK  status: ('A' for Active; 'I' for Inactive)
REMARK    1  A    between atoms: C_1  and  C_2
REMARK    2  A    between atoms: C_2  and  C_3
REMARK    3  A    between atoms: C_3  and  C_4
REMARK    4  A    between atoms: C_4  and  C_5
REMARK    5  A    between atoms: C_5  and  C_6
REMARK    6  A    between atoms: C_6  and  C_7
REMARK    7  A    between atoms: C_7  and  C_8
REMARK    8  A    between atoms: C_8  and  O_9
REMARK    9  A    between atoms: C_8  and  C_10
REMARK   10  A    between atoms: C_12  and  O_13
REMARK   11  A    between atoms: O_13  and  C_14
REMARK   12  A    between atoms: C_17  and  O_18
REMARK   13  A    between atoms: O_18  and  C_19
REMARK                            x       y       z     vdW  Elec       q    Type
REMARK                         _______ _______ _______ _____ _____    ______ ____
ROOT
ATOM      1  C   UNL     1       5.208   5.730  17.419  0.00  0.00    +0.000 A 
ATOM      2  C   UNL     1       4.097   6.566  17.599  0.00  0.00    +0.000 A 
ATOM      3  C   UNL     1       2.994   6.236  18.401  0.00  0.00    +0.000 A 
ATOM      4  C   UNL     1       3.010   5.004  19.070  0.00  0.00    +0.000 A 
ATOM      5  C   UNL     1       4.160   4.159  18.960  0.00  0.00    +0.000 A 
ATOM      6  C   UNL     1       5.267   4.526  18.153  0.00  0.00    +0.000 A 
ATOM      7  C   UNL     1       4.130   2.911  19.769  0.00  0.00    +0.000 C 
ATOM      8  O   UNL     1       5.106   2.398  20.287  0.00  0.00    +0.000 OA
ATOM      9  C   UNL     1       2.819   2.269  19.967  0.00  0.00    +0.000 C 
ATOM     10  C   UNL     1       1.737   3.040  20.038  0.00  0.00    +0.000 C 
ATOM     11  C   UNL     1       1.889   4.500  19.920  0.00  0.00    +0.000 C 
ATOM     12  O   UNL     1       1.104   5.192  20.542  0.00  0.00    +0.000 OA
ENDROOT
BRANCH   3  13
ATOM     13  O   UNL     1       2.084   7.245  18.294  0.00  0.00    +0.000 OA
ATOM     14  C   UNL     1       2.407   8.575  17.955  0.00  0.00    +0.000 C 
ENDBRANCH   3  13
BRANCH   6  15
ATOM     15  O   UNL     1       6.483   3.913  18.033  0.00  0.00    +0.000 OA
ATOM     16  C   UNL     1       7.701   4.546  18.382  0.00  0.00    +0.000 C 
ENDBRANCH   6  15
BRANCH   1  17
ATOM     17  C   UNL     1       6.313   6.130  16.438  0.00  0.00    +0.000 C 
BRANCH  17  18
ATOM     18  O   UNL     1       6.583   7.520  16.581  0.00  0.00    +0.000 OA
ATOM     19  H   UNL     1       6.479   7.934  15.709  0.00  0.00    +0.000 HD
ENDBRANCH  17  18
BRANCH  17  20
ATOM     20  C   UNL     1       5.989   5.813  14.962  0.00  0.00    +0.000 C 
BRANCH  20  21
ATOM     21  C   UNL     1       5.515   4.376  14.727  0.00  0.00    +0.000 C 
BRANCH  21  22
ATOM     22  C   UNL     1       6.011   3.886  13.363  0.00  0.00    +0.000 C 
BRANCH  22  23
ATOM     23  C   UNL     1       4.940   3.104  12.609  0.00  0.00    +0.000 C 
BRANCH  23  24
ATOM     24  C   UNL     1       4.646   3.752  11.256  0.00  0.00    +0.000 C 
BRANCH  24  26
ATOM     25  C   UNL     1       2.824   4.135   9.563  0.00  0.00    +0.000 C 
ATOM     26  C   UNL     1       3.355   3.211  10.645  0.00  0.00    +0.000 C 
ENDBRANCH  24  26
ENDBRANCH  23  24
ENDBRANCH  22  23
ENDBRANCH  21  22
ENDBRANCH  20  21
ENDBRANCH  17  20
ENDBRANCH   1  17
TORSDOF 10
ENDMDL
MODEL 7
REMARK VINA RESULT:      -7.0      1.880      3.607
REMARK  Name = 
REMARK  13 active torsions:
REMARK  status: ('A' for Active; 'I' for Inactive)
REMARK    1  A    between atoms: C_1  and  C_2
REMARK    2  A    between atoms: C_2  and  C_3
REMARK    3  A    between atoms: C_3  and  C_4
REMARK    4  A    between atoms: C_4  and  C_5
REMARK    5  A    between atoms: C_5  and  C_6
REMARK    6  A    between atoms: C_6  and  C_7
REMARK    7  A    between atoms: C_7  and  C_8
REMARK    8  A    between atoms: C_8  and  O_9
REMARK    9  A    between atoms: C_8  and  C_10
REMARK   10  A    between atoms: C_12  and  O_13
REMARK   11  A    between atoms: O_13  and  C_14
REMARK   12  A    between atoms: C_17  and  O_18
REMARK   13  A    between atoms: O_18  and  C_19
REMARK                            x       y       z     vdW  Elec       q    Type
REMARK                         _______ _______ _______ _____ _____    ______ ____
ROOT
ATOM      1  C   UNL     1       5.057   5.869  17.509  0.00  0.00    +0.000 A 
ATOM      2  C   UNL     1       4.051   6.793  17.824  0.00  0.00    +0.000 A 
ATOM      3  C   UNL     1       3.005   6.532  18.722  0.00  0.00    +0.000 A 
ATOM      4  C   UNL     1       2.970   5.279  19.348  0.00  0.00    +0.000 A 
ATOM      5  C   UNL     1       4.021   4.338  19.097  0.00  0.00    +0.000 A 
ATOM      6  C   UNL     1       5.074   4.636  18.195  0.00  0.00    +0.000 A 
ATOM      7  C   UNL     1       3.953   3.067  19.867  0.00  0.00    +0.000 C 
ATOM      8  O   UNL     1       4.923   2.448  20.269  0.00  0.00    +0.000 OA
ATOM      9  C   UNL     1       2.613   2.538  20.174  0.00  0.00    +0.000 C 
ATOM     10  C   UNL     1       1.619   3.400  20.377  0.00  0.00    +0.000 C 
ATOM     11  C   UNL     1       1.895   4.844  20.289  0.00  0.00    +0.000 C 
ATOM     12  O   UNL     1       1.242   5.578  21.007  0.00  0.00    +0.000 OA
ENDROOT
BRANCH   3  13
ATOM     13  O   UNL     1       2.187   7.622  18.736  0.00  0.00    +0.000 OA
ATOM     14  C   UNL     1       2.208   8.646  17.767  0.00  0.00    +0.000 C 
ENDBRANCH   3  13
BRANCH   6  15
ATOM     15  O   UNL     1       6.211   3.922  17.936  0.00  0.00    +0.000 OA
ATOM     16  C   UNL     1       7.510   4.434  18.168  0.00  0.00    +0.000 C 
ENDBRANCH   6  15
BRANCH   1  17
ATOM     17  C   UNL     1       6.094   6.206  16.435  0.00  0.00    +0.000 C 
BRANCH  17  18
ATOM     18  O   UNL     1       6.574   7.530  16.649  0.00  0.00    +0.000 OA
ATOM     19  H   UNL     1       7.539   7.515  16.553  0.00  0.00    +0.000 HD
ENDBRANCH  17  18
BRANCH  17  20
ATOM     20  C   UNL     1       5.570   6.072  14.989  0.00  0.00    +0.000 C 
BRANCH  20  21
ATOM     21  C   UNL     1       5.143   4.651  14.614  0.00  0.00    +0.000 C 
BRANCH  21  22
ATOM     22  C   UNL     1       6.383   3.803  14.311  0.00  0.00    +0.000 C 
BRANCH  22  23
ATOM     23  C   UNL     1       6.802   3.900  12.847  0.00  0.00    +0.000 C 
BRANCH  23  24
ATOM     24  C   UNL     1       5.695   3.380  11.930  0.00  0.00    +0.000 C 
BRANCH  24  26
ATOM     25  C   UNL     1       7.103   1.567  10.899  0.00  0.00    +0.000 C 
ATOM     26  C   UNL     1       5.837   1.881  11.676  0.00  0.00    +0.000 C 
ENDBRANCH  24  26
ENDBRANCH  23  24
ENDBRANCH  22  23
ENDBRANCH  21  22
ENDBRANCH  20  21
ENDBRANCH  17  20
ENDBRANCH   1  17
TORSDOF 10
ENDMDL
MODEL 8
REMARK VINA RESULT:      -7.0      3.878      6.727
REMARK  Name = 
REMARK  13 active torsions:
REMARK  status: ('A' for Active; 'I' for Inactive)
REMARK    1  A    between atoms: C_1  and  C_2
REMARK    2  A    between atoms: C_2  and  C_3
REMARK    3  A    between atoms: C_3  and  C_4
REMARK    4  A    between atoms: C_4  and  C_5
REMARK    5  A    between atoms: C_5  and  C_6
REMARK    6  A    between atoms: C_6  and  C_7
REMARK    7  A    between atoms: C_7  and  C_8
REMARK    8  A    between atoms: C_8  and  O_9
REMARK    9  A    between atoms: C_8  and  C_10
REMARK   10  A    between atoms: C_12  and  O_13
REMARK   11  A    between atoms: O_13  and  C_14
REMARK   12  A    between atoms: C_17  and  O_18
REMARK   13  A    between atoms: O_18  and  C_19
REMARK                            x       y       z     vdW  Elec       q    Type
REMARK                         _______ _______ _______ _____ _____    ______ ____
ROOT
ATOM      1  C   UNL     1       5.459   6.361  17.622  0.00  0.00    +0.000 A 
ATOM      2  C   UNL     1       4.229   7.033  17.663  0.00  0.00    +0.000 A 
ATOM      3  C   UNL     1       3.050   6.472  18.178  0.00  0.00    +0.000 A 
ATOM      4  C   UNL     1       3.110   5.170  18.691  0.00  0.00    +0.000 A 
ATOM      5  C   UNL     1       4.365   4.483  18.725  0.00  0.00    +0.000 A 
ATOM      6  C   UNL     1       5.544   5.082  18.210  0.00  0.00    +0.000 A 
ATOM      7  C   UNL     1       4.356   3.139  19.363  0.00  0.00    +0.000 C 
ATOM      8  O   UNL     1       5.278   2.673  20.009  0.00  0.00    +0.000 OA
ATOM      9  C   UNL     1       3.133   2.333  19.212  0.00  0.00    +0.000 C 
ATOM     10  C   UNL     1       1.961   2.958  19.147  0.00  0.00    +0.000 C 
ATOM     11  C   UNL     1       1.929   4.429  19.229  0.00  0.00    +0.000 C 
ATOM     12  O   UNL     1       0.952   4.934  19.751  0.00  0.00    +0.000 OA
ENDROOT
BRANCH   3  13
ATOM     13  O   UNL     1       2.046   7.377  18.001  0.00  0.00    +0.000 OA
ATOM     14  C   UNL     1       2.244   8.764  17.846  0.00  0.00    +0.000 C 
ENDBRANCH   3  13
BRANCH   6  15
ATOM     15  O   UNL     1       6.834   4.633  18.274  0.00  0.00    +0.000 OA
ATOM     16  C   UNL     1       7.710   4.962  19.337  0.00  0.00    +0.000 C 
ENDBRANCH   6  15
BRANCH   1  17
ATOM     17  C   UNL     1       6.663   7.016  16.941  0.00  0.00    +0.000 C 
BRANCH  17  18
ATOM     18  O   UNL     1       7.279   6.071  16.072  0.00  0.00    +0.000 OA
ATOM     19  H   UNL     1       7.983   6.530  15.586  0.00  0.00    +0.000 HD
ENDBRANCH  17  18
BRANCH  17  20
ATOM     20  C   UNL     1       7.713   7.579  17.924  0.00  0.00    +0.000 C 
BRANCH  20  21
ATOM     21  C   UNL     1       8.029   9.061  17.711  0.00  0.00    +0.000 C 
BRANCH  21  22
ATOM     22  C   UNL     1       8.932   9.564  18.841  0.00  0.00    +0.000 C 
BRANCH  22  23
ATOM     23  C   UNL     1       9.166  11.070  18.763  0.00  0.00    +0.000 C 
BRANCH  23  24
ATOM     24  C   UNL     1      10.613  11.414  19.117  0.00  0.00    +0.000 C 
BRANCH  24  26
ATOM     25  C   UNL     1      10.985  12.990  17.191  0.00  0.00    +0.000 C 
ATOM     26  C   UNL     1      11.440  11.709  17.868  0.00  0.00    +0.000 C 
ENDBRANCH  24  26
ENDBRANCH  23  24
ENDBRANCH  22  23
ENDBRANCH  21  22
ENDBRANCH  20  21
ENDBRANCH  17  20
ENDBRANCH   1  17
TORSDOF 10
ENDMDL
MODEL 9
REMARK VINA RESULT:      -7.0      2.752      6.812
REMARK  Name = 
REMARK  13 active torsions:
REMARK  status: ('A' for Active; 'I' for Inactive)
REMARK    1  A    between atoms: C_1  and  C_2
REMARK    2  A    between atoms: C_2  and  C_3
REMARK    3  A    between atoms: C_3  and  C_4
REMARK    4  A    between atoms: C_4  and  C_5
REMARK    5  A    between atoms: C_5  and  C_6
REMARK    6  A    between atoms: C_6  and  C_7
REMARK    7  A    between atoms: C_7  and  C_8
REMARK    8  A    between atoms: C_8  and  O_9
REMARK    9  A    between atoms: C_8  and  C_10
REMARK   10  A    between atoms: C_12  and  O_13
REMARK   11  A    between atoms: O_13  and  C_14
REMARK   12  A    between atoms: C_17  and  O_18
REMARK   13  A    between atoms: O_18  and  C_19
REMARK                            x       y       z     vdW  Elec       q    Type
REMARK                         _______ _______ _______ _____ _____    ______ ____
ROOT
ATOM      1  C   UNL     1       5.197   5.679  17.670  0.00  0.00    +0.000 A 
ATOM      2  C   UNL     1       4.397   6.474  18.503  0.00  0.00    +0.000 A 
ATOM      3  C   UNL     1       3.217   6.023  19.114  0.00  0.00    +0.000 A 
ATOM      4  C   UNL     1       2.823   4.698  18.887  0.00  0.00    +0.000 A 
ATOM      5  C   UNL     1       3.654   3.842  18.096  0.00  0.00    +0.000 A 
ATOM      6  C   UNL     1       4.850   4.322  17.503  0.00  0.00    +0.000 A 
ATOM      7  C   UNL     1       3.205   2.428  17.976  0.00  0.00    +0.000 C 
ATOM      8  O   UNL     1       3.952   1.468  17.904  0.00  0.00    +0.000 OA
ATOM      9  C   UNL     1       1.752   2.183  17.963  0.00  0.00    +0.000 C 
ATOM     10  C   UNL     1       0.964   2.991  18.668  0.00  0.00    +0.000 C 
ATOM     11  C   UNL     1       1.569   4.094  19.433  0.00  0.00    +0.000 C 
ATOM     12  O   UNL     1       1.018   4.419  20.468  0.00  0.00    +0.000 OA
ENDROOT
BRANCH   3  13
ATOM     13  O   UNL     1       2.674   7.072  19.794  0.00  0.00    +0.000 OA
ATOM     14  C   UNL     1       2.005   8.153  19.187  0.00  0.00    +0.000 C 
ENDBRANCH   3  13
BRANCH   6  15
ATOM     15  O   UNL     1       5.816   3.624  16.833  0.00  0.00    +0.000 OA
ATOM     16  C   UNL     1       5.780   3.412  15.434  0.00  0.00    +0.000 C 
ENDBRANCH   6  15
BRANCH   1  17
ATOM     17  C   UNL     1       6.407   6.293  16.961  0.00  0.00    +0.000 C 
BRANCH  17  18
ATOM     18  O   UNL     1       7.571   5.541  17.290  0.00  0.00    +0.000 OA
ATOM     19  H   UNL     1       8.329   5.963  16.855  0.00  0.00    +0.000 HD
ENDBRANCH  17  18
BRANCH  17  20
ATOM     20  C   UNL     1       6.641   7.783  17.292  0.00  0.00    +0.000 C 
BRANCH  20  21
ATOM     21  C   UNL     1       8.016   8.074  17.898  0.00  0.00    +0.000 C 
BRANCH  21  22
ATOM     22  C   UNL     1       8.259   9.586  17.924  0.00  0.00    +0.000 C 
BRANCH  22  23
ATOM     23  C   UNL     1       9.165  10.003  19.079  0.00  0.00    +0.000 C 
BRANCH  23  24
ATOM     24  C   UNL     1       9.966  11.254  18.716  0.00  0.00    +0.000 C 
BRANCH  24  26
ATOM     25  C   UNL     1      10.419  12.293  20.963  0.00  0.00    +0.000 C 
ATOM     26  C   UNL     1      11.022  11.568  19.773  0.00  0.00    +0.000 C 
ENDBRANCH  24  26
ENDBRANCH  23  24
ENDBRANCH  22  23
ENDBRANCH  21  22
ENDBRANCH  20  21
ENDBRANCH  17  20
ENDBRANCH   1  17
TORSDOF 10
ENDMDL
