MODEL 1
REMARK VINA RESULT:      -7.1      0.000      0.000
REMARK  Name = 
REMARK  12 active torsions:
REMARK  status: ('A' for Active; 'I' for Inactive)
REMARK    1  A    between atoms: C_1  and  O_2
REMARK    2  A    between atoms: O_2  and  C_3
REMARK    3  A    between atoms: C_5  and  O_6
REMARK    4  A    between atoms: O_6  and  C_7
REMARK    5  A    between atoms: C_8  and  O_9
REMARK    6  A    between atoms: O_9  and  C_10
REMARK    7  A    between atoms: C_12  and  C_13
REMARK    8  A    between atoms: C_13  and  N_14
REMARK    9  A    between atoms: N_14  and  C_15
REMARK   10  A    between atoms: C_15  and  C_16
REMARK   11  A    between atoms: C_16  and  N_17
REMARK   12  A    between atoms: C_18  and  C_20
REMARK                            x       y       z     vdW  Elec       q    Type
REMARK                         _______ _______ _______ _____ _____    ______ ____
ROOT
ATOM      1  N   UNL     1       2.942   2.411  17.675  0.00  0.00    +0.000 NA
ATOM      2  H   UNL     1       2.834   1.703  16.946  0.00  0.00    +0.000 HD
ENDROOT
BRANCH   1   3
ATOM      3  C   UNL     1       1.625   3.001  17.949  0.00  0.00    +0.000 C 
BRANCH   3   9
ATOM      4  C   UNL     1       1.390   4.389  20.093  0.00  0.00    +0.000 A 
ATOM      5  C   UNL     1       1.497   5.616  20.745  0.00  0.00    +0.000 A 
ATOM      6  C   UNL     1       1.999   6.749  20.093  0.00  0.00    +0.000 A 
ATOM      7  C   UNL     1       2.433   6.654  18.764  0.00  0.00    +0.000 A 
ATOM      8  C   UNL     1       2.271   5.434  18.092  0.00  0.00    +0.000 A 
ATOM      9  C   UNL     1       1.735   4.295  18.732  0.00  0.00    +0.000 A 
BRANCH   4  11
ATOM     10  C   UNL     1       1.731   2.796  21.814  0.00  0.00    +0.000 C 
ATOM     11  O   UNL     1       0.939   3.249  20.714  0.00  0.00    +0.000 OA
ENDBRANCH   4  11
BRANCH   6  12
ATOM     12  O   UNL     1       2.065   7.853  20.904  0.00  0.00    +0.000 OA
ATOM     13  C   UNL     1       0.821   8.468  21.223  0.00  0.00    +0.000 C 
ENDBRANCH   6  12
BRANCH   7  14
ATOM     14  O   UNL     1       3.023   7.759  18.212  0.00  0.00    +0.000 OA
ATOM     15  C   UNL     1       2.179   8.799  17.742  0.00  0.00    +0.000 C 
ENDBRANCH   7  14
ENDBRANCH   3   9
ENDBRANCH   1   3
BRANCH   1  16
ATOM     16  C   UNL     1       3.565   1.806  18.859  0.00  0.00    +0.000 C 
BRANCH  16  17
ATOM     17  C   UNL     1       4.809   2.530  19.408  0.00  0.00    +0.000 C 
BRANCH  17  18
ATOM     18  N   UNL     1       5.279   3.576  18.523  0.00  0.00    +0.000 N 
ATOM     19  C   UNL     1       5.959   4.693  18.968  0.00  0.00    +0.000 C 
ATOM     20  O   UNL     1       6.271   4.858  20.144  0.00  0.00    +0.000 OA
ATOM     21  H   UNL     1       5.119   3.498  17.523  0.00  0.00    +0.000 HD
BRANCH  19  22
ATOM     22  C   UNL     1       6.275   5.657  17.921  0.00  0.00    +0.000 A 
ATOM     23  N   UNL     1       5.570   5.730  16.779  0.00  0.00    +0.000 NA
ATOM     24  O   UNL     1       6.160   6.765  16.063  0.00  0.00    +0.000 OA
ATOM     25  N   UNL     1       7.231   7.313  16.753  0.00  0.00    +0.000 NA
ATOM     26  C   UNL     1       7.301   6.632  17.895  0.00  0.00    +0.000 A 
ATOM     27  N   UNL     1       8.218   6.850  18.855  0.00  0.00    +0.000 N 
ATOM     28  H   UNL     1       9.010   7.452  18.663  0.00  0.00    +0.000 HD
ATOM     29  H   UNL     1       8.351   6.187  19.617  0.00  0.00    +0.000 HD
ENDBRANCH  19  22
ENDBRANCH  17  18
ENDBRANCH  16  17
ENDBRANCH   1  16
TORSDOF 9
ENDMDL
MODEL 2
REMARK VINA RESULT:      -6.8      1.435      2.411
REMARK  Name = 
REMARK  12 active torsions:
REMARK  status: ('A' for Active; 'I' for Inactive)
REMARK    1  A    between atoms: C_1  and  O_2
REMARK    2  A    between atoms: O_2  and  C_3
REMARK    3  A    between atoms: C_5  and  O_6
REMARK    4  A    between atoms: O_6  and  C_7
REMARK    5  A    between atoms: C_8  and  O_9
REMARK    6  A    between atoms: O_9  and  C_10
REMARK    7  A    between atoms: C_12  and  C_13
REMARK    8  A    between atoms: C_13  and  N_14
REMARK    9  A    between atoms: N_14  and  C_15
REMARK   10  A    between atoms: C_15  and  C_16
REMARK   11  A    between atoms: C_16  and  N_17
REMARK   12  A    between atoms: C_18  and  C_20
REMARK                            x       y       z     vdW  Elec       q    Type
REMARK                         _______ _______ _______ _____ _____    ______ ____
ROOT
ATOM      1  N   UNL     1       2.185   2.534  20.844  0.00  0.00    +0.000 NA
ATOM      2  H   UNL     1       2.544   3.148  21.577  0.00  0.00    +0.000 HD
ENDROOT
BRANCH   1   3
ATOM      3  C   UNL     1       1.091   3.229  20.151  0.00  0.00    +0.000 C 
BRANCH   3   9
ATOM      4  C   UNL     1       1.709   4.875  18.285  0.00  0.00    +0.000 A 
ATOM      5  C   UNL     1       2.118   6.150  17.897  0.00  0.00    +0.000 A 
ATOM      6  C   UNL     1       2.280   7.181  18.831  0.00  0.00    +0.000 A 
ATOM      7  C   UNL     1       2.002   6.947  20.185  0.00  0.00    +0.000 A 
ATOM      8  C   UNL     1       1.647   5.650  20.580  0.00  0.00    +0.000 A 
ATOM      9  C   UNL     1       1.514   4.596  19.650  0.00  0.00    +0.000 A 
BRANCH   4  11
ATOM     10  C   UNL     1       2.686   3.261  16.851  0.00  0.00    +0.000 C 
ATOM     11  O   UNL     1       1.502   3.852  17.391  0.00  0.00    +0.000 OA
ENDBRANCH   4  11
BRANCH   6  12
ATOM     12  O   UNL     1       2.650   8.373  18.260  0.00  0.00    +0.000 OA
ATOM     13  C   UNL     1       1.589   9.192  17.783  0.00  0.00    +0.000 C 
ENDBRANCH   6  12
BRANCH   7  14
ATOM     14  O   UNL     1       2.064   8.017  21.035  0.00  0.00    +0.000 OA
ATOM     15  C   UNL     1       0.843   8.627  21.428  0.00  0.00    +0.000 C 
ENDBRANCH   7  14
ENDBRANCH   3   9
ENDBRANCH   1   3
BRANCH   1  16
ATOM     16  C   UNL     1       3.282   2.142  19.949  0.00  0.00    +0.000 C 
BRANCH  16  17
ATOM     17  C   UNL     1       4.649   2.786  20.242  0.00  0.00    +0.000 C 
BRANCH  17  18
ATOM     18  N   UNL     1       5.255   3.367  19.062  0.00  0.00    +0.000 N 
ATOM     19  C   UNL     1       5.432   4.727  18.894  0.00  0.00    +0.000 C 
ATOM     20  O   UNL     1       5.144   5.547  19.761  0.00  0.00    +0.000 OA
ATOM     21  H   UNL     1       5.580   2.762  18.313  0.00  0.00    +0.000 HD
BRANCH  19  22
ATOM     22  C   UNL     1       5.992   5.102  17.601  0.00  0.00    +0.000 A 
ATOM     23  N   UNL     1       5.284   5.784  16.686  0.00  0.00    +0.000 NA
ATOM     24  O   UNL     1       6.158   5.961  15.619  0.00  0.00    +0.000 OA
ATOM     25  N   UNL     1       7.390   5.375  15.872  0.00  0.00    +0.000 NA
ATOM     26  C   UNL     1       7.287   4.848  17.090  0.00  0.00    +0.000 A 
ATOM     27  N   UNL     1       8.272   4.177  17.714  0.00  0.00    +0.000 N 
ATOM     28  H   UNL     1       9.098   3.903  17.193  0.00  0.00    +0.000 HD
ATOM     29  H   UNL     1       8.089   3.633  18.555  0.00  0.00    +0.000 HD
ENDBRANCH  19  22
ENDBRANCH  17  18
ENDBRANCH  16  17
ENDBRANCH   1  16
TORSDOF 9
ENDMDL
MODEL 3
REMARK VINA RESULT:      -6.7      2.621      4.541
REMARK  Name = 
REMARK  12 active torsions:
REMARK  status: ('A' for Active; 'I' for Inactive)
REMARK    1  A    between atoms: C_1  and  O_2
REMARK    2  A    between atoms: O_2  and  C_3
REMARK    3  A    between atoms: C_5  and  O_6
REMARK    4  A    between atoms: O_6  and  C_7
REMARK    5  A    between atoms: C_8  and  O_9
REMARK    6  A    between atoms: O_9  and  C_10
REMARK    7  A    between atoms: C_12  and  C_13
REMARK    8  A    between atoms: C_13  and  N_14
REMARK    9  A    between atoms: N_14  and  C_15
REMARK   10  A    between atoms: C_15  and  C_16
REMARK   11  A    between atoms: C_16  and  N_17
REMARK   12  A    between atoms: C_18  and  C_20
REMARK                            x       y       z     vdW  Elec       q    Type
REMARK                         _______ _______ _______ _____ _____    ______ ____
ROOT
ATOM      1  N   UNL     1       5.220   6.816  17.307  0.00  0.00    +0.000 NA
ATOM      2  H   UNL     1       5.192   6.266  16.446  0.00  0.00    +0.000 HD
ENDROOT
BRANCH   1   3
ATOM      3  C   UNL     1       3.844   7.179  17.672  0.00  0.00    +0.000 C 
BRANCH   3   9
ATOM      4  C   UNL     1       2.395   6.245  19.570  0.00  0.00    +0.000 A 
ATOM      5  C   UNL     1       1.779   5.156  20.185  0.00  0.00    +0.000 A 
ATOM      6  C   UNL     1       1.824   3.876  19.618  0.00  0.00    +0.000 A 
ATOM      7  C   UNL     1       2.474   3.677  18.393  0.00  0.00    +0.000 A 
ATOM      8  C   UNL     1       3.141   4.761  17.806  0.00  0.00    +0.000 A 
ATOM      9  C   UNL     1       3.130   6.048  18.387  0.00  0.00    +0.000 A 
BRANCH   4  11
ATOM     10  C   UNL     1       1.310   7.750  21.045  0.00  0.00    +0.000 C 
ATOM     11  O   UNL     1       2.337   7.521  20.078  0.00  0.00    +0.000 OA
ENDBRANCH   4  11
BRANCH   6  12
ATOM     12  O   UNL     1       1.132   2.940  20.345  0.00  0.00    +0.000 OA
ATOM     13  C   UNL     1       1.560   2.753  21.690  0.00  0.00    +0.000 C 
ENDBRANCH   6  12
BRANCH   7  14
ATOM     14  O   UNL     1       2.388   2.435  17.827  0.00  0.00    +0.000 OA
ATOM     15  C   UNL     1       3.430   1.508  18.093  0.00  0.00    +0.000 C 
ENDBRANCH   7  14
ENDBRANCH   3   9
ENDBRANCH   1   3
BRANCH   1  16
ATOM     16  C   UNL     1       5.918   6.057  18.353  0.00  0.00    +0.000 C 
BRANCH  16  17
ATOM     17  C   UNL     1       7.049   5.130  17.869  0.00  0.00    +0.000 C 
BRANCH  17  18
ATOM     18  N   UNL     1       7.282   5.234  16.444  0.00  0.00    +0.000 N 
ATOM     19  C   UNL     1       6.636   4.444  15.513  0.00  0.00    +0.000 C 
ATOM     20  O   UNL     1       5.768   3.632  15.817  0.00  0.00    +0.000 OA
ATOM     21  H   UNL     1       7.942   5.921  16.091  0.00  0.00    +0.000 HD
BRANCH  19  22
ATOM     22  C   UNL     1       7.073   4.661  14.139  0.00  0.00    +0.000 A 
ATOM     23  N   UNL     1       7.925   5.647  13.806  0.00  0.00    +0.000 NA
ATOM     24  O   UNL     1       8.106   5.513  12.434  0.00  0.00    +0.000 OA
ATOM     25  N   UNL     1       7.356   4.463  11.925  0.00  0.00    +0.000 NA
ATOM     26  C   UNL     1       6.723   3.940  12.973  0.00  0.00    +0.000 A 
ATOM     27  N   UNL     1       5.878   2.894  12.907  0.00  0.00    +0.000 N 
ATOM     28  H   UNL     1       5.564   2.561  12.003  0.00  0.00    +0.000 HD
ATOM     29  H   UNL     1       5.277   2.652  13.693  0.00  0.00    +0.000 HD
ENDBRANCH  19  22
ENDBRANCH  17  18
ENDBRANCH  16  17
ENDBRANCH   1  16
TORSDOF 9
ENDMDL
MODEL 4
REMARK VINA RESULT:      -6.5      4.194      6.951
REMARK  Name = 
REMARK  12 active torsions:
REMARK  status: ('A' for Active; 'I' for Inactive)
REMARK    1  A    between atoms: C_1  and  O_2
REMARK    2  A    between atoms: O_2  and  C_3
REMARK    3  A    between atoms: C_5  and  O_6
REMARK    4  A    between atoms: O_6  and  C_7
REMARK    5  A    between atoms: C_8  and  O_9
REMARK    6  A    between atoms: O_9  and  C_10
REMARK    7  A    between atoms: C_12  and  C_13
REMARK    8  A    between atoms: C_13  and  N_14
REMARK    9  A    between atoms: N_14  and  C_15
REMARK   10  A    between atoms: C_15  and  C_16
REMARK   11  A    between atoms: C_16  and  N_17
REMARK   12  A    between atoms: C_18  and  C_20
REMARK                            x       y       z     vdW  Elec       q    Type
REMARK                         _______ _______ _______ _____ _____    ______ ____
ROOT
ATOM      1  N   UNL     1       2.883   6.040  20.054  0.00  0.00    +0.000 NA
ATOM      2  H   UNL     1       2.130   5.971  20.742  0.00  0.00    +0.000 HD
ENDROOT
BRANCH   1   3
ATOM      3  C   UNL     1       3.476   4.707  19.879  0.00  0.00    +0.000 C 
BRANCH   3   9
ATOM      4  C   UNL     1       4.421   4.001  17.602  0.00  0.00    +0.000 A 
ATOM      5  C   UNL     1       5.463   4.023  16.676  0.00  0.00    +0.000 A 
ATOM      6  C   UNL     1       6.621   4.779  16.898  0.00  0.00    +0.000 A 
ATOM      7  C   UNL     1       6.735   5.557  18.059  0.00  0.00    +0.000 A 
ATOM      8  C   UNL     1       5.712   5.487  19.014  0.00  0.00    +0.000 A 
ATOM      9  C   UNL     1       4.556   4.701  18.814  0.00  0.00    +0.000 A 
BRANCH   4  11
ATOM     10  C   UNL     1       3.270   1.943  17.840  0.00  0.00    +0.000 C 
ATOM     11  O   UNL     1       3.255   3.302  17.398  0.00  0.00    +0.000 OA
ENDBRANCH   4  11
BRANCH   6  12
ATOM     12  O   UNL     1       7.518   4.708  15.863  0.00  0.00    +0.000 OA
ATOM     13  C   UNL     1       6.958   4.582  14.560  0.00  0.00    +0.000 C 
ENDBRANCH   6  12
BRANCH   7  14
ATOM     14  O   UNL     1       7.833   6.366  18.170  0.00  0.00    +0.000 OA
ATOM     15  C   UNL     1       7.727   7.700  17.697  0.00  0.00    +0.000 C 
ENDBRANCH   7  14
ENDBRANCH   3   9
ENDBRANCH   1   3
BRANCH   1  16
ATOM     16  C   UNL     1       2.358   6.610  18.806  0.00  0.00    +0.000 C 
BRANCH  16  17
ATOM     17  C   UNL     1       2.080   8.124  18.825  0.00  0.00    +0.000 C 
BRANCH  17  18
ATOM     18  N   UNL     1       1.462   8.562  20.059  0.00  0.00    +0.000 N 
ATOM     19  C   UNL     1       0.996   9.847  20.258  0.00  0.00    +0.000 C 
ATOM     20  O   UNL     1       1.015  10.704  19.379  0.00  0.00    +0.000 OA
ATOM     21  H   UNL     1       1.349   7.904  20.825  0.00  0.00    +0.000 HD
BRANCH  19  22
ATOM     22  C   UNL     1       0.478  10.095  21.598  0.00  0.00    +0.000 A 
ATOM     23  N   UNL     1       0.944   9.443  22.677  0.00  0.00    +0.000 NA
ATOM     24  O   UNL     1       0.224   9.964  23.745  0.00  0.00    +0.000 OA
ATOM     25  N   UNL     1      -0.691  10.917  23.323  0.00  0.00    +0.000 NA
ATOM     26  C   UNL     1      -0.534  10.998  22.004  0.00  0.00    +0.000 A 
ATOM     27  N   UNL     1      -1.244  11.811  21.201  0.00  0.00    +0.000 N 
ATOM     28  H   UNL     1      -2.060  12.289  21.568  0.00  0.00    +0.000 HD
ATOM     29  H   UNL     1      -1.223  11.702  20.189  0.00  0.00    +0.000 HD
ENDBRANCH  19  22
ENDBRANCH  17  18
ENDBRANCH  16  17
ENDBRANCH   1  16
TORSDOF 9
ENDMDL
MODEL 5
REMARK VINA RESULT:      -6.4      2.236      3.796
REMARK  Name = 
REMARK  12 active torsions:
REMARK  status: ('A' for Active; 'I' for Inactive)
REMARK    1  A    between atoms: C_1  and  O_2
REMARK    2  A    between atoms: O_2  and  C_3
REMARK    3  A    between atoms: C_5  and  O_6
REMARK    4  A    between atoms: O_6  and  C_7
REMARK    5  A    between atoms: C_8  and  O_9
REMARK    6  A    between atoms: O_9  and  C_10
REMARK    7  A    between atoms: C_12  and  C_13
REMARK    8  A    between atoms: C_13  and  N_14
REMARK    9  A    between atoms: N_14  and  C_15
REMARK   10  A    between atoms: C_15  and  C_16
REMARK   11  A    between atoms: C_16  and  N_17
REMARK   12  A    between atoms: C_18  and  C_20
REMARK                            x       y       z     vdW  Elec       q    Type
REMARK                         _______ _______ _______ _____ _____    ______ ____
ROOT
ATOM      1  N   UNL     1       3.202   5.253  20.131  0.00  0.00    +0.000 NA
ATOM      2  H   UNL     1       3.372   5.769  19.265  0.00  0.00    +0.000 HD
ENDROOT
BRANCH   1   3
ATOM      3  C   UNL     1       1.943   5.733  20.717  0.00  0.00    +0.000 C 
BRANCH   3   9
ATOM      4  C   UNL     1       1.995   7.703  19.076  0.00  0.00    +0.000 A 
ATOM      5  C   UNL     1       1.712   9.039  18.796  0.00  0.00    +0.000 A 
ATOM      6  C   UNL     1       1.034   9.850  19.715  0.00  0.00    +0.000 A 
ATOM      7  C   UNL     1       0.600   9.312  20.934  0.00  0.00    +0.000 A 
ATOM      8  C   UNL     1       0.936   7.986  21.237  0.00  0.00    +0.000 A 
ATOM      9  C   UNL     1       1.649   7.170  20.331  0.00  0.00    +0.000 A 
BRANCH   4  11
ATOM     10  C   UNL     1       3.656   7.474  17.402  0.00  0.00    +0.000 C 
ATOM     11  O   UNL     1       2.623   6.869  18.183  0.00  0.00    +0.000 OA
ENDBRANCH   4  11
BRANCH   6  12
ATOM     12  O   UNL     1       0.813  11.122  19.251  0.00  0.00    +0.000 OA
ATOM     13  C   UNL     1      -0.452  11.353  18.641  0.00  0.00    +0.000 C 
ENDBRANCH   6  12
BRANCH   7  14
ATOM     14  O   UNL     1      -0.158  10.113  21.743  0.00  0.00    +0.000 OA
ATOM     15  C   UNL     1      -0.231   9.788  23.124  0.00  0.00    +0.000 C 
ENDBRANCH   7  14
ENDBRANCH   3   9
ENDBRANCH   1   3
BRANCH   1  16
ATOM     16  C   UNL     1       3.199   3.811  19.851  0.00  0.00    +0.000 C 
BRANCH  16  17
ATOM     17  C   UNL     1       4.579   3.170  19.618  0.00  0.00    +0.000 C 
BRANCH  17  18
ATOM     18  N   UNL     1       5.405   3.939  18.710  0.00  0.00    +0.000 N 
ATOM     19  C   UNL     1       5.181   3.996  17.348  0.00  0.00    +0.000 C 
ATOM     20  O   UNL     1       4.227   3.444  16.807  0.00  0.00    +0.000 OA
ATOM     21  H   UNL     1       6.185   4.478  19.074  0.00  0.00    +0.000 HD
BRANCH  19  22
ATOM     22  C   UNL     1       6.174   4.768  16.610  0.00  0.00    +0.000 A 
ATOM     23  N   UNL     1       6.775   5.848  17.137  0.00  0.00    +0.000 NA
ATOM     24  O   UNL     1       7.650   6.285  16.150  0.00  0.00    +0.000 OA
ATOM     25  N   UNL     1       7.575   5.487  15.017  0.00  0.00    +0.000 NA
ATOM     26  C   UNL     1       6.667   4.555  15.301  0.00  0.00    +0.000 A 
ATOM     27  N   UNL     1       6.289   3.579  14.456  0.00  0.00    +0.000 N 
ATOM     28  H   UNL     1       6.576   3.619  13.484  0.00  0.00    +0.000 HD
ATOM     29  H   UNL     1       5.465   3.011  14.642  0.00  0.00    +0.000 HD
ENDBRANCH  19  22
ENDBRANCH  17  18
ENDBRANCH  16  17
ENDBRANCH   1  16
TORSDOF 9
ENDMDL
MODEL 6
REMARK VINA RESULT:      -6.4      1.781      3.271
REMARK  Name = 
REMARK  12 active torsions:
REMARK  status: ('A' for Active; 'I' for Inactive)
REMARK    1  A    between atoms: C_1  and  O_2
REMARK    2  A    between atoms: O_2  and  C_3
REMARK    3  A    between atoms: C_5  and  O_6
REMARK    4  A    between atoms: O_6  and  C_7
REMARK    5  A    between atoms: C_8  and  O_9
REMARK    6  A    between atoms: O_9  and  C_10
REMARK    7  A    between atoms: C_12  and  C_13
REMARK    8  A    between atoms: C_13  and  N_14
REMARK    9  A    between atoms: N_14  and  C_15
REMARK   10  A    between atoms: C_15  and  C_16
REMARK   11  A    between atoms: C_16  and  N_17
REMARK   12  A    between atoms: C_18  and  C_20
REMARK                            x       y       z     vdW  Elec       q    Type
REMARK                         _______ _______ _______ _____ _____    ______ ____
ROOT
ATOM      1  N   UNL     1       2.023   4.040  19.552  0.00  0.00    +0.000 NA
ATOM      2  H   UNL     1       1.291   3.678  20.167  0.00  0.00    +0.000 HD
ENDROOT
BRANCH   1   3
ATOM      3  C   UNL     1       2.787   5.056  20.289  0.00  0.00    +0.000 C 
BRANCH   3   9
ATOM      4  C   UNL     1       2.545   7.007  18.642  0.00  0.00    +0.000 A 
ATOM      5  C   UNL     1       2.142   8.316  18.383  0.00  0.00    +0.000 A 
ATOM      6  C   UNL     1       1.493   9.086  19.357  0.00  0.00    +0.000 A 
ATOM      7  C   UNL     1       1.213   8.532  20.613  0.00  0.00    +0.000 A 
ATOM      8  C   UNL     1       1.671   7.236  20.890  0.00  0.00    +0.000 A 
ATOM      9  C   UNL     1       2.355   6.464  19.925  0.00  0.00    +0.000 A 
BRANCH   4  11
ATOM     10  C   UNL     1       4.021   6.888  16.791  0.00  0.00    +0.000 C 
ATOM     11  O   UNL     1       3.148   6.210  17.698  0.00  0.00    +0.000 OA
ENDBRANCH   4  11
BRANCH   6  12
ATOM     12  O   UNL     1       1.139  10.334  18.910  0.00  0.00    +0.000 OA
ATOM     13  C   UNL     1      -0.155  10.444  18.327  0.00  0.00    +0.000 C 
ENDBRANCH   6  12
BRANCH   7  14
ATOM     14  O   UNL     1       0.476   9.285  21.485  0.00  0.00    +0.000 OA
ATOM     15  C   UNL     1      -0.655   8.681  22.096  0.00  0.00    +0.000 C 
ENDBRANCH   7  14
ENDBRANCH   3   9
ENDBRANCH   1   3
BRANCH   1  16
ATOM     16  C   UNL     1       2.852   2.929  19.068  0.00  0.00    +0.000 C 
BRANCH  16  17
ATOM     17  C   UNL     1       4.353   3.017  19.399  0.00  0.00    +0.000 C 
BRANCH  17  18
ATOM     18  N   UNL     1       5.125   3.613  18.328  0.00  0.00    +0.000 N 
ATOM     19  C   UNL     1       6.159   4.503  18.546  0.00  0.00    +0.000 C 
ATOM     20  O   UNL     1       6.544   4.813  19.669  0.00  0.00    +0.000 OA
ATOM     21  H   UNL     1       4.918   3.369  17.364  0.00  0.00    +0.000 HD
BRANCH  19  22
ATOM     22  C   UNL     1       6.753   5.038  17.327  0.00  0.00    +0.000 A 
ATOM     23  N   UNL     1       7.403   6.215  17.305  0.00  0.00    +0.000 NA
ATOM     24  O   UNL     1       7.829   6.361  15.990  0.00  0.00    +0.000 OA
ATOM     25  N   UNL     1       7.429   5.289  15.206  0.00  0.00    +0.000 NA
ATOM     26  C   UNL     1       6.768   4.477  16.028  0.00  0.00    +0.000 A 
ATOM     27  N   UNL     1       6.204   3.313  15.657  0.00  0.00    +0.000 N 
ATOM     28  H   UNL     1       6.124   3.087  14.671  0.00  0.00    +0.000 HD
ATOM     29  H   UNL     1       5.553   2.824  16.268  0.00  0.00    +0.000 HD
ENDBRANCH  19  22
ENDBRANCH  17  18
ENDBRANCH  16  17
ENDBRANCH   1  16
TORSDOF 9
ENDMDL
MODEL 7
REMARK VINA RESULT:      -6.3      1.336      1.641
REMARK  Name = 
REMARK  12 active torsions:
REMARK  status: ('A' for Active; 'I' for Inactive)
REMARK    1  A    between atoms: C_1  and  O_2
REMARK    2  A    between atoms: O_2  and  C_3
REMARK    3  A    between atoms: C_5  and  O_6
REMARK    4  A    between atoms: O_6  and  C_7
REMARK    5  A    between atoms: C_8  and  O_9
REMARK    6  A    between atoms: O_9  and  C_10
REMARK    7  A    between atoms: C_12  and  C_13
REMARK    8  A    between atoms: C_13  and  N_14
REMARK    9  A    between atoms: N_14  and  C_15
REMARK   10  A    between atoms: C_15  and  C_16
REMARK   11  A    between atoms: C_16  and  N_17
REMARK   12  A    between atoms: C_18  and  C_20
REMARK                            x       y       z     vdW  Elec       q    Type
REMARK                         _______ _______ _______ _____ _____    ______ ____
ROOT
ATOM      1  N   UNL     1       2.367   1.834  18.860  0.00  0.00    +0.000 NA
ATOM      2  H   UNL     1       2.429   2.079  19.851  0.00  0.00    +0.000 HD
ENDROOT
BRANCH   1   3
ATOM      3  C   UNL     1       1.589   2.875  18.173  0.00  0.00    +0.000 C 
BRANCH   3   9
ATOM      4  C   UNL     1       1.428   4.373  20.247  0.00  0.00    +0.000 A 
ATOM      5  C   UNL     1       1.521   5.639  20.823  0.00  0.00    +0.000 A 
ATOM      6  C   UNL     1       1.929   6.753  20.077  0.00  0.00    +0.000 A 
ATOM      7  C   UNL     1       2.283   6.599  18.730  0.00  0.00    +0.000 A 
ATOM      8  C   UNL     1       2.134   5.336  18.139  0.00  0.00    +0.000 A 
ATOM      9  C   UNL     1       1.690   4.215  18.874  0.00  0.00    +0.000 A 
BRANCH   4  11
ATOM     10  C   UNL     1       1.991   2.850  21.973  0.00  0.00    +0.000 C 
ATOM     11  O   UNL     1       1.069   3.254  20.959  0.00  0.00    +0.000 OA
ENDBRANCH   4  11
BRANCH   6  12
ATOM     12  O   UNL     1       1.996   7.904  20.820  0.00  0.00    +0.000 OA
ATOM     13  C   UNL     1       0.831   8.721  20.811  0.00  0.00    +0.000 C 
ENDBRANCH   6  12
BRANCH   7  14
ATOM     14  O   UNL     1       2.786   7.693  18.081  0.00  0.00    +0.000 OA
ATOM     15  C   UNL     1       3.964   7.523  17.305  0.00  0.00    +0.000 C 
ENDBRANCH   7  14
ENDBRANCH   3   9
ENDBRANCH   1   3
BRANCH   1  16
ATOM     16  C   UNL     1       3.718   1.661  18.311  0.00  0.00    +0.000 C 
BRANCH  16  17
ATOM     17  C   UNL     1       4.022   2.441  17.019  0.00  0.00    +0.000 C 
BRANCH  17  18
ATOM     18  N   UNL     1       4.858   3.601  17.254  0.00  0.00    +0.000 N 
ATOM     19  C   UNL     1       5.874   3.986  16.401  0.00  0.00    +0.000 C 
ATOM     20  O   UNL     1       6.110   3.408  15.344  0.00  0.00    +0.000 OA
ATOM     21  H   UNL     1       4.698   4.178  18.075  0.00  0.00    +0.000 HD
BRANCH  19  22
ATOM     22  C   UNL     1       6.638   5.138  16.863  0.00  0.00    +0.000 A 
ATOM     23  N   UNL     1       7.159   6.039  16.013  0.00  0.00    +0.000 NA
ATOM     24  O   UNL     1       7.786   6.975  16.827  0.00  0.00    +0.000 OA
ATOM     25  N   UNL     1       7.666   6.642  18.168  0.00  0.00    +0.000 NA
ATOM     26  C   UNL     1       6.960   5.513  18.189  0.00  0.00    +0.000 A 
ATOM     27  N   UNL     1       6.625   4.847  19.309  0.00  0.00    +0.000 N 
ATOM     28  H   UNL     1       7.051   5.106  20.192  0.00  0.00    +0.000 HD
ATOM     29  H   UNL     1       6.255   3.899  19.268  0.00  0.00    +0.000 HD
ENDBRANCH  19  22
ENDBRANCH  17  18
ENDBRANCH  16  17
ENDBRANCH   1  16
TORSDOF 9
ENDMDL
MODEL 8
REMARK VINA RESULT:      -6.3      1.993      3.626
REMARK  Name = 
REMARK  12 active torsions:
REMARK  status: ('A' for Active; 'I' for Inactive)
REMARK    1  A    between atoms: C_1  and  O_2
REMARK    2  A    between atoms: O_2  and  C_3
REMARK    3  A    between atoms: C_5  and  O_6
REMARK    4  A    between atoms: O_6  and  C_7
REMARK    5  A    between atoms: C_8  and  O_9
REMARK    6  A    between atoms: O_9  and  C_10
REMARK    7  A    between atoms: C_12  and  C_13
REMARK    8  A    between atoms: C_13  and  N_14
REMARK    9  A    between atoms: N_14  and  C_15
REMARK   10  A    between atoms: C_15  and  C_16
REMARK   11  A    between atoms: C_16  and  N_17
REMARK   12  A    between atoms: C_18  and  C_20
REMARK                            x       y       z     vdW  Elec       q    Type
REMARK                         _______ _______ _______ _____ _____    ______ ____
ROOT
ATOM      1  N   UNL     1       1.232   4.608  19.964  0.00  0.00    +0.000 NA
ATOM      2  H   UNL     1       0.306   4.538  20.389  0.00  0.00    +0.000 HD
ENDROOT
BRANCH   1   3
ATOM      3  C   UNL     1       2.029   5.568  20.741  0.00  0.00    +0.000 C 
BRANCH   3   9
ATOM      4  C   UNL     1       2.085   7.503  19.059  0.00  0.00    +0.000 A 
ATOM      5  C   UNL     1       1.818   8.837  18.756  0.00  0.00    +0.000 A 
ATOM      6  C   UNL     1       1.167   9.677  19.668  0.00  0.00    +0.000 A 
ATOM      7  C   UNL     1       0.744   9.171  20.905  0.00  0.00    +0.000 A 
ATOM      8  C   UNL     1       1.065   7.845  21.230  0.00  0.00    +0.000 A 
ATOM      9  C   UNL     1       1.751   7.001  20.330  0.00  0.00    +0.000 A 
BRANCH   4  11
ATOM     10  C   UNL     1       3.820   7.167  17.481  0.00  0.00    +0.000 C 
ATOM     11  O   UNL     1       2.687   6.641  18.174  0.00  0.00    +0.000 OA
ENDBRANCH   4  11
BRANCH   6  12
ATOM     12  O   UNL     1       0.958  10.942  19.181  0.00  0.00    +0.000 OA
ATOM     13  C   UNL     1      -0.311  11.179  18.583  0.00  0.00    +0.000 C 
ENDBRANCH   6  12
BRANCH   7  14
ATOM     14  O   UNL     1       0.010  10.000  21.708  0.00  0.00    +0.000 OA
ATOM     15  C   UNL     1      -0.141   9.641  23.074  0.00  0.00    +0.000 C 
ENDBRANCH   7  14
ENDBRANCH   3   9
ENDBRANCH   1   3
BRANCH   1  16
ATOM     16  C   UNL     1       1.842   3.274  19.889  0.00  0.00    +0.000 C 
BRANCH  16  17
ATOM     17  C   UNL     1       2.525   2.922  18.554  0.00  0.00    +0.000 C 
BRANCH  17  18
ATOM     18  N   UNL     1       3.726   3.698  18.323  0.00  0.00    +0.000 N 
ATOM     19  C   UNL     1       4.894   3.515  19.038  0.00  0.00    +0.000 C 
ATOM     20  O   UNL     1       5.024   2.638  19.886  0.00  0.00    +0.000 OA
ATOM     21  H   UNL     1       3.733   4.409  17.597  0.00  0.00    +0.000 HD
BRANCH  19  22
ATOM     22  C   UNL     1       5.957   4.452  18.695  0.00  0.00    +0.000 A 
ATOM     23  N   UNL     1       6.456   5.325  19.586  0.00  0.00    +0.000 NA
ATOM     24  O   UNL     1       7.445   6.014  18.893  0.00  0.00    +0.000 OA
ATOM     25  N   UNL     1       7.541   5.578  17.580  0.00  0.00    +0.000 NA
ATOM     26  C   UNL     1       6.627   4.618  17.459  0.00  0.00    +0.000 A 
ATOM     27  N   UNL     1       6.389   3.933  16.325  0.00  0.00    +0.000 N 
ATOM     28  H   UNL     1       6.803   4.247  15.455  0.00  0.00    +0.000 HD
ATOM     29  H   UNL     1       5.561   3.348  16.227  0.00  0.00    +0.000 HD
ENDBRANCH  19  22
ENDBRANCH  17  18
ENDBRANCH  16  17
ENDBRANCH   1  16
TORSDOF 9
ENDMDL
MODEL 9
REMARK VINA RESULT:      -6.3      1.841      3.340
REMARK  Name = 
REMARK  12 active torsions:
REMARK  status: ('A' for Active; 'I' for Inactive)
REMARK    1  A    between atoms: C_1  and  O_2
REMARK    2  A    between atoms: O_2  and  C_3
REMARK    3  A    between atoms: C_5  and  O_6
REMARK    4  A    between atoms: O_6  and  C_7
REMARK    5  A    between atoms: C_8  and  O_9
REMARK    6  A    between atoms: O_9  and  C_10
REMARK    7  A    between atoms: C_12  and  C_13
REMARK    8  A    between atoms: C_13  and  N_14
REMARK    9  A    between atoms: N_14  and  C_15
REMARK   10  A    between atoms: C_15  and  C_16
REMARK   11  A    between atoms: C_16  and  N_17
REMARK   12  A    between atoms: C_18  and  C_20
REMARK                            x       y       z     vdW  Elec       q    Type
REMARK                         _______ _______ _______ _____ _____    ______ ____
ROOT
ATOM      1  N   UNL     1       2.576   4.715  19.381  0.00  0.00    +0.000 NA
ATOM      2  H   UNL     1       1.700   4.808  18.863  0.00  0.00    +0.000 HD
ENDROOT
BRANCH   1   3
ATOM      3  C   UNL     1       2.561   5.671  20.496  0.00  0.00    +0.000 C 
BRANCH   3   9
ATOM      4  C   UNL     1       2.274   7.556  18.781  0.00  0.00    +0.000 A 
ATOM      5  C   UNL     1       1.795   8.825  18.462  0.00  0.00    +0.000 A 
ATOM      6  C   UNL     1       1.041   9.572  19.376  0.00  0.00    +0.000 A 
ATOM      7  C   UNL     1       0.730   9.032  20.631  0.00  0.00    +0.000 A 
ATOM      8  C   UNL     1       1.262   7.780  20.971  0.00  0.00    +0.000 A 
ATOM      9  C   UNL     1       2.052   7.034  20.068  0.00  0.00    +0.000 A 
BRANCH   4  11
ATOM     10  C   UNL     1       4.057   7.443  17.223  0.00  0.00    +0.000 C 
ATOM     11  O   UNL     1       2.983   6.780  17.895  0.00  0.00    +0.000 OA
ENDBRANCH   4  11
BRANCH   6  12
ATOM     12  O   UNL     1       0.625  10.779  18.872  0.00  0.00    +0.000 OA
ATOM     13  C   UNL     1       1.538  11.861  19.012  0.00  0.00    +0.000 C 
ENDBRANCH   6  12
BRANCH   7  14
ATOM     14  O   UNL     1      -0.106   9.753  21.439  0.00  0.00    +0.000 OA
ATOM     15  C   UNL     1       0.003   9.568  22.843  0.00  0.00    +0.000 C 
ENDBRANCH   7  14
ENDBRANCH   3   9
ENDBRANCH   1   3
BRANCH   1  16
ATOM     16  C   UNL     1       2.746   3.322  19.813  0.00  0.00    +0.000 C 
BRANCH  16  17
ATOM     17  C   UNL     1       4.185   2.775  19.765  0.00  0.00    +0.000 C 
BRANCH  17  18
ATOM     18  N   UNL     1       4.921   3.246  18.610  0.00  0.00    +0.000 N 
ATOM     19  C   UNL     1       5.752   4.349  18.643  0.00  0.00    +0.000 C 
ATOM     20  O   UNL     1       5.979   4.981  19.671  0.00  0.00    +0.000 OA
ATOM     21  H   UNL     1       4.843   2.750  17.727  0.00  0.00    +0.000 HD
BRANCH  19  22
ATOM     22  C   UNL     1       6.338   4.695  17.353  0.00  0.00    +0.000 A 
ATOM     23  N   UNL     1       6.129   3.954  16.251  0.00  0.00    +0.000 NA
ATOM     24  O   UNL     1       6.828   4.610  15.244  0.00  0.00    +0.000 OA
ATOM     25  N   UNL     1       7.476   5.736  15.729  0.00  0.00    +0.000 NA
ATOM     26  C   UNL     1       7.175   5.788  17.025  0.00  0.00    +0.000 A 
ATOM     27  N   UNL     1       7.616   6.736  17.871  0.00  0.00    +0.000 N 
ATOM     28  H   UNL     1       8.346   7.373  17.573  0.00  0.00    +0.000 HD
ATOM     29  H   UNL     1       7.517   6.630  18.879  0.00  0.00    +0.000 HD
ENDBRANCH  19  22
ENDBRANCH  17  18
ENDBRANCH  16  17
ENDBRANCH   1  16
TORSDOF 9
ENDMDL
