MODEL 1
REMARK VINA RESULT:      -8.8      0.000      0.000
REMARK  Name = 
REMARK  7 active torsions:
REMARK  status: ('A' for Active; 'I' for Inactive)
REMARK    1  A    between atoms: C_2  and  C_4
REMARK    2  A    between atoms: C_12  and  N_13
REMARK    3  A    between atoms: N_13  and  C_14
REMARK    4  A    between atoms: N_13  and  C_27
REMARK    5  A    between atoms: C_14  and  C_15
REMARK    6  A    between atoms: C_15  and  C_16
REMARK    7  A    between atoms: C_16  and  C_17
REMARK                            x       y       z     vdW  Elec       q    Type
REMARK                         _______ _______ _______ _____ _____    ______ ____
ROOT
ATOM      1  N   UNL     1       1.882   8.621  20.151  0.00  0.00    +0.000 NA
ENDROOT
BRANCH   1  10
ATOM      2  C   UNL     1       2.576   3.557  19.701  0.00  0.00    +0.000 A 
ATOM      3  C   UNL     1       3.138   2.499  18.966  0.00  0.00    +0.000 A 
ATOM      4  C   UNL     1       3.796   2.753  17.764  0.00  0.00    +0.000 A 
ATOM      5  C   UNL     1       3.896   4.055  17.299  0.00  0.00    +0.000 A 
ATOM      6  F   UNL     1       4.526   4.271  16.134  0.00  0.00    +0.000 F 
ATOM      7  C   UNL     1       3.330   5.118  18.003  0.00  0.00    +0.000 A 
ATOM      8  C   UNL     1       2.681   4.888  19.228  0.00  0.00    +0.000 A 
ATOM      9  C   UNL     1       2.107   6.041  20.007  0.00  0.00    +0.000 C 
ATOM     10  C   UNL     1       2.595   7.431  19.523  0.00  0.00    +0.000 C 
ATOM     11  C   UNL     1       2.603   7.392  17.984  0.00  0.00    +0.000 C 
ATOM     12  O   UNL     1       3.491   6.375  17.478  0.00  0.00    +0.000 OA
BRANCH   2  14
ATOM     13  N   UNL     1       0.532   2.896  20.862  0.00  0.00    +0.000 N 
ATOM     14  C   UNL     1       1.844   3.234  20.968  0.00  0.00    +0.000 C 
ATOM     15  O   UNL     1       2.406   3.258  22.057  0.00  0.00    +0.000 OA
ATOM     16  H   UNL     1       0.068   2.613  21.717  0.00  0.00    +0.000 HD
ATOM     17  H   UNL     1       0.077   2.691  19.983  0.00  0.00    +0.000 HD
ENDBRANCH   2  14
ENDBRANCH   1  10
BRANCH   1  18
ATOM     18  C   UNL     1       1.098   8.122  21.315  0.00  0.00    +0.000 C 
ATOM     19  C   UNL     1       1.148   9.160  22.483  0.00  0.00    +0.000 C 
ATOM     20  C   UNL     1      -0.368   8.994  22.639  0.00  0.00    +0.000 C 
ATOM     21  C   UNL     1      -0.401   8.479  21.190  0.00  0.00    +0.000 C 
ENDBRANCH   1  18
BRANCH   1  22
ATOM     22  C   UNL     1       1.018   9.286  19.135  0.00  0.00    +0.000 C 
BRANCH  22  23
ATOM     23  C   UNL     1       1.030  10.797  18.829  0.00  0.00    +0.000 C 
BRANCH  23  24
ATOM     24  C   UNL     1       0.114  11.756  19.570  0.00  0.00    +0.000 C 
BRANCH  24  25
ATOM     25  C   UNL     1      -1.277  11.982  19.076  0.00  0.00    +0.000 A 
ATOM     26  C   UNL     1      -2.105  12.930  19.653  0.00  0.00    +0.000 A 
ATOM     27  N   UNL     1      -3.353  12.406  19.506  0.00  0.00    +0.000 N 
ATOM     28  C   UNL     1      -3.404  11.772  18.294  0.00  0.00    +0.000 A 
ATOM     29  C   UNL     1      -4.499  11.489  17.472  0.00  0.00    +0.000 A 
ATOM     30  C   UNL     1      -4.236  10.780  16.308  0.00  0.00    +0.000 A 
ATOM     31  C   UNL     1      -2.960  10.269  16.080  0.00  0.00    +0.000 A 
ATOM     32  F   UNL     1      -2.749   9.565  14.957  0.00  0.00    +0.000 F 
ATOM     33  C   UNL     1      -1.885  10.491  16.958  0.00  0.00    +0.000 A 
ATOM     34  C   UNL     1      -2.087  11.357  18.052  0.00  0.00    +0.000 A 
ATOM     35  H   UNL     1      -4.033  12.304  20.245  0.00  0.00    +0.000 HD
ENDBRANCH  24  25
ENDBRANCH  23  24
ENDBRANCH  22  23
ENDBRANCH   1  22
TORSDOF 7
ENDMDL
MODEL 2
REMARK VINA RESULT:      -8.7      5.711      8.954
REMARK  Name = 
REMARK  7 active torsions:
REMARK  status: ('A' for Active; 'I' for Inactive)
REMARK    1  A    between atoms: C_2  and  C_4
REMARK    2  A    between atoms: C_12  and  N_13
REMARK    3  A    between atoms: N_13  and  C_14
REMARK    4  A    between atoms: N_13  and  C_27
REMARK    5  A    between atoms: C_14  and  C_15
REMARK    6  A    between atoms: C_15  and  C_16
REMARK    7  A    between atoms: C_16  and  C_17
REMARK                            x       y       z     vdW  Elec       q    Type
REMARK                         _______ _______ _______ _____ _____    ______ ____
ROOT
ATOM      1  N   UNL     1       5.989   6.058  16.643  0.00  0.00    +0.000 NA
ENDROOT
BRANCH   1  10
ATOM      2  C   UNL     1       3.290   3.000  19.756  0.00  0.00    +0.000 A 
ATOM      3  C   UNL     1       2.204   2.869  20.638  0.00  0.00    +0.000 A 
ATOM      4  C   UNL     1       1.434   3.981  20.972  0.00  0.00    +0.000 A 
ATOM      5  C   UNL     1       1.744   5.217  20.426  0.00  0.00    +0.000 A 
ATOM      6  F   UNL     1       0.993   6.275  20.770  0.00  0.00    +0.000 F 
ATOM      7  C   UNL     1       2.828   5.373  19.563  0.00  0.00    +0.000 A 
ATOM      8  C   UNL     1       3.605   4.262  19.195  0.00  0.00    +0.000 A 
ATOM      9  C   UNL     1       4.749   4.424  18.230  0.00  0.00    +0.000 C 
ATOM     10  C   UNL     1       4.743   5.776  17.470  0.00  0.00    +0.000 C 
ATOM     11  C   UNL     1       4.358   6.862  18.492  0.00  0.00    +0.000 C 
ATOM     12  O   UNL     1       3.052   6.629  19.056  0.00  0.00    +0.000 OA
BRANCH   2  14
ATOM     13  N   UNL     1       5.184   1.542  20.257  0.00  0.00    +0.000 N 
ATOM     14  C   UNL     1       4.114   1.784  19.456  0.00  0.00    +0.000 C 
ATOM     15  O   UNL     1       3.828   1.028  18.533  0.00  0.00    +0.000 OA
ATOM     16  H   UNL     1       5.690   0.681  20.086  0.00  0.00    +0.000 HD
ATOM     17  H   UNL     1       5.354   2.030  21.126  0.00  0.00    +0.000 HD
ENDBRANCH   2  14
ENDBRANCH   1  10
BRANCH   1  18
ATOM     18  C   UNL     1       6.349   4.808  15.916  0.00  0.00    +0.000 C 
ATOM     19  C   UNL     1       5.309   4.526  14.783  0.00  0.00    +0.000 C 
ATOM     20  C   UNL     1       6.481   4.251  13.834  0.00  0.00    +0.000 C 
ATOM     21  C   UNL     1       7.366   5.077  14.784  0.00  0.00    +0.000 C 
ENDBRANCH   1  18
BRANCH   1  22
ATOM     22  C   UNL     1       7.090   6.527  17.532  0.00  0.00    +0.000 C 
BRANCH  22  23
ATOM     23  C   UNL     1       7.676   7.952  17.523  0.00  0.00    +0.000 C 
BRANCH  23  24
ATOM     24  C   UNL     1       8.498   8.473  18.689  0.00  0.00    +0.000 C 
BRANCH  24  25
ATOM     25  C   UNL     1       8.971   9.889  18.688  0.00  0.00    +0.000 A 
ATOM     26  C   UNL     1       9.224  10.566  17.507  0.00  0.00    +0.000 A 
ATOM     27  N   UNL     1      10.231  11.424  17.833  0.00  0.00    +0.000 N 
ATOM     28  C   UNL     1      10.008  11.870  19.107  0.00  0.00    +0.000 A 
ATOM     29  C   UNL     1      10.427  13.048  19.734  0.00  0.00    +0.000 A 
ATOM     30  C   UNL     1      10.079  13.200  21.069  0.00  0.00    +0.000 A 
ATOM     31  C   UNL     1       9.471  12.149  21.752  0.00  0.00    +0.000 A 
ATOM     32  F   UNL     1       9.172  12.322  23.048  0.00  0.00    +0.000 F 
ATOM     33  C   UNL     1       9.129  10.936  21.128  0.00  0.00    +0.000 A 
ATOM     34  C   UNL     1       9.310  10.829  19.735  0.00  0.00    +0.000 A 
ATOM     35  H   UNL     1      11.096  11.529  17.323  0.00  0.00    +0.000 HD
ENDBRANCH  24  25
ENDBRANCH  23  24
ENDBRANCH  22  23
ENDBRANCH   1  22
TORSDOF 7
ENDMDL
MODEL 3
REMARK VINA RESULT:      -8.7      3.471      8.597
REMARK  Name = 
REMARK  7 active torsions:
REMARK  status: ('A' for Active; 'I' for Inactive)
REMARK    1  A    between atoms: C_2  and  C_4
REMARK    2  A    between atoms: C_12  and  N_13
REMARK    3  A    between atoms: N_13  and  C_14
REMARK    4  A    between atoms: N_13  and  C_27
REMARK    5  A    between atoms: C_14  and  C_15
REMARK    6  A    between atoms: C_15  and  C_16
REMARK    7  A    between atoms: C_16  and  C_17
REMARK                            x       y       z     vdW  Elec       q    Type
REMARK                         _______ _______ _______ _____ _____    ______ ____
ROOT
ATOM      1  N   UNL     1       2.673   5.121  19.137  0.00  0.00    +0.000 NA
ENDROOT
BRANCH   1  10
ATOM      2  C   UNL     1       0.947   9.681  20.734  0.00  0.00    +0.000 A 
ATOM      3  C   UNL     1       0.716  11.033  20.429  0.00  0.00    +0.000 A 
ATOM      4  C   UNL     1       1.122  11.554  19.202  0.00  0.00    +0.000 A 
ATOM      5  C   UNL     1       1.752  10.730  18.283  0.00  0.00    +0.000 A 
ATOM      6  F   UNL     1       2.141  11.258  17.112  0.00  0.00    +0.000 F 
ATOM      7  C   UNL     1       2.008   9.389  18.572  0.00  0.00    +0.000 A 
ATOM      8  C   UNL     1       1.588   8.838  19.794  0.00  0.00    +0.000 A 
ATOM      9  C   UNL     1       1.827   7.381  20.087  0.00  0.00    +0.000 C 
ATOM     10  C   UNL     1       2.227   6.546  18.843  0.00  0.00    +0.000 C 
ATOM     11  C   UNL     1       3.215   7.403  18.029  0.00  0.00    +0.000 C 
ATOM     12  O   UNL     1       2.621   8.643  17.597  0.00  0.00    +0.000 OA
BRANCH   2  14
ATOM     13  N   UNL     1       1.485   9.101  23.045  0.00  0.00    +0.000 N 
ATOM     14  C   UNL     1       0.530   9.173  22.081  0.00  0.00    +0.000 C 
ATOM     15  O   UNL     1      -0.630   8.849  22.312  0.00  0.00    +0.000 OA
ATOM     16  H   UNL     1       1.174   8.822  23.968  0.00  0.00    +0.000 HD
ATOM     17  H   UNL     1       2.401   9.518  22.957  0.00  0.00    +0.000 HD
ENDBRANCH   2  14
ENDBRANCH   1  10
BRANCH   1  18
ATOM     18  C   UNL     1       2.027   4.692  20.409  0.00  0.00    +0.000 C 
ATOM     19  C   UNL     1       0.794   3.781  20.107  0.00  0.00    +0.000 C 
ATOM     20  C   UNL     1       1.301   2.811  21.180  0.00  0.00    +0.000 C 
ATOM     21  C   UNL     1       2.697   3.428  20.993  0.00  0.00    +0.000 C 
ENDBRANCH   1  18
BRANCH   1  22
ATOM     22  C   UNL     1       4.161   5.063  19.214  0.00  0.00    +0.000 C 
BRANCH  22  23
ATOM     23  C   UNL     1       5.042   4.086  18.412  0.00  0.00    +0.000 C 
BRANCH  23  24
ATOM     24  C   UNL     1       4.818   3.864  16.926  0.00  0.00    +0.000 C 
BRANCH  24  25
ATOM     25  C   UNL     1       5.902   4.200  15.955  0.00  0.00    +0.000 A 
ATOM     26  C   UNL     1       7.078   4.807  16.365  0.00  0.00    +0.000 A 
ATOM     27  N   UNL     1       7.444   5.564  15.294  0.00  0.00    +0.000 N 
ATOM     28  C   UNL     1       7.127   4.870  14.158  0.00  0.00    +0.000 A 
ATOM     29  C   UNL     1       7.673   4.949  12.874  0.00  0.00    +0.000 A 
ATOM     30  C   UNL     1       7.101   4.138  11.903  0.00  0.00    +0.000 A 
ATOM     31  C   UNL     1       5.953   3.406  12.199  0.00  0.00    +0.000 A 
ATOM     32  F   UNL     1       5.412   2.653  11.229  0.00  0.00    +0.000 F 
ATOM     33  C   UNL     1       5.365   3.400  13.476  0.00  0.00    +0.000 A 
ATOM     34  C   UNL     1       6.031   4.074  14.520  0.00  0.00    +0.000 A 
ATOM     35  H   UNL     1       7.686   6.545  15.328  0.00  0.00    +0.000 HD
ENDBRANCH  24  25
ENDBRANCH  23  24
ENDBRANCH  22  23
ENDBRANCH   1  22
TORSDOF 7
ENDMDL
MODEL 4
REMARK VINA RESULT:      -8.5      1.640      2.817
REMARK  Name = 
REMARK  7 active torsions:
REMARK  status: ('A' for Active; 'I' for Inactive)
REMARK    1  A    between atoms: C_2  and  C_4
REMARK    2  A    between atoms: C_12  and  N_13
REMARK    3  A    between atoms: N_13  and  C_14
REMARK    4  A    between atoms: N_13  and  C_27
REMARK    5  A    between atoms: C_14  and  C_15
REMARK    6  A    between atoms: C_15  and  C_16
REMARK    7  A    between atoms: C_16  and  C_17
REMARK                            x       y       z     vdW  Elec       q    Type
REMARK                         _______ _______ _______ _____ _____    ______ ____
ROOT
ATOM      1  N   UNL     1       1.790   8.386  19.994  0.00  0.00    +0.000 NA
ENDROOT
BRANCH   1  10
ATOM      2  C   UNL     1       4.585   5.369  16.925  0.00  0.00    +0.000 A 
ATOM      3  C   UNL     1       4.867   4.065  16.483  0.00  0.00    +0.000 A 
ATOM      4  C   UNL     1       4.229   2.974  17.069  0.00  0.00    +0.000 A 
ATOM      5  C   UNL     1       3.312   3.182  18.087  0.00  0.00    +0.000 A 
ATOM      6  F   UNL     1       2.718   2.113  18.640  0.00  0.00    +0.000 F 
ATOM      7  C   UNL     1       3.031   4.466  18.554  0.00  0.00    +0.000 A 
ATOM      8  C   UNL     1       3.646   5.582  17.964  0.00  0.00    +0.000 A 
ATOM      9  C   UNL     1       3.310   6.970  18.440  0.00  0.00    +0.000 C 
ATOM     10  C   UNL     1       2.042   7.039  19.330  0.00  0.00    +0.000 C 
ATOM     11  C   UNL     1       2.094   5.826  20.278  0.00  0.00    +0.000 C 
ATOM     12  O   UNL     1       2.097   4.580  19.553  0.00  0.00    +0.000 OA
BRANCH   2  14
ATOM     13  N   UNL     1       6.454   6.942  16.915  0.00  0.00    +0.000 N 
ATOM     14  C   UNL     1       5.324   6.511  16.295  0.00  0.00    +0.000 C 
ATOM     15  O   UNL     1       4.936   7.027  15.253  0.00  0.00    +0.000 OA
ATOM     16  H   UNL     1       6.980   7.667  16.441  0.00  0.00    +0.000 HD
ATOM     17  H   UNL     1       6.905   6.440  17.667  0.00  0.00    +0.000 HD
ENDBRANCH   2  14
ENDBRANCH   1  10
BRANCH   1  18
ATOM     18  C   UNL     1       1.081   8.138  21.280  0.00  0.00    +0.000 C 
ATOM     19  C   UNL     1       1.451   9.243  22.321  0.00  0.00    +0.000 C 
ATOM     20  C   UNL     1      -0.040   9.369  22.654  0.00  0.00    +0.000 C 
ATOM     21  C   UNL     1      -0.338   8.750  21.278  0.00  0.00    +0.000 C 
ENDBRANCH   1  18
BRANCH   1  22
ATOM     22  C   UNL     1       1.004   9.261  19.078  0.00  0.00    +0.000 C 
BRANCH  22  23
ATOM     23  C   UNL     1       1.450  10.657  18.603  0.00  0.00    +0.000 C 
BRANCH  23  24
ATOM     24  C   UNL     1       0.785  11.917  19.128  0.00  0.00    +0.000 C 
BRANCH  24  25
ATOM     25  C   UNL     1      -0.679  12.124  18.919  0.00  0.00    +0.000 A 
ATOM     26  C   UNL     1      -1.362  13.151  19.548  0.00  0.00    +0.000 A 
ATOM     27  N   UNL     1      -2.614  12.646  19.731  0.00  0.00    +0.000 N 
ATOM     28  C   UNL     1      -2.924  11.883  18.638  0.00  0.00    +0.000 A 
ATOM     29  C   UNL     1      -4.171  11.541  18.106  0.00  0.00    +0.000 A 
ATOM     30  C   UNL     1      -4.165  10.701  17.000  0.00  0.00    +0.000 A 
ATOM     31  C   UNL     1      -2.969  10.135  16.565  0.00  0.00    +0.000 A 
ATOM     32  F   UNL     1      -3.005   9.307  15.510  0.00  0.00    +0.000 F 
ATOM     33  C   UNL     1      -1.730  10.424  17.163  0.00  0.00    +0.000 A 
ATOM     34  C   UNL     1      -1.691  11.411  18.169  0.00  0.00    +0.000 A 
ATOM     35  H   UNL     1      -3.120  12.643  20.605  0.00  0.00    +0.000 HD
ENDBRANCH  24  25
ENDBRANCH  23  24
ENDBRANCH  22  23
ENDBRANCH   1  22
TORSDOF 7
ENDMDL
MODEL 5
REMARK VINA RESULT:      -8.5      5.784      9.074
REMARK  Name = 
REMARK  7 active torsions:
REMARK  status: ('A' for Active; 'I' for Inactive)
REMARK    1  A    between atoms: C_2  and  C_4
REMARK    2  A    between atoms: C_12  and  N_13
REMARK    3  A    between atoms: N_13  and  C_14
REMARK    4  A    between atoms: N_13  and  C_27
REMARK    5  A    between atoms: C_14  and  C_15
REMARK    6  A    between atoms: C_15  and  C_16
REMARK    7  A    between atoms: C_16  and  C_17
REMARK                            x       y       z     vdW  Elec       q    Type
REMARK                         _______ _______ _______ _____ _____    ______ ____
ROOT
ATOM      1  N   UNL     1       5.724   6.182  16.933  0.00  0.00    +0.000 NA
ENDROOT
BRANCH   1  10
ATOM      2  C   UNL     1       3.354   2.827  20.007  0.00  0.00    +0.000 A 
ATOM      3  C   UNL     1       2.242   2.544  20.817  0.00  0.00    +0.000 A 
ATOM      4  C   UNL     1       1.270   3.518  21.038  0.00  0.00    +0.000 A 
ATOM      5  C   UNL     1       1.406   4.766  20.451  0.00  0.00    +0.000 A 
ATOM      6  F   UNL     1       0.461   5.689  20.687  0.00  0.00    +0.000 F 
ATOM      7  C   UNL     1       2.510   5.074  19.658  0.00  0.00    +0.000 A 
ATOM      8  C   UNL     1       3.491   4.101  19.404  0.00  0.00    +0.000 A 
ATOM      9  C   UNL     1       4.662   4.422  18.513  0.00  0.00    +0.000 C 
ATOM     10  C   UNL     1       4.484   5.720  17.685  0.00  0.00    +0.000 C 
ATOM     11  C   UNL     1       3.842   6.762  18.620  0.00  0.00    +0.000 C 
ATOM     12  O   UNL     1       2.554   6.328  19.103  0.00  0.00    +0.000 OA
BRANCH   2  14
ATOM     13  N   UNL     1       4.299   0.974  18.726  0.00  0.00    +0.000 N 
ATOM     14  C   UNL     1       4.395   1.762  19.828  0.00  0.00    +0.000 C 
ATOM     15  O   UNL     1       5.306   1.616  20.636  0.00  0.00    +0.000 OA
ATOM     16  H   UNL     1       5.047   0.306  18.583  0.00  0.00    +0.000 HD
ATOM     17  H   UNL     1       3.679   1.169  17.952  0.00  0.00    +0.000 HD
ENDBRANCH   2  14
ENDBRANCH   1  10
BRANCH   1  18
ATOM     18  C   UNL     1       6.392   4.976  16.367  0.00  0.00    +0.000 C 
ATOM     19  C   UNL     1       5.383   4.163  15.494  0.00  0.00    +0.000 C 
ATOM     20  C   UNL     1       6.465   4.062  14.413  0.00  0.00    +0.000 C 
ATOM     21  C   UNL     1       7.128   5.297  15.047  0.00  0.00    +0.000 C 
ENDBRANCH   1  18
BRANCH   1  22
ATOM     22  C   UNL     1       6.620   6.941  17.852  0.00  0.00    +0.000 C 
BRANCH  22  23
ATOM     23  C   UNL     1       7.848   7.755  17.402  0.00  0.00    +0.000 C 
BRANCH  23  24
ATOM     24  C   UNL     1       7.904   9.262  17.584  0.00  0.00    +0.000 C 
BRANCH  24  25
ATOM     25  C   UNL     1       8.889   9.858  18.534  0.00  0.00    +0.000 A 
ATOM     26  C   UNL     1       8.972   9.436  19.850  0.00  0.00    +0.000 A 
ATOM     27  N   UNL     1       9.359  10.552  20.527  0.00  0.00    +0.000 N 
ATOM     28  C   UNL     1      10.239  11.241  19.736  0.00  0.00    +0.000 A 
ATOM     29  C   UNL     1      11.247  12.143  20.087  0.00  0.00    +0.000 A 
ATOM     30  C   UNL     1      11.953  12.724  19.042  0.00  0.00    +0.000 A 
ATOM     31  C   UNL     1      11.551  12.505  17.727  0.00  0.00    +0.000 A 
ATOM     32  F   UNL     1      12.240  13.103  16.743  0.00  0.00    +0.000 F 
ATOM     33  C   UNL     1      10.480  11.657  17.391  0.00  0.00    +0.000 A 
ATOM     34  C   UNL     1       9.866  10.919  18.423  0.00  0.00    +0.000 A 
ATOM     35  H   UNL     1       8.907  10.920  21.352  0.00  0.00    +0.000 HD
ENDBRANCH  24  25
ENDBRANCH  23  24
ENDBRANCH  22  23
ENDBRANCH   1  22
TORSDOF 7
ENDMDL
MODEL 6
REMARK VINA RESULT:      -8.4      2.607      4.629
REMARK  Name = 
REMARK  7 active torsions:
REMARK  status: ('A' for Active; 'I' for Inactive)
REMARK    1  A    between atoms: C_2  and  C_4
REMARK    2  A    between atoms: C_12  and  N_13
REMARK    3  A    between atoms: N_13  and  C_14
REMARK    4  A    between atoms: N_13  and  C_27
REMARK    5  A    between atoms: C_14  and  C_15
REMARK    6  A    between atoms: C_15  and  C_16
REMARK    7  A    between atoms: C_16  and  C_17
REMARK                            x       y       z     vdW  Elec       q    Type
REMARK                         _______ _______ _______ _____ _____    ______ ____
ROOT
ATOM      1  N   UNL     1       2.985   4.979  19.822  0.00  0.00    +0.000 NA
ENDROOT
BRANCH   1  10
ATOM      2  C   UNL     1       6.955   6.025  16.743  0.00  0.00    +0.000 A 
ATOM      3  C   UNL     1       7.564   5.838  15.491  0.00  0.00    +0.000 A 
ATOM      4  C   UNL     1       6.998   4.970  14.559  0.00  0.00    +0.000 A 
ATOM      5  C   UNL     1       5.829   4.294  14.874  0.00  0.00    +0.000 A 
ATOM      6  F   UNL     1       5.309   3.457  13.963  0.00  0.00    +0.000 F 
ATOM      7  C   UNL     1       5.218   4.451  16.118  0.00  0.00    +0.000 A 
ATOM      8  C   UNL     1       5.759   5.337  17.064  0.00  0.00    +0.000 A 
ATOM      9  C   UNL     1       5.074   5.537  18.390  0.00  0.00    +0.000 C 
ATOM     10  C   UNL     1       3.629   4.977  18.442  0.00  0.00    +0.000 C 
ATOM     11  C   UNL     1       3.648   3.620  17.714  0.00  0.00    +0.000 C 
ATOM     12  O   UNL     1       4.055   3.756  16.337  0.00  0.00    +0.000 OA
BRANCH   2  14
ATOM     13  N   UNL     1       7.652   8.262  17.430  0.00  0.00    +0.000 N 
ATOM     14  C   UNL     1       7.619   6.937  17.729  0.00  0.00    +0.000 C 
ATOM     15  O   UNL     1       8.101   6.511  18.773  0.00  0.00    +0.000 OA
ATOM     16  H   UNL     1       8.042   8.875  18.136  0.00  0.00    +0.000 HD
ATOM     17  H   UNL     1       7.119   8.679  16.679  0.00  0.00    +0.000 HD
ENDBRANCH   2  14
ENDBRANCH   1  10
BRANCH   1  18
ATOM     18  C   UNL     1       2.401   3.628  20.055  0.00  0.00    +0.000 C 
ATOM     19  C   UNL     1       2.647   3.184  21.533  0.00  0.00    +0.000 C 
ATOM     20  C   UNL     1       1.177   2.754  21.604  0.00  0.00    +0.000 C 
ATOM     21  C   UNL     1       0.904   3.710  20.430  0.00  0.00    +0.000 C 
ENDBRANCH   1  18
BRANCH   1  22
ATOM     22  C   UNL     1       1.957   6.056  19.898  0.00  0.00    +0.000 C 
BRANCH  22  23
ATOM     23  C   UNL     1       2.231   7.547  19.619  0.00  0.00    +0.000 C 
BRANCH  23  24
ATOM     24  C   UNL     1       1.889   8.173  18.278  0.00  0.00    +0.000 C 
BRANCH  24  25
ATOM     25  C   UNL     1       1.306   9.546  18.229  0.00  0.00    +0.000 A 
ATOM     26  C   UNL     1       2.107  10.675  18.277  0.00  0.00    +0.000 A 
ATOM     27  N   UNL     1       1.331  11.598  18.908  0.00  0.00    +0.000 N 
ATOM     28  C   UNL     1       0.039  11.418  18.494  0.00  0.00    +0.000 A 
ATOM     29  C   UNL     1      -1.026  12.322  18.452  0.00  0.00    +0.000 A 
ATOM     30  C   UNL     1      -2.248  11.823  18.020  0.00  0.00    +0.000 A 
ATOM     31  C   UNL     1      -2.398  10.458  17.790  0.00  0.00    +0.000 A 
ATOM     32  F   UNL     1      -3.600  10.008  17.399  0.00  0.00    +0.000 F 
ATOM     33  C   UNL     1      -1.336   9.545  17.916  0.00  0.00    +0.000 A 
ATOM     34  C   UNL     1      -0.048  10.055  18.178  0.00  0.00    +0.000 A 
ATOM     35  H   UNL     1       1.615  12.154  19.703  0.00  0.00    +0.000 HD
ENDBRANCH  24  25
ENDBRANCH  23  24
ENDBRANCH  22  23
ENDBRANCH   1  22
TORSDOF 7
ENDMDL
MODEL 7
REMARK VINA RESULT:      -8.3      3.187      5.272
REMARK  Name = 
REMARK  7 active torsions:
REMARK  status: ('A' for Active; 'I' for Inactive)
REMARK    1  A    between atoms: C_2  and  C_4
REMARK    2  A    between atoms: C_12  and  N_13
REMARK    3  A    between atoms: N_13  and  C_14
REMARK    4  A    between atoms: N_13  and  C_27
REMARK    5  A    between atoms: C_14  and  C_15
REMARK    6  A    between atoms: C_15  and  C_16
REMARK    7  A    between atoms: C_16  and  C_17
REMARK                            x       y       z     vdW  Elec       q    Type
REMARK                         _______ _______ _______ _____ _____    ______ ____
ROOT
ATOM      1  N   UNL     1       2.997   4.821  19.904  0.00  0.00    +0.000 NA
ENDROOT
BRANCH   1  10
ATOM      2  C   UNL     1       6.897   5.966  16.773  0.00  0.00    +0.000 A 
ATOM      3  C   UNL     1       7.488   5.802  15.508  0.00  0.00    +0.000 A 
ATOM      4  C   UNL     1       6.921   4.935  14.577  0.00  0.00    +0.000 A 
ATOM      5  C   UNL     1       5.769   4.237  14.903  0.00  0.00    +0.000 A 
ATOM      6  F   UNL     1       5.248   3.401  13.992  0.00  0.00    +0.000 F 
ATOM      7  C   UNL     1       5.176   4.370  16.159  0.00  0.00    +0.000 A 
ATOM      8  C   UNL     1       5.718   5.255  17.105  0.00  0.00    +0.000 A 
ATOM      9  C   UNL     1       5.053   5.429  18.445  0.00  0.00    +0.000 C 
ATOM     10  C   UNL     1       3.618   4.845  18.515  0.00  0.00    +0.000 C 
ATOM     11  C   UNL     1       3.647   3.497  17.771  0.00  0.00    +0.000 C 
ATOM     12  O   UNL     1       4.028   3.654  16.390  0.00  0.00    +0.000 OA
BRANCH   2  14
ATOM     13  N   UNL     1       7.589   8.204  17.461  0.00  0.00    +0.000 N 
ATOM     14  C   UNL     1       7.563   6.878  17.758  0.00  0.00    +0.000 C 
ATOM     15  O   UNL     1       8.052   6.451  18.797  0.00  0.00    +0.000 OA
ATOM     16  H   UNL     1       7.980   8.817  18.167  0.00  0.00    +0.000 HD
ATOM     17  H   UNL     1       7.051   8.621  16.714  0.00  0.00    +0.000 HD
ENDBRANCH   2  14
ENDBRANCH   1  10
BRANCH   1  18
ATOM     18  C   UNL     1       2.509   3.438  20.164  0.00  0.00    +0.000 C 
ATOM     19  C   UNL     1       2.665   3.087  21.679  0.00  0.00    +0.000 C 
ATOM     20  C   UNL     1       1.235   2.536  21.655  0.00  0.00    +0.000 C 
ATOM     21  C   UNL     1       0.984   3.407  20.412  0.00  0.00    +0.000 C 
ENDBRANCH   1  18
BRANCH   1  22
ATOM     22  C   UNL     1       1.900   5.828  19.985  0.00  0.00    +0.000 C 
BRANCH  22  23
ATOM     23  C   UNL     1       2.115   7.354  20.026  0.00  0.00    +0.000 C 
BRANCH  23  24
ATOM     24  C   UNL     1       1.428   8.217  21.070  0.00  0.00    +0.000 C 
BRANCH  24  25
ATOM     25  C   UNL     1       0.770   9.493  20.661  0.00  0.00    +0.000 A 
ATOM     26  C   UNL     1       0.945  10.024  19.394  0.00  0.00    +0.000 A 
ATOM     27  N   UNL     1       0.863  11.369  19.590  0.00  0.00    +0.000 N 
ATOM     28  C   UNL     1      -0.087  11.598  20.548  0.00  0.00    +0.000 A 
ATOM     29  C   UNL     1      -0.870  12.731  20.784  0.00  0.00    +0.000 A 
ATOM     30  C   UNL     1      -1.725  12.680  21.878  0.00  0.00    +0.000 A 
ATOM     31  C   UNL     1      -1.669  11.597  22.751  0.00  0.00    +0.000 A 
ATOM     32  F   UNL     1      -2.491  11.592  23.811  0.00  0.00    +0.000 F 
ATOM     33  C   UNL     1      -0.816  10.498  22.546  0.00  0.00    +0.000 A 
ATOM     34  C   UNL     1      -0.071  10.448  21.349  0.00  0.00    +0.000 A 
ATOM     35  H   UNL     1       1.535  12.048  19.263  0.00  0.00    +0.000 HD
ENDBRANCH  24  25
ENDBRANCH  23  24
ENDBRANCH  22  23
ENDBRANCH   1  22
TORSDOF 7
ENDMDL
MODEL 8
REMARK VINA RESULT:      -8.3      2.606      3.822
REMARK  Name = 
REMARK  7 active torsions:
REMARK  status: ('A' for Active; 'I' for Inactive)
REMARK    1  A    between atoms: C_2  and  C_4
REMARK    2  A    between atoms: C_12  and  N_13
REMARK    3  A    between atoms: N_13  and  C_14
REMARK    4  A    between atoms: N_13  and  C_27
REMARK    5  A    between atoms: C_14  and  C_15
REMARK    6  A    between atoms: C_15  and  C_16
REMARK    7  A    between atoms: C_16  and  C_17
REMARK                            x       y       z     vdW  Elec       q    Type
REMARK                         _______ _______ _______ _____ _____    ______ ____
ROOT
ATOM      1  N   UNL     1       1.737   8.414  20.159  0.00  0.00    +0.000 NA
ENDROOT
BRANCH   1  10
ATOM      2  C   UNL     1       4.524   5.303  17.179  0.00  0.00    +0.000 A 
ATOM      3  C   UNL     1       4.753   3.996  16.718  0.00  0.00    +0.000 A 
ATOM      4  C   UNL     1       4.015   2.932  17.234  0.00  0.00    +0.000 A 
ATOM      5  C   UNL     1       3.052   3.172  18.202  0.00  0.00    +0.000 A 
ATOM      6  F   UNL     1       2.362   2.130  18.689  0.00  0.00    +0.000 F 
ATOM      7  C   UNL     1       2.822   4.459  18.687  0.00  0.00    +0.000 A 
ATOM      8  C   UNL     1       3.538   5.549  18.165  0.00  0.00    +0.000 A 
ATOM      9  C   UNL     1       3.259   6.944  18.659  0.00  0.00    +0.000 C 
ATOM     10  C   UNL     1       1.946   7.070  19.475  0.00  0.00    +0.000 C 
ATOM     11  C   UNL     1       1.867   5.834  20.389  0.00  0.00    +0.000 C 
ATOM     12  O   UNL     1       1.838   4.607  19.632  0.00  0.00    +0.000 OA
BRANCH   2  14
ATOM     13  N   UNL     1       5.106   6.822  15.356  0.00  0.00    +0.000 N 
ATOM     14  C   UNL     1       5.368   6.411  16.625  0.00  0.00    +0.000 C 
ATOM     15  O   UNL     1       6.251   6.939  17.292  0.00  0.00    +0.000 OA
ATOM     16  H   UNL     1       5.637   7.616  15.020  0.00  0.00    +0.000 HD
ATOM     17  H   UNL     1       4.284   6.544  14.838  0.00  0.00    +0.000 HD
ENDBRANCH   2  14
ENDBRANCH   1  10
BRANCH   1  18
ATOM     18  C   UNL     1       1.094   8.160  21.479  0.00  0.00    +0.000 C 
ATOM     19  C   UNL     1       1.421   9.324  22.470  0.00  0.00    +0.000 C 
ATOM     20  C   UNL     1      -0.062   9.356  22.856  0.00  0.00    +0.000 C 
ATOM     21  C   UNL     1      -0.364   8.670  21.512  0.00  0.00    +0.000 C 
ENDBRANCH   1  18
BRANCH   1  22
ATOM     22  C   UNL     1       0.908   9.299  19.291  0.00  0.00    +0.000 C 
BRANCH  22  23
ATOM     23  C   UNL     1       1.229  10.775  18.987  0.00  0.00    +0.000 C 
BRANCH  23  24
ATOM     24  C   UNL     1       0.529  11.901  19.728  0.00  0.00    +0.000 C 
BRANCH  24  25
ATOM     25  C   UNL     1      -0.963  11.969  19.733  0.00  0.00    +0.000 A 
ATOM     26  C   UNL     1      -1.702  11.751  18.583  0.00  0.00    +0.000 A 
ATOM     27  N   UNL     1      -2.798  12.543  18.745  0.00  0.00    +0.000 N 
ATOM     28  C   UNL     1      -3.147  12.514  20.068  0.00  0.00    +0.000 A 
ATOM     29  C   UNL     1      -4.385  12.741  20.677  0.00  0.00    +0.000 A 
ATOM     30  C   UNL     1      -4.415  12.687  22.064  0.00  0.00    +0.000 A 
ATOM     31  C   UNL     1      -3.227  12.556  22.779  0.00  0.00    +0.000 A 
ATOM     32  F   UNL     1      -3.291  12.534  24.119  0.00  0.00    +0.000 F 
ATOM     33  C   UNL     1      -1.976  12.411  22.154  0.00  0.00    +0.000 A 
ATOM     34  C   UNL     1      -1.944  12.283  20.750  0.00  0.00    +0.000 A 
ATOM     35  H   UNL     1      -3.145  13.205  18.066  0.00  0.00    +0.000 HD
ENDBRANCH  24  25
ENDBRANCH  23  24
ENDBRANCH  22  23
ENDBRANCH   1  22
TORSDOF 7
ENDMDL
MODEL 9
REMARK VINA RESULT:      -8.3      2.951      5.173
REMARK  Name = 
REMARK  7 active torsions:
REMARK  status: ('A' for Active; 'I' for Inactive)
REMARK    1  A    between atoms: C_2  and  C_4
REMARK    2  A    between atoms: C_12  and  N_13
REMARK    3  A    between atoms: N_13  and  C_14
REMARK    4  A    between atoms: N_13  and  C_27
REMARK    5  A    between atoms: C_14  and  C_15
REMARK    6  A    between atoms: C_15  and  C_16
REMARK    7  A    between atoms: C_16  and  C_17
REMARK                            x       y       z     vdW  Elec       q    Type
REMARK                         _______ _______ _______ _____ _____    ______ ____
ROOT
ATOM      1  N   UNL     1       2.947   4.950  19.823  0.00  0.00    +0.000 NA
ENDROOT
BRANCH   1  10
ATOM      2  C   UNL     1       6.952   6.057  16.813  0.00  0.00    +0.000 A 
ATOM      3  C   UNL     1       7.596   5.862  15.579  0.00  0.00    +0.000 A 
ATOM      4  C   UNL     1       7.081   4.955  14.655  0.00  0.00    +0.000 A 
ATOM      5  C   UNL     1       5.927   4.249  14.958  0.00  0.00    +0.000 A 
ATOM      6  F   UNL     1       5.456   3.375  14.055  0.00  0.00    +0.000 F 
ATOM      7  C   UNL     1       5.282   4.413  16.184  0.00  0.00    +0.000 A 
ATOM      8  C   UNL     1       5.772   5.338  17.122  0.00  0.00    +0.000 A 
ATOM      9  C   UNL     1       5.050   5.544  18.427  0.00  0.00    +0.000 C 
ATOM     10  C   UNL     1       3.623   4.939  18.459  0.00  0.00    +0.000 C 
ATOM     11  C   UNL     1       3.703   3.568  17.762  0.00  0.00    +0.000 C 
ATOM     12  O   UNL     1       4.137   3.686  16.393  0.00  0.00    +0.000 OA
BRANCH   2  14
ATOM     13  N   UNL     1       8.143   6.484  18.902  0.00  0.00    +0.000 N 
ATOM     14  C   UNL     1       7.563   7.012  17.792  0.00  0.00    +0.000 C 
ATOM     15  O   UNL     1       7.556   8.222  17.596  0.00  0.00    +0.000 OA
ATOM     16  H   UNL     1       8.612   7.135  19.520  0.00  0.00    +0.000 HD
ATOM     17  H   UNL     1       8.330   5.497  19.019  0.00  0.00    +0.000 HD
ENDBRANCH   2  14
ENDBRANCH   1  10
BRANCH   1  18
ATOM     18  C   UNL     1       2.483   3.565  20.115  0.00  0.00    +0.000 C 
ATOM     19  C   UNL     1       2.558   3.284  21.650  0.00  0.00    +0.000 C 
ATOM     20  C   UNL     1       1.147   2.689  21.568  0.00  0.00    +0.000 C 
ATOM     21  C   UNL     1       0.947   3.498  20.274  0.00  0.00    +0.000 C 
ENDBRANCH   1  18
BRANCH   1  22
ATOM     22  C   UNL     1       1.824   5.930  19.821  0.00  0.00    +0.000 C 
BRANCH  22  23
ATOM     23  C   UNL     1       1.606   7.013  20.896  0.00  0.00    +0.000 C 
BRANCH  23  24
ATOM     24  C   UNL     1       1.287   8.448  20.514  0.00  0.00    +0.000 C 
BRANCH  24  25
ATOM     25  C   UNL     1       0.614   9.345  21.500  0.00  0.00    +0.000 A 
ATOM     26  C   UNL     1       0.833   9.218  22.861  0.00  0.00    +0.000 A 
ATOM     27  N   UNL     1      -0.348   9.603  23.419  0.00  0.00    +0.000 N 
ATOM     28  C   UNL     1      -0.851  10.634  22.671  0.00  0.00    +0.000 A 
ATOM     29  C   UNL     1      -1.732  11.658  23.029  0.00  0.00    +0.000 A 
ATOM     30  C   UNL     1      -2.101  12.541  22.023  0.00  0.00    +0.000 A 
ATOM     31  C   UNL     1      -1.708  12.300  20.709  0.00  0.00    +0.000 A 
ATOM     32  F   UNL     1      -2.104  13.160  19.759  0.00  0.00    +0.000 F 
ATOM     33  C   UNL     1      -0.887  11.217  20.349  0.00  0.00    +0.000 A 
ATOM     34  C   UNL     1      -0.356  10.412  21.378  0.00  0.00    +0.000 A 
ATOM     35  H   UNL     1      -0.866   9.079  24.109  0.00  0.00    +0.000 HD
ENDBRANCH  24  25
ENDBRANCH  23  24
ENDBRANCH  22  23
ENDBRANCH   1  22
TORSDOF 7
ENDMDL
