MODEL 1
REMARK VINA RESULT:      -7.5      0.000      0.000
REMARK  Name = 
REMARK  7 active torsions:
REMARK  status: ('A' for Active; 'I' for Inactive)
REMARK    1  A    between atoms: C_1  and  O_2
REMARK    2  A    between atoms: O_2  and  C_3
REMARK    3  A    between atoms: C_5  and  O_6
REMARK    4  A    between atoms: O_6  and  C_7
REMARK    5  A    between atoms: C_8  and  O_9
REMARK    6  A    between atoms: O_9  and  C_10
REMARK    7  A    between atoms: C_12  and  C_13
REMARK                            x       y       z     vdW  Elec       q    Type
REMARK                         _______ _______ _______ _____ _____    ______ ____
ROOT
ATOM      1  C   UNL     1       3.708   5.611  17.798  0.00  0.00    +0.000 A 
ATOM      2  C   UNL     1       3.550   4.255  17.532  0.00  0.00    +0.000 A 
ATOM      3  C   UNL     1       2.574   3.516  18.185  0.00  0.00    +0.000 A 
ATOM      4  C   UNL     1       1.801   4.127  19.181  0.00  0.00    +0.000 A 
ATOM      5  C   UNL     1       1.834   5.528  19.315  0.00  0.00    +0.000 A 
ATOM      6  C   UNL     1       2.739   6.304  18.573  0.00  0.00    +0.000 A 
ENDROOT
BRANCH   6   7
ATOM      7  C   UNL     1       2.516   7.751  18.277  0.00  0.00    +0.000 C 
ATOM      8  C   UNL     1       1.788   8.732  18.859  0.00  0.00    +0.000 C 
ATOM      9  C   UNL     1       1.133   9.681  17.946  0.00  0.00    +0.000 C 
ATOM     10  C   UNL     1       0.052  10.220  18.536  0.00  0.00    +0.000 C 
ATOM     11  C   UNL     1       0.069   9.804  19.930  0.00  0.00    +0.000 A 
ATOM     12  C   UNL     1      -0.771  10.236  20.950  0.00  0.00    +0.000 A 
ATOM     13  C   UNL     1      -0.414   9.928  22.254  0.00  0.00    +0.000 A 
ATOM     14  C   UNL     1       0.772   9.221  22.521  0.00  0.00    +0.000 A 
ATOM     15  C   UNL     1       1.573   8.729  21.482  0.00  0.00    +0.000 A 
ATOM     16  C   UNL     1       1.177   8.970  20.178  0.00  0.00    +0.000 A 
ENDBRANCH   6   7
BRANCH   1  18
ATOM     17  C   UNL     1       5.225   5.768  16.014  0.00  0.00    +0.000 C 
ATOM     18  O   UNL     1       4.755   6.319  17.250  0.00  0.00    +0.000 OA
ENDBRANCH   1  18
BRANCH   3  19
ATOM     19  O   UNL     1       2.515   2.202  17.797  0.00  0.00    +0.000 OA
ATOM     20  C   UNL     1       3.536   1.368  18.339  0.00  0.00    +0.000 C 
ENDBRANCH   3  19
BRANCH   4  21
ATOM     21  O   UNL     1       1.022   3.293  19.937  0.00  0.00    +0.000 OA
ATOM     22  C   UNL     1       1.464   2.980  21.248  0.00  0.00    +0.000 C 
ENDBRANCH   4  21
TORSDOF 4
ENDMDL
MODEL 2
REMARK VINA RESULT:      -7.3      2.002      6.141
REMARK  Name = 
REMARK  7 active torsions:
REMARK  status: ('A' for Active; 'I' for Inactive)
REMARK    1  A    between atoms: C_1  and  O_2
REMARK    2  A    between atoms: O_2  and  C_3
REMARK    3  A    between atoms: C_5  and  O_6
REMARK    4  A    between atoms: O_6  and  C_7
REMARK    5  A    between atoms: C_8  and  O_9
REMARK    6  A    between atoms: O_9  and  C_10
REMARK    7  A    between atoms: C_12  and  C_13
REMARK                            x       y       z     vdW  Elec       q    Type
REMARK                         _______ _______ _______ _____ _____    ______ ____
ROOT
ATOM      1  C   UNL     1       2.129   6.535  19.592  0.00  0.00    +0.000 A 
ATOM      2  C   UNL     1       1.576   5.553  20.407  0.00  0.00    +0.000 A 
ATOM      3  C   UNL     1       1.431   4.252  19.947  0.00  0.00    +0.000 A 
ATOM      4  C   UNL     1       1.767   3.951  18.620  0.00  0.00    +0.000 A 
ATOM      5  C   UNL     1       2.492   4.891  17.863  0.00  0.00    +0.000 A 
ATOM      6  C   UNL     1       2.750   6.178  18.364  0.00  0.00    +0.000 A 
ENDROOT
BRANCH   6   7
ATOM      7  C   UNL     1       3.884   7.023  17.885  0.00  0.00    +0.000 C 
ATOM      8  C   UNL     1       4.977   6.792  17.122  0.00  0.00    +0.000 C 
ATOM      9  C   UNL     1       6.210   7.485  17.527  0.00  0.00    +0.000 C 
ATOM     10  C   UNL     1       7.287   6.801  17.104  0.00  0.00    +0.000 C 
ATOM     11  C   UNL     1       6.808   5.743  16.228  0.00  0.00    +0.000 A 
ATOM     12  C   UNL     1       7.573   4.880  15.451  0.00  0.00    +0.000 A 
ATOM     13  C   UNL     1       6.920   4.131  14.484  0.00  0.00    +0.000 A 
ATOM     14  C   UNL     1       5.533   4.266  14.293  0.00  0.00    +0.000 A 
ATOM     15  C   UNL     1       4.762   5.085  15.130  0.00  0.00    +0.000 A 
ATOM     16  C   UNL     1       5.402   5.775  16.145  0.00  0.00    +0.000 A 
ENDBRANCH   6   7
BRANCH   1  18
ATOM     17  C   UNL     1       1.311   8.118  21.119  0.00  0.00    +0.000 C 
ATOM     18  O   UNL     1       2.159   7.852  19.995  0.00  0.00    +0.000 OA
ENDBRANCH   1  18
BRANCH   3  19
ATOM     19  O   UNL     1       0.902   3.389  20.871  0.00  0.00    +0.000 OA
ATOM     20  C   UNL     1       1.862   2.682  21.653  0.00  0.00    +0.000 C 
ENDBRANCH   3  19
BRANCH   4  21
ATOM     21  O   UNL     1       1.389   2.716  18.168  0.00  0.00    +0.000 OA
ATOM     22  C   UNL     1       2.407   1.763  17.910  0.00  0.00    +0.000 C 
ENDBRANCH   4  21
TORSDOF 4
ENDMDL
MODEL 3
REMARK VINA RESULT:      -7.0      2.178      5.168
REMARK  Name = 
REMARK  7 active torsions:
REMARK  status: ('A' for Active; 'I' for Inactive)
REMARK    1  A    between atoms: C_1  and  O_2
REMARK    2  A    between atoms: O_2  and  C_3
REMARK    3  A    between atoms: C_5  and  O_6
REMARK    4  A    between atoms: O_6  and  C_7
REMARK    5  A    between atoms: C_8  and  O_9
REMARK    6  A    between atoms: O_9  and  C_10
REMARK    7  A    between atoms: C_12  and  C_13
REMARK                            x       y       z     vdW  Elec       q    Type
REMARK                         _______ _______ _______ _____ _____    ______ ____
ROOT
ATOM      1  C   UNL     1       5.447   4.425  18.304  0.00  0.00    +0.000 A 
ATOM      2  C   UNL     1       6.523   5.256  18.009  0.00  0.00    +0.000 A 
ATOM      3  C   UNL     1       6.812   5.599  16.696  0.00  0.00    +0.000 A 
ATOM      4  C   UNL     1       6.062   5.032  15.657  0.00  0.00    +0.000 A 
ATOM      5  C   UNL     1       4.870   4.348  15.962  0.00  0.00    +0.000 A 
ATOM      6  C   UNL     1       4.503   4.095  17.295  0.00  0.00    +0.000 A 
ENDROOT
BRANCH   6   7
ATOM      7  C   UNL     1       3.091   3.848  17.715  0.00  0.00    +0.000 C 
ATOM      8  C   UNL     1       2.226   4.486  18.536  0.00  0.00    +0.000 C 
ATOM      9  C   UNL     1       1.350   3.627  19.348  0.00  0.00    +0.000 C 
ATOM     10  C   UNL     1       0.968   4.275  20.462  0.00  0.00    +0.000 C 
ATOM     11  C   UNL     1       1.409   5.655  20.330  0.00  0.00    +0.000 A 
ATOM     12  C   UNL     1       1.112   6.720  21.173  0.00  0.00    +0.000 A 
ATOM     13  C   UNL     1       1.400   8.000  20.723  0.00  0.00    +0.000 A 
ATOM     14  C   UNL     1       1.953   8.199  19.445  0.00  0.00    +0.000 A 
ATOM     15  C   UNL     1       2.315   7.115  18.634  0.00  0.00    +0.000 A 
ATOM     16  C   UNL     1       2.098   5.835  19.114  0.00  0.00    +0.000 A 
ENDBRANCH   6   7
BRANCH   1  18
ATOM     17  C   UNL     1       4.962   2.574  19.662  0.00  0.00    +0.000 C 
ATOM     18  O   UNL     1       5.233   3.979  19.589  0.00  0.00    +0.000 OA
ENDBRANCH   1  18
BRANCH   3  19
ATOM     19  O   UNL     1       7.879   6.449  16.562  0.00  0.00    +0.000 OA
ATOM     20  C   UNL     1       7.826   7.615  17.381  0.00  0.00    +0.000 C 
ENDBRANCH   3  19
BRANCH   4  21
ATOM     21  O   UNL     1       6.540   5.231  14.390  0.00  0.00    +0.000 OA
ATOM     22  C   UNL     1       6.483   4.143  13.481  0.00  0.00    +0.000 C 
ENDBRANCH   4  21
TORSDOF 4
ENDMDL
MODEL 4
REMARK VINA RESULT:      -6.9      1.256      1.285
REMARK  Name = 
REMARK  7 active torsions:
REMARK  status: ('A' for Active; 'I' for Inactive)
REMARK    1  A    between atoms: C_1  and  O_2
REMARK    2  A    between atoms: O_2  and  C_3
REMARK    3  A    between atoms: C_5  and  O_6
REMARK    4  A    between atoms: O_6  and  C_7
REMARK    5  A    between atoms: C_8  and  O_9
REMARK    6  A    between atoms: O_9  and  C_10
REMARK    7  A    between atoms: C_12  and  C_13
REMARK                            x       y       z     vdW  Elec       q    Type
REMARK                         _______ _______ _______ _____ _____    ______ ____
ROOT
ATOM      1  C   UNL     1       4.227   5.203  18.713  0.00  0.00    +0.000 A 
ATOM      2  C   UNL     1       4.375   3.872  18.339  0.00  0.00    +0.000 A 
ATOM      3  C   UNL     1       3.269   3.107  17.995  0.00  0.00    +0.000 A 
ATOM      4  C   UNL     1       1.987   3.662  18.111  0.00  0.00    +0.000 A 
ATOM      5  C   UNL     1       1.853   5.049  18.307  0.00  0.00    +0.000 A 
ATOM      6  C   UNL     1       2.977   5.858  18.541  0.00  0.00    +0.000 A 
ENDROOT
BRANCH   6   7
ATOM      7  C   UNL     1       2.993   7.326  18.264  0.00  0.00    +0.000 C 
ATOM      8  C   UNL     1       2.281   8.381  18.724  0.00  0.00    +0.000 C 
ATOM      9  C   UNL     1       1.946   9.417  17.735  0.00  0.00    +0.000 C 
ATOM     10  C   UNL     1       0.837  10.077  18.113  0.00  0.00    +0.000 C 
ATOM     11  C   UNL     1       0.515   9.641  19.463  0.00  0.00    +0.000 A 
ATOM     12  C   UNL     1      -0.462  10.158  20.306  0.00  0.00    +0.000 A 
ATOM     13  C   UNL     1      -0.423   9.789  21.642  0.00  0.00    +0.000 A 
ATOM     14  C   UNL     1       0.589   8.937  22.117  0.00  0.00    +0.000 A 
ATOM     15  C   UNL     1       1.526   8.365  21.245  0.00  0.00    +0.000 A 
ATOM     16  C   UNL     1       1.441   8.673  19.898  0.00  0.00    +0.000 A 
ENDBRANCH   6   7
BRANCH   1  18
ATOM     17  C   UNL     1       6.564   5.416  18.733  0.00  0.00    +0.000 C 
ATOM     18  O   UNL     1       5.301   5.929  19.177  0.00  0.00    +0.000 OA
ENDBRANCH   1  18
BRANCH   3  19
ATOM     19  O   UNL     1       3.573   1.825  17.616  0.00  0.00    +0.000 OA
ATOM     20  C   UNL     1       4.048   0.984  18.665  0.00  0.00    +0.000 C 
ENDBRANCH   3  19
BRANCH   4  21
ATOM     21  O   UNL     1       0.940   2.792  17.977  0.00  0.00    +0.000 OA
ATOM     22  C   UNL     1       0.513   2.085  19.130  0.00  0.00    +0.000 C 
ENDBRANCH   4  21
TORSDOF 4
ENDMDL
MODEL 5
REMARK VINA RESULT:      -6.9      2.636      7.065
REMARK  Name = 
REMARK  7 active torsions:
REMARK  status: ('A' for Active; 'I' for Inactive)
REMARK    1  A    between atoms: C_1  and  O_2
REMARK    2  A    between atoms: O_2  and  C_3
REMARK    3  A    between atoms: C_5  and  O_6
REMARK    4  A    between atoms: O_6  and  C_7
REMARK    5  A    between atoms: C_8  and  O_9
REMARK    6  A    between atoms: O_9  and  C_10
REMARK    7  A    between atoms: C_12  and  C_13
REMARK                            x       y       z     vdW  Elec       q    Type
REMARK                         _______ _______ _______ _____ _____    ______ ____
ROOT
ATOM      1  C   UNL     1       0.259   8.906  21.064  0.00  0.00    +0.000 A 
ATOM      2  C   UNL     1      -0.365   9.924  20.350  0.00  0.00    +0.000 A 
ATOM      3  C   UNL     1       0.150  10.355  19.137  0.00  0.00    +0.000 A 
ATOM      4  C   UNL     1       1.358   9.817  18.673  0.00  0.00    +0.000 A 
ATOM      5  C   UNL     1       1.884   8.669  19.295  0.00  0.00    +0.000 A 
ATOM      6  C   UNL     1       1.301   8.149  20.463  0.00  0.00    +0.000 A 
ENDROOT
BRANCH   6   7
ATOM      7  C   UNL     1       1.459   6.724  20.883  0.00  0.00    +0.000 C 
ATOM      8  C   UNL     1       1.863   5.594  20.258  0.00  0.00    +0.000 C 
ATOM      9  C   UNL     1       1.141   4.363  20.613  0.00  0.00    +0.000 C 
ATOM     10  C   UNL     1       1.209   3.478  19.603  0.00  0.00    +0.000 C 
ATOM     11  C   UNL     1       2.149   4.009  18.628  0.00  0.00    +0.000 A 
ATOM     12  C   UNL     1       2.640   3.371  17.495  0.00  0.00    +0.000 A 
ATOM     13  C   UNL     1       3.729   3.941  16.852  0.00  0.00    +0.000 A 
ATOM     14  C   UNL     1       4.319   5.114  17.356  0.00  0.00    +0.000 A 
ATOM     15  C   UNL     1       3.772   5.788  18.456  0.00  0.00    +0.000 A 
ATOM     16  C   UNL     1       2.639   5.261  19.051  0.00  0.00    +0.000 A 
ENDBRANCH   6   7
BRANCH   1  18
ATOM     17  C   UNL     1      -0.363   9.691  23.186  0.00  0.00    +0.000 C 
ATOM     18  O   UNL     1      -0.173   8.561  22.325  0.00  0.00    +0.000 OA
ENDBRANCH   1  18
BRANCH   3  19
ATOM     19  O   UNL     1      -0.589  11.340  18.534  0.00  0.00    +0.000 OA
ATOM     20  C   UNL     1      -1.730  10.881  17.814  0.00  0.00    +0.000 C 
ENDBRANCH   3  19
BRANCH   4  21
ATOM     21  O   UNL     1       1.923  10.443  17.595  0.00  0.00    +0.000 OA
ATOM     22  C   UNL     1       2.582  11.680  17.816  0.00  0.00    +0.000 C 
ENDBRANCH   4  21
TORSDOF 4
ENDMDL
MODEL 6
REMARK VINA RESULT:      -6.9      4.420      7.911
REMARK  Name = 
REMARK  7 active torsions:
REMARK  status: ('A' for Active; 'I' for Inactive)
REMARK    1  A    between atoms: C_1  and  O_2
REMARK    2  A    between atoms: O_2  and  C_3
REMARK    3  A    between atoms: C_5  and  O_6
REMARK    4  A    between atoms: O_6  and  C_7
REMARK    5  A    between atoms: C_8  and  O_9
REMARK    6  A    between atoms: O_9  and  C_10
REMARK    7  A    between atoms: C_12  and  C_13
REMARK                            x       y       z     vdW  Elec       q    Type
REMARK                         _______ _______ _______ _____ _____    ______ ____
ROOT
ATOM      1  C   UNL     1      -2.519  12.111  19.345  0.00  0.00    +0.000 A 
ATOM      2  C   UNL     1      -3.785  11.987  18.782  0.00  0.00    +0.000 A 
ATOM      3  C   UNL     1      -4.024  11.060  17.779  0.00  0.00    +0.000 A 
ATOM      4  C   UNL     1      -2.958  10.304  17.273  0.00  0.00    +0.000 A 
ATOM      5  C   UNL     1      -1.731  10.297  17.964  0.00  0.00    +0.000 A 
ATOM      6  C   UNL     1      -1.513  11.149  19.059  0.00  0.00    +0.000 A 
ENDROOT
BRANCH   6   7
ATOM      7  C   UNL     1      -0.496  10.869  20.116  0.00  0.00    +0.000 C 
ATOM      8  C   UNL     1       0.502   9.965  20.250  0.00  0.00    +0.000 C 
ATOM      9  C   UNL     1       0.707   9.422  21.601  0.00  0.00    +0.000 C 
ATOM     10  C   UNL     1       1.278   8.207  21.530  0.00  0.00    +0.000 C 
ATOM     11  C   UNL     1       1.659   7.990  20.144  0.00  0.00    +0.000 A 
ATOM     12  C   UNL     1       2.406   6.936  19.629  0.00  0.00    +0.000 A 
ATOM     13  C   UNL     1       2.889   7.058  18.334  0.00  0.00    +0.000 A 
ATOM     14  C   UNL     1       2.641   8.225  17.588  0.00  0.00    +0.000 A 
ATOM     15  C   UNL     1       1.827   9.249  18.091  0.00  0.00    +0.000 A 
ATOM     16  C   UNL     1       1.282   9.094  19.354  0.00  0.00    +0.000 A 
ENDBRANCH   6   7
BRANCH   1  18
ATOM     17  C   UNL     1      -3.350  13.421  21.106  0.00  0.00    +0.000 C 
ATOM     18  O   UNL     1      -2.244  13.114  20.248  0.00  0.00    +0.000 OA
ENDBRANCH   1  18
BRANCH   3  19
ATOM     19  O   UNL     1      -5.324  11.028  17.345  0.00  0.00    +0.000 OA
ATOM     20  C   UNL     1      -6.301  10.909  18.377  0.00  0.00    +0.000 C 
ENDBRANCH   3  19
BRANCH   4  21
ATOM     21  O   UNL     1      -3.215   9.580  16.141  0.00  0.00    +0.000 OA
ATOM     22  C   UNL     1      -3.003  10.210  14.888  0.00  0.00    +0.000 C 
ENDBRANCH   4  21
TORSDOF 4
ENDMDL
MODEL 7
REMARK VINA RESULT:      -6.8      2.883      5.965
REMARK  Name = 
REMARK  7 active torsions:
REMARK  status: ('A' for Active; 'I' for Inactive)
REMARK    1  A    between atoms: C_1  and  O_2
REMARK    2  A    between atoms: O_2  and  C_3
REMARK    3  A    between atoms: C_5  and  O_6
REMARK    4  A    between atoms: O_6  and  C_7
REMARK    5  A    between atoms: C_8  and  O_9
REMARK    6  A    between atoms: O_9  and  C_10
REMARK    7  A    between atoms: C_12  and  C_13
REMARK                            x       y       z     vdW  Elec       q    Type
REMARK                         _______ _______ _______ _____ _____    ______ ____
ROOT
ATOM      1  C   UNL     1       5.774   4.297  17.635  0.00  0.00    +0.000 A 
ATOM      2  C   UNL     1       6.693   5.337  17.540  0.00  0.00    +0.000 A 
ATOM      3  C   UNL     1       7.100   5.809  16.301  0.00  0.00    +0.000 A 
ATOM      4  C   UNL     1       6.643   5.173  15.139  0.00  0.00    +0.000 A 
ATOM      5  C   UNL     1       5.580   4.254  15.230  0.00  0.00    +0.000 A 
ATOM      6  C   UNL     1       5.077   3.853  16.479  0.00  0.00    +0.000 A 
ENDROOT
BRANCH   6   7
ATOM      7  C   UNL     1       3.696   3.313  16.662  0.00  0.00    +0.000 C 
ATOM      8  C   UNL     1       2.717   3.514  17.574  0.00  0.00    +0.000 C 
ATOM      9  C   UNL     1       1.935   2.329  17.958  0.00  0.00    +0.000 C 
ATOM     10  C   UNL     1       1.422   2.492  19.189  0.00  0.00    +0.000 C 
ATOM     11  C   UNL     1       1.672   3.870  19.582  0.00  0.00    +0.000 A 
ATOM     12  C   UNL     1       1.195   4.526  20.712  0.00  0.00    +0.000 A 
ATOM     13  C   UNL     1       1.321   5.906  20.759  0.00  0.00    +0.000 A 
ATOM     14  C   UNL     1       1.895   6.607  19.683  0.00  0.00    +0.000 A 
ATOM     15  C   UNL     1       2.437   5.930  18.582  0.00  0.00    +0.000 A 
ATOM     16  C   UNL     1       2.380   4.547  18.569  0.00  0.00    +0.000 A 
ENDBRANCH   6   7
BRANCH   1  18
ATOM     17  C   UNL     1       5.516   4.680  19.936  0.00  0.00    +0.000 C 
ATOM     18  O   UNL     1       5.463   3.740  18.856  0.00  0.00    +0.000 OA
ENDBRANCH   1  18
BRANCH   3  19
ATOM     19  O   UNL     1       7.983   6.856  16.364  0.00  0.00    +0.000 OA
ATOM     20  C   UNL     1       7.791   7.740  17.466  0.00  0.00    +0.000 C 
ENDBRANCH   3  19
BRANCH   4  21
ATOM     21  O   UNL     1       7.255   5.538  13.970  0.00  0.00    +0.000 OA
ATOM     22  C   UNL     1       7.226   4.619  12.891  0.00  0.00    +0.000 C 
ENDBRANCH   4  21
TORSDOF 4
ENDMDL
MODEL 8
REMARK VINA RESULT:      -6.8      4.199      5.886
REMARK  Name = 
REMARK  7 active torsions:
REMARK  status: ('A' for Active; 'I' for Inactive)
REMARK    1  A    between atoms: C_1  and  O_2
REMARK    2  A    between atoms: O_2  and  C_3
REMARK    3  A    between atoms: C_5  and  O_6
REMARK    4  A    between atoms: O_6  and  C_7
REMARK    5  A    between atoms: C_8  and  O_9
REMARK    6  A    between atoms: O_9  and  C_10
REMARK    7  A    between atoms: C_12  and  C_13
REMARK                            x       y       z     vdW  Elec       q    Type
REMARK                         _______ _______ _______ _____ _____    ______ ____
ROOT
ATOM      1  C   UNL     1       2.665   2.945  18.513  0.00  0.00    +0.000 A 
ATOM      2  C   UNL     1       2.252   2.975  19.841  0.00  0.00    +0.000 A 
ATOM      3  C   UNL     1       3.116   2.596  20.858  0.00  0.00    +0.000 A 
ATOM      4  C   UNL     1       4.385   2.099  20.532  0.00  0.00    +0.000 A 
ATOM      5  C   UNL     1       4.863   2.243  19.216  0.00  0.00    +0.000 A 
ATOM      6  C   UNL     1       4.034   2.737  18.196  0.00  0.00    +0.000 A 
ENDROOT
BRANCH   6   7
ATOM      7  C   UNL     1       4.567   3.376  16.956  0.00  0.00    +0.000 C 
ATOM      8  C   UNL     1       5.348   4.453  16.709  0.00  0.00    +0.000 C 
ATOM      9  C   UNL     1       4.994   5.254  15.527  0.00  0.00    +0.000 C 
ATOM     10  C   UNL     1       5.421   6.519  15.679  0.00  0.00    +0.000 C 
ATOM     11  C   UNL     1       6.252   6.553  16.873  0.00  0.00    +0.000 A 
ATOM     12  C   UNL     1       7.019   7.615  17.338  0.00  0.00    +0.000 A 
ATOM     13  C   UNL     1       7.946   7.355  18.336  0.00  0.00    +0.000 A 
ATOM     14  C   UNL     1       8.107   6.050  18.836  0.00  0.00    +0.000 A 
ATOM     15  C   UNL     1       7.279   5.002  18.411  0.00  0.00    +0.000 A 
ATOM     16  C   UNL     1       6.302   5.277  17.470  0.00  0.00    +0.000 A 
ENDBRANCH   6   7
BRANCH   1  18
ATOM     17  C   UNL     1       1.263   4.535  17.506  0.00  0.00    +0.000 C 
ATOM     18  O   UNL     1       1.775   3.197  17.493  0.00  0.00    +0.000 OA
ENDBRANCH   1  18
BRANCH   3  19
ATOM     19  O   UNL     1       2.582   2.709  22.116  0.00  0.00    +0.000 OA
ATOM     20  C   UNL     1       1.164   2.575  22.182  0.00  0.00    +0.000 C 
ENDBRANCH   3  19
BRANCH   4  21
ATOM     21  O   UNL     1       5.093   1.534  21.558  0.00  0.00    +0.000 OA
ATOM     22  C   UNL     1       5.680   0.262  21.339  0.00  0.00    +0.000 C 
ENDBRANCH   4  21
TORSDOF 4
ENDMDL
MODEL 9
REMARK VINA RESULT:      -6.7      2.894      6.689
REMARK  Name = 
REMARK  7 active torsions:
REMARK  status: ('A' for Active; 'I' for Inactive)
REMARK    1  A    between atoms: C_1  and  O_2
REMARK    2  A    between atoms: O_2  and  C_3
REMARK    3  A    between atoms: C_5  and  O_6
REMARK    4  A    between atoms: O_6  and  C_7
REMARK    5  A    between atoms: C_8  and  O_9
REMARK    6  A    between atoms: O_9  and  C_10
REMARK    7  A    between atoms: C_12  and  C_13
REMARK                            x       y       z     vdW  Elec       q    Type
REMARK                         _______ _______ _______ _____ _____    ______ ____
ROOT
ATOM      1  C   UNL     1       0.744   9.695  19.015  0.00  0.00    +0.000 A 
ATOM      2  C   UNL     1       0.590  10.861  19.758  0.00  0.00    +0.000 A 
ATOM      3  C   UNL     1       0.829  10.865  21.124  0.00  0.00    +0.000 A 
ATOM      4  C   UNL     1       1.146   9.663  21.770  0.00  0.00    +0.000 A 
ATOM      5  C   UNL     1       1.480   8.534  20.998  0.00  0.00    +0.000 A 
ATOM      6  C   UNL     1       1.355   8.553  19.599  0.00  0.00    +0.000 A 
ENDROOT
BRANCH   6   7
ATOM      7  C   UNL     1       2.126   7.640  18.703  0.00  0.00    +0.000 C 
ATOM      8  C   UNL     1       2.570   6.366  18.808  0.00  0.00    +0.000 C 
ATOM      9  C   UNL     1       3.895   6.091  18.232  0.00  0.00    +0.000 C 
ATOM     10  C   UNL     1       4.457   5.036  18.846  0.00  0.00    +0.000 C 
ATOM     11  C   UNL     1       3.443   4.448  19.707  0.00  0.00    +0.000 A 
ATOM     12  C   UNL     1       3.529   3.258  20.422  0.00  0.00    +0.000 A 
ATOM     13  C   UNL     1       2.360   2.740  20.958  0.00  0.00    +0.000 A 
ATOM     14  C   UNL     1       1.132   3.397  20.759  0.00  0.00    +0.000 A 
ATOM     15  C   UNL     1       1.068   4.632  20.098  0.00  0.00    +0.000 A 
ATOM     16  C   UNL     1       2.246   5.187  19.629  0.00  0.00    +0.000 A 
ENDBRANCH   6   7
BRANCH   1  18
ATOM     17  C   UNL     1      -1.010   9.896  17.469  0.00  0.00    +0.000 C 
ATOM     18  O   UNL     1       0.386   9.653  17.686  0.00  0.00    +0.000 OA
ENDBRANCH   1  18
BRANCH   3  19
ATOM     19  O   UNL     1       0.669  12.092  21.716  0.00  0.00    +0.000 OA
ATOM     20  C   UNL     1      -0.646  12.635  21.628  0.00  0.00    +0.000 C 
ENDBRANCH   3  19
BRANCH   4  21
ATOM     21  O   UNL     1       1.144   9.695  23.138  0.00  0.00    +0.000 OA
ATOM     22  C   UNL     1      -0.088   9.476  23.806  0.00  0.00    +0.000 C 
ENDBRANCH   4  21
TORSDOF 4
ENDMDL
