MODEL 1
REMARK VINA RESULT:      -8.5      0.000      0.000
REMARK  Name = 
REMARK  10 active torsions:
REMARK  status: ('A' for Active; 'I' for Inactive)
REMARK    1  A    between atoms: C_1  and  C_2
REMARK    2  A    between atoms: C_5  and  O_6
REMARK    3  A    between atoms: O_6  and  C_7
REMARK    4  A    between atoms: C_7  and  C_8
REMARK    5  A    between atoms: N_10  and  C_11
REMARK    6  A    between atoms: C_15  and  C_16
REMARK    7  A    between atoms: C_23  and  C_24
REMARK    8  A    between atoms: C_24  and  C_25
REMARK    9  A    between atoms: C_24  and  C_26
REMARK   10  A    between atoms: C_24  and  C_27
REMARK                            x       y       z     vdW  Elec       q    Type
REMARK                         _______ _______ _______ _____ _____    ______ ____
ROOT
ATOM      1  C   UNL     1       1.769   8.625  19.163  0.00  0.00    +0.000 C 
ATOM      2  O   UNL     1       1.591   8.036  20.228  0.00  0.00    +0.000 OA
ATOM      3  N   UNL     1       1.258   9.855  18.792  0.00  0.00    +0.000 N 
ATOM      4  H   UNL     1       1.391  10.174  17.829  0.00  0.00    +0.000 HD
ENDROOT
BRANCH   3   5
ATOM      5  C   UNL     1       0.380  10.632  19.550  0.00  0.00    +0.000 A 
ATOM      6  S   UNL     1       0.789  11.067  21.137  0.00  0.00    +0.000 S 
ATOM      7  C   UNL     1      -0.704  11.791  21.412  0.00  0.00    +0.000 A 
ATOM      8  C   UNL     1      -1.508  11.812  20.287  0.00  0.00    +0.000 A 
ATOM      9  C   UNL     1      -0.855  11.152  19.161  0.00  0.00    +0.000 A 
ATOM     10  C   UNL     1      -2.898  12.389  20.376  0.00  0.00    +0.000 C 
ATOM     11  C   UNL     1      -3.045  13.334  21.584  0.00  0.00    +0.000 C 
ATOM     12  C   UNL     1      -2.521  12.687  22.868  0.00  0.00    +0.000 C 
ATOM     13  C   UNL     1      -1.032  12.350  22.760  0.00  0.00    +0.000 C 
BRANCH   9  14
ATOM     14  C   UNL     1      -1.374  10.942  17.807  0.00  0.00    +0.000 C 
ATOM     15  N   UNL     1      -1.679  12.062  17.092  0.00  0.00    +0.000 N 
ATOM     16  O   UNL     1      -1.473   9.831  17.292  0.00  0.00    +0.000 OA
ATOM     17  H   UNL     1      -1.245  12.945  17.321  0.00  0.00    +0.000 HD
ATOM     18  H   UNL     1      -1.934  11.921  16.122  0.00  0.00    +0.000 HD
ENDBRANCH   9  14
ENDBRANCH   3   5
BRANCH   1  19
ATOM     19  C   UNL     1       2.557   7.921  18.064  0.00  0.00    +0.000 C 
BRANCH  19  20
ATOM     20  O   UNL     1       3.237   6.747  18.498  0.00  0.00    +0.000 OA
BRANCH  20  25
ATOM     21  C   UNL     1       6.185   3.975  14.476  0.00  0.00    +0.000 C 
ATOM     22  C   UNL     1       5.380   4.726  15.491  0.00  0.00    +0.000 A 
ATOM     23  C   UNL     1       5.468   6.101  15.600  0.00  0.00    +0.000 A 
ATOM     24  C   UNL     1       4.738   6.760  16.585  0.00  0.00    +0.000 A 
ATOM     25  C   UNL     1       3.945   6.072  17.524  0.00  0.00    +0.000 A 
ATOM     26  C   UNL     1       3.819   4.666  17.429  0.00  0.00    +0.000 A 
ATOM     27  C   UNL     1       4.532   4.041  16.362  0.00  0.00    +0.000 A 
BRANCH  26  28
ATOM     28  C   UNL     1       2.942   3.744  18.312  0.00  0.00    +0.000 C 
ATOM     29  C   UNL     1       1.457   4.050  17.995  0.00  0.00    +0.000 C 
ATOM     30  C   UNL     1       3.247   2.233  18.027  0.00  0.00    +0.000 C 
ATOM     31  C   UNL     1       3.117   3.871  19.844  0.00  0.00    +0.000 C 
ENDBRANCH  26  28
ENDBRANCH  20  25
ENDBRANCH  19  20
ENDBRANCH   1  19
TORSDOF 6
ENDMDL
MODEL 2
REMARK VINA RESULT:      -8.1      1.634      2.238
REMARK  Name = 
REMARK  10 active torsions:
REMARK  status: ('A' for Active; 'I' for Inactive)
REMARK    1  A    between atoms: C_1  and  C_2
REMARK    2  A    between atoms: C_5  and  O_6
REMARK    3  A    between atoms: O_6  and  C_7
REMARK    4  A    between atoms: C_7  and  C_8
REMARK    5  A    between atoms: N_10  and  C_11
REMARK    6  A    between atoms: C_15  and  C_16
REMARK    7  A    between atoms: C_23  and  C_24
REMARK    8  A    between atoms: C_24  and  C_25
REMARK    9  A    between atoms: C_24  and  C_26
REMARK   10  A    between atoms: C_24  and  C_27
REMARK                            x       y       z     vdW  Elec       q    Type
REMARK                         _______ _______ _______ _____ _____    ______ ____
ROOT
ATOM      1  C   UNL     1       1.716   8.795  18.592  0.00  0.00    +0.000 C 
ATOM      2  O   UNL     1       1.457   8.288  19.682  0.00  0.00    +0.000 OA
ATOM      3  N   UNL     1       1.022   9.806  17.953  0.00  0.00    +0.000 N 
ATOM      4  H   UNL     1       1.280  10.052  16.995  0.00  0.00    +0.000 HD
ENDROOT
BRANCH   3   5
ATOM      5  C   UNL     1      -0.157  10.397  18.411  0.00  0.00    +0.000 A 
ATOM      6  S   UNL     1      -1.636  10.016  17.674  0.00  0.00    +0.000 S 
ATOM      7  C   UNL     1      -2.479  11.145  18.593  0.00  0.00    +0.000 A 
ATOM      8  C   UNL     1      -1.689  11.764  19.544  0.00  0.00    +0.000 A 
ATOM      9  C   UNL     1      -0.308  11.298  19.466  0.00  0.00    +0.000 A 
ATOM     10  C   UNL     1      -2.284  12.835  20.424  0.00  0.00    +0.000 C 
ATOM     11  C   UNL     1      -3.820  12.735  20.481  0.00  0.00    +0.000 C 
ATOM     12  C   UNL     1      -4.427  12.627  19.080  0.00  0.00    +0.000 C 
ATOM     13  C   UNL     1      -3.938  11.372  18.352  0.00  0.00    +0.000 C 
BRANCH   9  14
ATOM     14  C   UNL     1       0.838  11.718  20.274  0.00  0.00    +0.000 C 
ATOM     15  N   UNL     1       1.571  12.763  19.794  0.00  0.00    +0.000 N 
ATOM     16  O   UNL     1       1.108  11.222  21.366  0.00  0.00    +0.000 OA
ATOM     17  H   UNL     1       1.155  13.420  19.149  0.00  0.00    +0.000 HD
ATOM     18  H   UNL     1       2.296  13.123  20.403  0.00  0.00    +0.000 HD
ENDBRANCH   9  14
ENDBRANCH   3   5
BRANCH   1  19
ATOM     19  C   UNL     1       2.867   8.217  17.774  0.00  0.00    +0.000 C 
BRANCH  19  20
ATOM     20  O   UNL     1       3.354   6.970  18.259  0.00  0.00    +0.000 OA
BRANCH  20  25
ATOM     21  C   UNL     1       6.283   3.839  14.495  0.00  0.00    +0.000 C 
ATOM     22  C   UNL     1       5.485   4.683  15.440  0.00  0.00    +0.000 A 
ATOM     23  C   UNL     1       5.615   6.059  15.457  0.00  0.00    +0.000 A 
ATOM     24  C   UNL     1       4.889   6.806  16.380  0.00  0.00    +0.000 A 
ATOM     25  C   UNL     1       4.058   6.209  17.348  0.00  0.00    +0.000 A 
ATOM     26  C   UNL     1       3.888   4.804  17.346  0.00  0.00    +0.000 A 
ATOM     27  C   UNL     1       4.599   4.086  16.338  0.00  0.00    +0.000 A 
BRANCH  26  28
ATOM     28  C   UNL     1       2.966   3.972  18.272  0.00  0.00    +0.000 C 
ATOM     29  C   UNL     1       1.498   4.253  17.863  0.00  0.00    +0.000 C 
ATOM     30  C   UNL     1       3.270   2.440  18.143  0.00  0.00    +0.000 C 
ATOM     31  C   UNL     1       3.076   4.241  19.791  0.00  0.00    +0.000 C 
ENDBRANCH  26  28
ENDBRANCH  20  25
ENDBRANCH  19  20
ENDBRANCH   1  19
TORSDOF 6
ENDMDL
MODEL 3
REMARK VINA RESULT:      -8.1      1.711      2.514
REMARK  Name = 
REMARK  10 active torsions:
REMARK  status: ('A' for Active; 'I' for Inactive)
REMARK    1  A    between atoms: C_1  and  C_2
REMARK    2  A    between atoms: C_5  and  O_6
REMARK    3  A    between atoms: O_6  and  C_7
REMARK    4  A    between atoms: C_7  and  C_8
REMARK    5  A    between atoms: N_10  and  C_11
REMARK    6  A    between atoms: C_15  and  C_16
REMARK    7  A    between atoms: C_23  and  C_24
REMARK    8  A    between atoms: C_24  and  C_25
REMARK    9  A    between atoms: C_24  and  C_26
REMARK   10  A    between atoms: C_24  and  C_27
REMARK                            x       y       z     vdW  Elec       q    Type
REMARK                         _______ _______ _______ _____ _____    ______ ____
ROOT
ATOM      1  C   UNL     1       1.627   8.831  18.573  0.00  0.00    +0.000 C 
ATOM      2  O   UNL     1       1.380   8.416  19.704  0.00  0.00    +0.000 OA
ATOM      3  N   UNL     1       0.885   9.732  17.832  0.00  0.00    +0.000 N 
ATOM      4  H   UNL     1       1.144   9.900  16.857  0.00  0.00    +0.000 HD
ENDROOT
BRANCH   3   5
ATOM      5  C   UNL     1      -0.334  10.292  18.218  0.00  0.00    +0.000 A 
ATOM      6  S   UNL     1      -1.764   9.832  17.430  0.00  0.00    +0.000 S 
ATOM      7  C   UNL     1      -2.688  10.958  18.272  0.00  0.00    +0.000 A 
ATOM      8  C   UNL     1      -1.965  11.636  19.235  0.00  0.00    +0.000 A 
ATOM      9  C   UNL     1      -0.565  11.221  19.234  0.00  0.00    +0.000 A 
ATOM     10  C   UNL     1      -2.637  12.712  20.051  0.00  0.00    +0.000 C 
ATOM     11  C   UNL     1      -4.169  12.556  20.044  0.00  0.00    +0.000 C 
ATOM     12  C   UNL     1      -4.708  12.379  18.622  0.00  0.00    +0.000 C 
ATOM     13  C   UNL     1      -4.141  11.121  17.960  0.00  0.00    +0.000 C 
BRANCH   9  14
ATOM     14  C   UNL     1       0.528  11.711  20.076  0.00  0.00    +0.000 C 
ATOM     15  N   UNL     1       0.460  11.400  21.402  0.00  0.00    +0.000 N 
ATOM     16  O   UNL     1       1.502  12.312  19.629  0.00  0.00    +0.000 OA
ATOM     17  H   UNL     1      -0.080  10.603  21.709  0.00  0.00    +0.000 HD
ATOM     18  H   UNL     1       1.267  11.644  21.963  0.00  0.00    +0.000 HD
ENDBRANCH   9  14
ENDBRANCH   3   5
BRANCH   1  19
ATOM     19  C   UNL     1       2.823   8.248  17.828  0.00  0.00    +0.000 C 
BRANCH  19  20
ATOM     20  O   UNL     1       3.212   6.954  18.279  0.00  0.00    +0.000 OA
BRANCH  20  25
ATOM     21  C   UNL     1       6.307   3.893  14.592  0.00  0.00    +0.000 C 
ATOM     22  C   UNL     1       5.466   4.717  15.515  0.00  0.00    +0.000 A 
ATOM     23  C   UNL     1       5.561   6.096  15.533  0.00  0.00    +0.000 A 
ATOM     24  C   UNL     1       4.795   6.826  16.437  0.00  0.00    +0.000 A 
ATOM     25  C   UNL     1       3.956   6.210  17.386  0.00  0.00    +0.000 A 
ATOM     26  C   UNL     1       3.822   4.801  17.383  0.00  0.00    +0.000 A 
ATOM     27  C   UNL     1       4.575   4.099  16.394  0.00  0.00    +0.000 A 
BRANCH  26  28
ATOM     28  C   UNL     1       2.899   3.947  18.288  0.00  0.00    +0.000 C 
ATOM     29  C   UNL     1       3.230   2.455  18.037  0.00  0.00    +0.000 C 
ATOM     30  C   UNL     1       3.117   4.293  19.801  0.00  0.00    +0.000 C 
ATOM     31  C   UNL     1       1.374   4.116  18.089  0.00  0.00    +0.000 C 
ENDBRANCH  26  28
ENDBRANCH  20  25
ENDBRANCH  19  20
ENDBRANCH   1  19
TORSDOF 6
ENDMDL
MODEL 4
REMARK VINA RESULT:      -8.1      1.017      1.077
REMARK  Name = 
REMARK  10 active torsions:
REMARK  status: ('A' for Active; 'I' for Inactive)
REMARK    1  A    between atoms: C_1  and  C_2
REMARK    2  A    between atoms: C_5  and  O_6
REMARK    3  A    between atoms: O_6  and  C_7
REMARK    4  A    between atoms: C_7  and  C_8
REMARK    5  A    between atoms: N_10  and  C_11
REMARK    6  A    between atoms: C_15  and  C_16
REMARK    7  A    between atoms: C_23  and  C_24
REMARK    8  A    between atoms: C_24  and  C_25
REMARK    9  A    between atoms: C_24  and  C_26
REMARK   10  A    between atoms: C_24  and  C_27
REMARK                            x       y       z     vdW  Elec       q    Type
REMARK                         _______ _______ _______ _____ _____    ______ ____
ROOT
ATOM      1  C   UNL     1       1.551   9.507  18.209  0.00  0.00    +0.000 C 
ATOM      2  O   UNL     1       2.227  10.533  18.142  0.00  0.00    +0.000 OA
ATOM      3  N   UNL     1       0.372   9.327  18.907  0.00  0.00    +0.000 N 
ATOM      4  H   UNL     1      -0.025   8.386  18.971  0.00  0.00    +0.000 HD
ENDROOT
BRANCH   3   5
ATOM      5  C   UNL     1      -0.239  10.276  19.729  0.00  0.00    +0.000 A 
ATOM      6  S   UNL     1       0.092  10.293  21.392  0.00  0.00    +0.000 S 
ATOM      7  C   UNL     1      -1.040  11.501  21.689  0.00  0.00    +0.000 A 
ATOM      8  C   UNL     1      -1.622  11.990  20.534  0.00  0.00    +0.000 A 
ATOM      9  C   UNL     1      -1.125  11.288  19.355  0.00  0.00    +0.000 A 
ATOM     10  C   UNL     1      -2.691  13.050  20.630  0.00  0.00    +0.000 C 
ATOM     11  C   UNL     1      -2.627  13.802  21.973  0.00  0.00    +0.000 C 
ATOM     12  C   UNL     1      -2.559  12.831  23.155  0.00  0.00    +0.000 C 
ATOM     13  C   UNL     1      -1.306  11.954  23.090  0.00  0.00    +0.000 C 
BRANCH   9  14
ATOM     14  C   UNL     1      -1.502  11.486  17.954  0.00  0.00    +0.000 C 
ATOM     15  N   UNL     1      -1.178  12.689  17.401  0.00  0.00    +0.000 N 
ATOM     16  O   UNL     1      -2.021  10.607  17.269  0.00  0.00    +0.000 OA
ATOM     17  H   UNL     1      -0.428  13.242  17.792  0.00  0.00    +0.000 HD
ATOM     18  H   UNL     1      -1.341  12.785  16.406  0.00  0.00    +0.000 HD
ENDBRANCH   9  14
ENDBRANCH   3   5
BRANCH   1  19
ATOM     19  C   UNL     1       2.078   8.243  17.539  0.00  0.00    +0.000 C 
BRANCH  19  20
ATOM     20  O   UNL     1       3.076   7.560  18.291  0.00  0.00    +0.000 OA
BRANCH  20  25
ATOM     21  C   UNL     1       6.169   3.734  15.402  0.00  0.00    +0.000 C 
ATOM     22  C   UNL     1       5.331   4.751  16.112  0.00  0.00    +0.000 A 
ATOM     23  C   UNL     1       5.482   6.103  15.865  0.00  0.00    +0.000 A 
ATOM     24  C   UNL     1       4.715   7.021  16.578  0.00  0.00    +0.000 A 
ATOM     25  C   UNL     1       3.820   6.631  17.592  0.00  0.00    +0.000 A 
ATOM     26  C   UNL     1       3.627   5.254  17.857  0.00  0.00    +0.000 A 
ATOM     27  C   UNL     1       4.385   4.347  17.056  0.00  0.00    +0.000 A 
BRANCH  26  28
ATOM     28  C   UNL     1       2.640   4.625  18.872  0.00  0.00    +0.000 C 
ATOM     29  C   UNL     1       1.372   4.188  18.097  0.00  0.00    +0.000 C 
ATOM     30  C   UNL     1       3.280   3.387  19.589  0.00  0.00    +0.000 C 
ATOM     31  C   UNL     1       2.173   5.525  20.041  0.00  0.00    +0.000 C 
ENDBRANCH  26  28
ENDBRANCH  20  25
ENDBRANCH  19  20
ENDBRANCH   1  19
TORSDOF 6
ENDMDL
MODEL 5
REMARK VINA RESULT:      -8.0      1.127      1.156
REMARK  Name = 
REMARK  10 active torsions:
REMARK  status: ('A' for Active; 'I' for Inactive)
REMARK    1  A    between atoms: C_1  and  C_2
REMARK    2  A    between atoms: C_5  and  O_6
REMARK    3  A    between atoms: O_6  and  C_7
REMARK    4  A    between atoms: C_7  and  C_8
REMARK    5  A    between atoms: N_10  and  C_11
REMARK    6  A    between atoms: C_15  and  C_16
REMARK    7  A    between atoms: C_23  and  C_24
REMARK    8  A    between atoms: C_24  and  C_25
REMARK    9  A    between atoms: C_24  and  C_26
REMARK   10  A    between atoms: C_24  and  C_27
REMARK                            x       y       z     vdW  Elec       q    Type
REMARK                         _______ _______ _______ _____ _____    ______ ____
ROOT
ATOM      1  C   UNL     1       1.542   9.059  18.927  0.00  0.00    +0.000 C 
ATOM      2  O   UNL     1       1.412   8.504  20.017  0.00  0.00    +0.000 OA
ATOM      3  N   UNL     1       0.927  10.222  18.502  0.00  0.00    +0.000 N 
ATOM      4  H   UNL     1       1.036  10.509  17.526  0.00  0.00    +0.000 HD
ENDROOT
BRANCH   3   5
ATOM      5  C   UNL     1      -0.018  10.952  19.224  0.00  0.00    +0.000 A 
ATOM      6  S   UNL     1       0.382  11.583  20.746  0.00  0.00    +0.000 S 
ATOM      7  C   UNL     1      -1.182  12.139  21.019  0.00  0.00    +0.000 A 
ATOM      8  C   UNL     1      -2.017  11.953  19.933  0.00  0.00    +0.000 A 
ATOM      9  C   UNL     1      -1.322  11.276  18.843  0.00  0.00    +0.000 A 
ATOM     10  C   UNL     1      -3.466  12.358  20.030  0.00  0.00    +0.000 C 
ATOM     11  C   UNL     1      -3.694  13.388  21.153  0.00  0.00    +0.000 C 
ATOM     12  C   UNL     1      -3.051  12.935  22.467  0.00  0.00    +0.000 C 
ATOM     13  C   UNL     1      -1.535  12.777  22.324  0.00  0.00    +0.000 C 
BRANCH   9  14
ATOM     14  C   UNL     1      -1.852  10.875  17.538  0.00  0.00    +0.000 C 
ATOM     15  N   UNL     1      -2.228  11.883  16.699  0.00  0.00    +0.000 N 
ATOM     16  O   UNL     1      -1.900   9.706  17.164  0.00  0.00    +0.000 OA
ATOM     17  H   UNL     1      -1.837  12.808  16.809  0.00  0.00    +0.000 HD
ATOM     18  H   UNL     1      -2.492  11.611  15.760  0.00  0.00    +0.000 HD
ENDBRANCH   9  14
ENDBRANCH   3   5
BRANCH   1  19
ATOM     19  C   UNL     1       2.394   8.378  17.860  0.00  0.00    +0.000 C 
BRANCH  19  20
ATOM     20  O   UNL     1       2.371   6.956  17.920  0.00  0.00    +0.000 OA
BRANCH  20  25
ATOM     21  C   UNL     1       7.455   4.407  17.473  0.00  0.00    +0.000 C 
ATOM     22  C   UNL     1       6.116   5.072  17.534  0.00  0.00    +0.000 A 
ATOM     23  C   UNL     1       5.917   6.335  17.009  0.00  0.00    +0.000 A 
ATOM     24  C   UNL     1       4.669   6.939  17.124  0.00  0.00    +0.000 A 
ATOM     25  C   UNL     1       3.598   6.334  17.810  0.00  0.00    +0.000 A 
ATOM     26  C   UNL     1       3.762   5.033  18.344  0.00  0.00    +0.000 A 
ATOM     27  C   UNL     1       5.038   4.427  18.143  0.00  0.00    +0.000 A 
BRANCH  26  28
ATOM     28  C   UNL     1       2.690   4.175  19.061  0.00  0.00    +0.000 C 
ATOM     29  C   UNL     1       1.628   3.762  18.013  0.00  0.00    +0.000 C 
ATOM     30  C   UNL     1       3.329   2.896  19.704  0.00  0.00    +0.000 C 
ATOM     31  C   UNL     1       1.936   4.839  20.238  0.00  0.00    +0.000 C 
ENDBRANCH  26  28
ENDBRANCH  20  25
ENDBRANCH  19  20
ENDBRANCH   1  19
TORSDOF 6
ENDMDL
MODEL 6
REMARK VINA RESULT:      -8.0      0.885      2.583
REMARK  Name = 
REMARK  10 active torsions:
REMARK  status: ('A' for Active; 'I' for Inactive)
REMARK    1  A    between atoms: C_1  and  C_2
REMARK    2  A    between atoms: C_5  and  O_6
REMARK    3  A    between atoms: O_6  and  C_7
REMARK    4  A    between atoms: C_7  and  C_8
REMARK    5  A    between atoms: N_10  and  C_11
REMARK    6  A    between atoms: C_15  and  C_16
REMARK    7  A    between atoms: C_23  and  C_24
REMARK    8  A    between atoms: C_24  and  C_25
REMARK    9  A    between atoms: C_24  and  C_26
REMARK   10  A    between atoms: C_24  and  C_27
REMARK                            x       y       z     vdW  Elec       q    Type
REMARK                         _______ _______ _______ _____ _____    ______ ____
ROOT
ATOM      1  C   UNL     1       1.662   9.004  18.678  0.00  0.00    +0.000 C 
ATOM      2  O   UNL     1       1.624   8.510  19.804  0.00  0.00    +0.000 OA
ATOM      3  N   UNL     1       1.084  10.189  18.265  0.00  0.00    +0.000 N 
ATOM      4  H   UNL     1       1.096  10.423  17.268  0.00  0.00    +0.000 HD
ENDROOT
BRANCH   3   5
ATOM      5  C   UNL     1       0.284  11.021  19.050  0.00  0.00    +0.000 A 
ATOM      6  S   UNL     1       0.923  11.735  20.449  0.00  0.00    +0.000 S 
ATOM      7  C   UNL     1      -0.560  12.395  20.889  0.00  0.00    +0.000 A 
ATOM      8  C   UNL     1      -1.547  12.180  19.946  0.00  0.00    +0.000 A 
ATOM      9  C   UNL     1      -1.044  11.389  18.827  0.00  0.00    +0.000 A 
ATOM     10  C   UNL     1      -2.949  12.671  20.209  0.00  0.00    +0.000 C 
ATOM     11  C   UNL     1      -2.969  13.789  21.268  0.00  0.00    +0.000 C 
ATOM     12  C   UNL     1      -2.169  13.396  22.513  0.00  0.00    +0.000 C 
ATOM     13  C   UNL     1      -0.697  13.144  22.177  0.00  0.00    +0.000 C 
BRANCH   9  14
ATOM     14  C   UNL     1      -1.770  10.927  17.643  0.00  0.00    +0.000 C 
ATOM     15  N   UNL     1      -2.133  11.883  16.740  0.00  0.00    +0.000 N 
ATOM     16  O   UNL     1      -1.993   9.741  17.412  0.00  0.00    +0.000 OA
ATOM     17  H   UNL     1      -1.632  12.760  16.700  0.00  0.00    +0.000 HD
ATOM     18  H   UNL     1      -2.538  11.553  15.872  0.00  0.00    +0.000 HD
ENDBRANCH   9  14
ENDBRANCH   3   5
BRANCH   1  19
ATOM     19  C   UNL     1       2.332   8.213  17.559  0.00  0.00    +0.000 C 
BRANCH  19  20
ATOM     20  O   UNL     1       3.461   7.455  17.979  0.00  0.00    +0.000 OA
BRANCH  20  25
ATOM     21  C   UNL     1       2.781   1.791  17.874  0.00  0.00    +0.000 C 
ATOM     22  C   UNL     1       2.967   3.274  17.958  0.00  0.00    +0.000 A 
ATOM     23  C   UNL     1       2.031   4.080  18.579  0.00  0.00    +0.000 A 
ATOM     24  C   UNL     1       2.216   5.460  18.597  0.00  0.00    +0.000 A 
ATOM     25  C   UNL     1       3.303   6.084  17.955  0.00  0.00    +0.000 A 
ATOM     26  C   UNL     1       4.289   5.287  17.326  0.00  0.00    +0.000 A 
ATOM     27  C   UNL     1       4.092   3.875  17.390  0.00  0.00    +0.000 A 
BRANCH  26  28
ATOM     28  C   UNL     1       5.587   5.776  16.636  0.00  0.00    +0.000 C 
ATOM     29  C   UNL     1       6.412   4.530  16.232  0.00  0.00    +0.000 C 
ATOM     30  C   UNL     1       5.262   6.635  15.367  0.00  0.00    +0.000 C 
ATOM     31  C   UNL     1       6.518   6.690  17.468  0.00  0.00    +0.000 C 
ENDBRANCH  26  28
ENDBRANCH  20  25
ENDBRANCH  19  20
ENDBRANCH   1  19
TORSDOF 6
ENDMDL
MODEL 7
REMARK VINA RESULT:      -7.9      2.616      8.916
REMARK  Name = 
REMARK  10 active torsions:
REMARK  status: ('A' for Active; 'I' for Inactive)
REMARK    1  A    between atoms: C_1  and  C_2
REMARK    2  A    between atoms: C_5  and  O_6
REMARK    3  A    between atoms: O_6  and  C_7
REMARK    4  A    between atoms: C_7  and  C_8
REMARK    5  A    between atoms: N_10  and  C_11
REMARK    6  A    between atoms: C_15  and  C_16
REMARK    7  A    between atoms: C_23  and  C_24
REMARK    8  A    between atoms: C_24  and  C_25
REMARK    9  A    between atoms: C_24  and  C_26
REMARK   10  A    between atoms: C_24  and  C_27
REMARK                            x       y       z     vdW  Elec       q    Type
REMARK                         _______ _______ _______ _____ _____    ______ ____
ROOT
ATOM      1  C   UNL     1       0.950   8.142  21.351  0.00  0.00    +0.000 C 
ATOM      2  O   UNL     1      -0.201   7.730  21.213  0.00  0.00    +0.000 OA
ATOM      3  N   UNL     1       2.108   7.568  20.861  0.00  0.00    +0.000 N 
ATOM      4  H   UNL     1       3.010   7.954  21.150  0.00  0.00    +0.000 HD
ENDROOT
BRANCH   3   5
ATOM      5  C   UNL     1       2.185   6.361  20.164  0.00  0.00    +0.000 A 
ATOM      6  S   UNL     1       1.716   4.916  20.920  0.00  0.00    +0.000 S 
ATOM      7  C   UNL     1       2.207   3.977  19.613  0.00  0.00    +0.000 A 
ATOM      8  C   UNL     1       2.641   4.732  18.539  0.00  0.00    +0.000 A 
ATOM      9  C   UNL     1       2.599   6.158  18.846  0.00  0.00    +0.000 A 
ATOM     10  C   UNL     1       3.156   4.040  17.302  0.00  0.00    +0.000 C 
ATOM     11  C   UNL     1       2.655   2.587  17.214  0.00  0.00    +0.000 C 
ATOM     12  C   UNL     1       2.883   1.835  18.528  0.00  0.00    +0.000 C 
ATOM     13  C   UNL     1       2.123   2.486  19.686  0.00  0.00    +0.000 C 
BRANCH   9  14
ATOM     14  C   UNL     1       2.994   7.282  17.995  0.00  0.00    +0.000 C 
ATOM     15  N   UNL     1       4.218   7.194  17.400  0.00  0.00    +0.000 N 
ATOM     16  O   UNL     1       2.255   8.234  17.755  0.00  0.00    +0.000 OA
ATOM     17  H   UNL     1       4.648   6.291  17.255  0.00  0.00    +0.000 HD
ATOM     18  H   UNL     1       4.445   7.917  16.728  0.00  0.00    +0.000 HD
ENDBRANCH   9  14
ENDBRANCH   3   5
BRANCH   1  19
ATOM     19  C   UNL     1       1.185   9.367  22.228  0.00  0.00    +0.000 C 
BRANCH  19  20
ATOM     20  O   UNL     1       1.052  10.607  21.540  0.00  0.00    +0.000 OA
BRANCH  20  25
ATOM     21  C   UNL     1      -4.025  13.163  22.023  0.00  0.00    +0.000 C 
ATOM     22  C   UNL     1      -2.718  12.443  21.909  0.00  0.00    +0.000 A 
ATOM     23  C   UNL     1      -2.107  11.886  23.016  0.00  0.00    +0.000 A 
ATOM     24  C   UNL     1      -0.870  11.263  22.878  0.00  0.00    +0.000 A 
ATOM     25  C   UNL     1      -0.178  11.223  21.652  0.00  0.00    +0.000 A 
ATOM     26  C   UNL     1      -0.783  11.768  20.495  0.00  0.00    +0.000 A 
ATOM     27  C   UNL     1      -2.081  12.336  20.671  0.00  0.00    +0.000 A 
BRANCH  26  28
ATOM     28  C   UNL     1      -0.222  11.755  19.051  0.00  0.00    +0.000 C 
ATOM     29  C   UNL     1      -0.413  10.330  18.476  0.00  0.00    +0.000 C 
ATOM     30  C   UNL     1      -0.965  12.798  18.147  0.00  0.00    +0.000 C 
ATOM     31  C   UNL     1       1.272  12.120  18.879  0.00  0.00    +0.000 C 
ENDBRANCH  26  28
ENDBRANCH  20  25
ENDBRANCH  19  20
ENDBRANCH   1  19
TORSDOF 6
ENDMDL
MODEL 8
REMARK VINA RESULT:      -7.9      1.277      1.479
REMARK  Name = 
REMARK  10 active torsions:
REMARK  status: ('A' for Active; 'I' for Inactive)
REMARK    1  A    between atoms: C_1  and  C_2
REMARK    2  A    between atoms: C_5  and  O_6
REMARK    3  A    between atoms: O_6  and  C_7
REMARK    4  A    between atoms: C_7  and  C_8
REMARK    5  A    between atoms: N_10  and  C_11
REMARK    6  A    between atoms: C_15  and  C_16
REMARK    7  A    between atoms: C_23  and  C_24
REMARK    8  A    between atoms: C_24  and  C_25
REMARK    9  A    between atoms: C_24  and  C_26
REMARK   10  A    between atoms: C_24  and  C_27
REMARK                            x       y       z     vdW  Elec       q    Type
REMARK                         _______ _______ _______ _____ _____    ______ ____
ROOT
ATOM      1  C   UNL     1       1.719   9.634  18.091  0.00  0.00    +0.000 C 
ATOM      2  O   UNL     1       2.273  10.729  18.012  0.00  0.00    +0.000 OA
ATOM      3  N   UNL     1       0.591   9.318  18.824  0.00  0.00    +0.000 N 
ATOM      4  H   UNL     1       0.305   8.338  18.893  0.00  0.00    +0.000 HD
ENDROOT
BRANCH   3   5
ATOM      5  C   UNL     1      -0.097  10.188  19.672  0.00  0.00    +0.000 A 
ATOM      6  S   UNL     1       0.250  10.202  21.332  0.00  0.00    +0.000 S 
ATOM      7  C   UNL     1      -0.987  11.292  21.666  0.00  0.00    +0.000 A 
ATOM      8  C   UNL     1      -1.626  11.747  20.528  0.00  0.00    +0.000 A 
ATOM      9  C   UNL     1      -1.078  11.119  19.329  0.00  0.00    +0.000 A 
ATOM     10  C   UNL     1      -2.789  12.698  20.656  0.00  0.00    +0.000 C 
ATOM     11  C   UNL     1      -2.780  13.425  22.015  0.00  0.00    +0.000 C 
ATOM     12  C   UNL     1      -2.607  12.442  23.175  0.00  0.00    +0.000 C 
ATOM     13  C   UNL     1      -1.278  11.688  23.079  0.00  0.00    +0.000 C 
BRANCH   9  14
ATOM     14  C   UNL     1      -1.489  11.309  17.937  0.00  0.00    +0.000 C 
ATOM     15  N   UNL     1      -1.267  12.543  17.399  0.00  0.00    +0.000 N 
ATOM     16  O   UNL     1      -1.947  10.404  17.243  0.00  0.00    +0.000 OA
ATOM     17  H   UNL     1      -0.558  13.146  17.790  0.00  0.00    +0.000 HD
ATOM     18  H   UNL     1      -1.451  12.642  16.408  0.00  0.00    +0.000 HD
ENDBRANCH   9  14
ENDBRANCH   3   5
BRANCH   1  19
ATOM     19  C   UNL     1       2.364   8.440  17.395  0.00  0.00    +0.000 C 
BRANCH  19  20
ATOM     20  O   UNL     1       2.593   7.324  18.250  0.00  0.00    +0.000 OA
BRANCH  20  25
ATOM     21  C   UNL     1       7.453   4.480  17.332  0.00  0.00    +0.000 C 
ATOM     22  C   UNL     1       6.172   5.232  17.516  0.00  0.00    +0.000 A 
ATOM     23  C   UNL     1       6.078   6.576  17.206  0.00  0.00    +0.000 A 
ATOM     24  C   UNL     1       4.883   7.251  17.433  0.00  0.00    +0.000 A 
ATOM     25  C   UNL     1       3.766   6.631  18.026  0.00  0.00    +0.000 A 
ATOM     26  C   UNL     1       3.822   5.252  18.339  0.00  0.00    +0.000 A 
ATOM     27  C   UNL     1       5.045   4.585  18.026  0.00  0.00    +0.000 A 
BRANCH  26  28
ATOM     28  C   UNL     1       2.684   4.378  18.921  0.00  0.00    +0.000 C 
ATOM     29  C   UNL     1       2.159   5.067  20.204  0.00  0.00    +0.000 C 
ATOM     30  C   UNL     1       1.515   4.213  17.889  0.00  0.00    +0.000 C 
ATOM     31  C   UNL     1       3.045   2.922  19.300  0.00  0.00    +0.000 C 
ENDBRANCH  26  28
ENDBRANCH  20  25
ENDBRANCH  19  20
ENDBRANCH   1  19
TORSDOF 6
ENDMDL
MODEL 9
REMARK VINA RESULT:      -7.9      1.317      2.996
REMARK  Name = 
REMARK  10 active torsions:
REMARK  status: ('A' for Active; 'I' for Inactive)
REMARK    1  A    between atoms: C_1  and  C_2
REMARK    2  A    between atoms: C_5  and  O_6
REMARK    3  A    between atoms: O_6  and  C_7
REMARK    4  A    between atoms: C_7  and  C_8
REMARK    5  A    between atoms: N_10  and  C_11
REMARK    6  A    between atoms: C_15  and  C_16
REMARK    7  A    between atoms: C_23  and  C_24
REMARK    8  A    between atoms: C_24  and  C_25
REMARK    9  A    between atoms: C_24  and  C_26
REMARK   10  A    between atoms: C_24  and  C_27
REMARK                            x       y       z     vdW  Elec       q    Type
REMARK                         _______ _______ _______ _____ _____    ______ ____
ROOT
ATOM      1  C   UNL     1       1.603   9.571  18.176  0.00  0.00    +0.000 C 
ATOM      2  O   UNL     1       2.240  10.610  18.012  0.00  0.00    +0.000 OA
ATOM      3  N   UNL     1       0.443   9.409  18.910  0.00  0.00    +0.000 N 
ATOM      4  H   UNL     1       0.082   8.464  19.059  0.00  0.00    +0.000 HD
ENDROOT
BRANCH   3   5
ATOM      5  C   UNL     1      -0.189  10.401  19.661  0.00  0.00    +0.000 A 
ATOM      6  S   UNL     1       0.313  10.707  21.252  0.00  0.00    +0.000 S 
ATOM      7  C   UNL     1      -0.921  11.819  21.516  0.00  0.00    +0.000 A 
ATOM      8  C   UNL     1      -1.679  12.062  20.385  0.00  0.00    +0.000 A 
ATOM      9  C   UNL     1      -1.227  11.245  19.263  0.00  0.00    +0.000 A 
ATOM     10  C   UNL     1      -2.854  13.004  20.464  0.00  0.00    +0.000 C 
ATOM     11  C   UNL     1      -2.740  13.954  21.672  0.00  0.00    +0.000 C 
ATOM     12  C   UNL     1      -2.427  13.188  22.960  0.00  0.00    +0.000 C 
ATOM     13  C   UNL     1      -1.090  12.449  22.862  0.00  0.00    +0.000 C 
BRANCH   9  14
ATOM     14  C   UNL     1      -1.774  11.186  17.906  0.00  0.00    +0.000 C 
ATOM     15  N   UNL     1      -1.655  12.317  17.152  0.00  0.00    +0.000 N 
ATOM     16  O   UNL     1      -2.256  10.166  17.421  0.00  0.00    +0.000 OA
ATOM     17  H   UNL     1      -0.937  12.995  17.365  0.00  0.00    +0.000 HD
ATOM     18  H   UNL     1      -1.934  12.242  16.181  0.00  0.00    +0.000 HD
ENDBRANCH   9  14
ENDBRANCH   3   5
BRANCH   1  19
ATOM     19  C   UNL     1       2.165   8.274  17.604  0.00  0.00    +0.000 C 
BRANCH  19  20
ATOM     20  O   UNL     1       3.251   7.733  18.350  0.00  0.00    +0.000 OA
BRANCH  20  25
ATOM     21  C   UNL     1       2.117   2.913  21.183  0.00  0.00    +0.000 C 
ATOM     22  C   UNL     1       2.434   4.201  20.488  0.00  0.00    +0.000 A 
ATOM     23  C   UNL     1       1.726   5.356  20.761  0.00  0.00    +0.000 A 
ATOM     24  C   UNL     1       2.020   6.523  20.062  0.00  0.00    +0.000 A 
ATOM     25  C   UNL     1       2.983   6.566  19.035  0.00  0.00    +0.000 A 
ATOM     26  C   UNL     1       3.738   5.406  18.742  0.00  0.00    +0.000 A 
ATOM     27  C   UNL     1       3.449   4.251  19.531  0.00  0.00    +0.000 A 
BRANCH  26  28
ATOM     28  C   UNL     1       4.885   5.271  17.710  0.00  0.00    +0.000 C 
ATOM     29  C   UNL     1       6.229   5.401  18.468  0.00  0.00    +0.000 C 
ATOM     30  C   UNL     1       4.822   3.890  16.972  0.00  0.00    +0.000 C 
ATOM     31  C   UNL     1       4.910   6.302  16.556  0.00  0.00    +0.000 C 
ENDBRANCH  26  28
ENDBRANCH  20  25
ENDBRANCH  19  20
ENDBRANCH   1  19
TORSDOF 6
ENDMDL
