MODEL 1
REMARK VINA RESULT:      -5.6      0.000      0.000
REMARK  Name = 
REMARK  15 active torsions:
REMARK  status: ('A' for Active; 'I' for Inactive)
REMARK    1  A    between atoms: C_1  and  C_2
REMARK    2  A    between atoms: C_2  and  C_3
REMARK    3  A    between atoms: C_2  and  C_17
REMARK    4  A    between atoms: C_3  and  P_4
REMARK    5  A    between atoms: P_4  and  O_6
REMARK    6  A    between atoms: P_4  and  C_7
REMARK    7  A    between atoms: C_7  and  O_8
REMARK    8  A    between atoms: O_8  and  C_9
REMARK    9  A    between atoms: C_9  and  C_10
REMARK   10  A    between atoms: C_10  and  C_11
REMARK   11  A    between atoms: C_11  and  O_12
REMARK   12  A    between atoms: O_12  and  P_13
REMARK   13  A    between atoms: P_13  and  O_15
REMARK   14  A    between atoms: P_13  and  O_16
REMARK   15  A    between atoms: C_17  and  O_19
REMARK                            x       y       z     vdW  Elec       q    Type
REMARK                         _______ _______ _______ _____ _____    ______ ____
ROOT
ATOM      1  C   UNL     1       2.195   5.124  18.157  0.00  0.00    +0.000 C 
ENDROOT
BRANCH   1   2
ATOM      2  P   UNL     1       3.775   5.671  17.414  0.00  0.00    +0.000 P 
ATOM      3  O   UNL     1       4.073   4.233  16.948  0.00  0.00    +0.000 OA
BRANCH   2   4
ATOM      4  O   UNL     1       4.500   5.757  18.904  0.00  0.00    +0.000 OA
ATOM      5  H   UNL     1       4.128   5.083  19.510  0.00  0.00    +0.000 HD
ENDBRANCH   2   4
BRANCH   2   6
ATOM      6  C   UNL     1       5.355   6.218  16.670  0.00  0.00    +0.000 C 
BRANCH   6   8
ATOM      7  C   UNL     1       7.457   7.327  17.585  0.00  0.00    +0.000 C 
ATOM      8  C   UNL     1       6.537   6.117  17.642  0.00  0.00    +0.000 C 
BRANCH   8   9
ATOM      9  C   UNL     1       7.340   4.871  17.337  0.00  0.00    +0.000 C 
ATOM     10  O   UNL     1       7.420   4.372  16.219  0.00  0.00    +0.000 OA
BRANCH   9  11
ATOM     11  O   UNL     1       8.002   4.381  18.402  0.00  0.00    +0.000 OA
ATOM     12  H   UNL     1       7.506   4.426  19.244  0.00  0.00    +0.000 HD
ENDBRANCH   9  11
ENDBRANCH   8   9
ENDBRANCH   6   8
ENDBRANCH   2   6
ENDBRANCH   1   2
BRANCH   1  13
ATOM     13  O   UNL     1       1.648   3.998  17.460  0.00  0.00    +0.000 OA
BRANCH  13  14
ATOM     14  C   UNL     1       1.030   3.107  18.388  0.00  0.00    +0.000 C 
BRANCH  14  15
ATOM     15  C   UNL     1       1.261   3.588  19.811  0.00  0.00    +0.000 C 
BRANCH  15  16
ATOM     16  C   UNL     1       1.940   2.523  20.658  0.00  0.00    +0.000 C 
BRANCH  16  17
ATOM     17  O   UNL     1       3.292   2.904  20.853  0.00  0.00    +0.000 OA
BRANCH  17  18
ATOM     18  P   UNL     1       4.394   2.076  20.036  0.00  0.00    +0.000 P 
ATOM     19  O   UNL     1       3.906   1.175  18.963  0.00  0.00    +0.000 OA
BRANCH  18  20
ATOM     20  O   UNL     1       5.346   3.269  19.568  0.00  0.00    +0.000 OA
ATOM     21  H   UNL     1       6.228   3.162  19.969  0.00  0.00    +0.000 HD
ENDBRANCH  18  20
BRANCH  18  22
ATOM     22  O   UNL     1       5.274   1.412  21.189  0.00  0.00    +0.000 OA
ATOM     23  H   UNL     1       6.136   1.858  21.266  0.00  0.00    +0.000 HD
ENDBRANCH  18  22
ENDBRANCH  17  18
ENDBRANCH  16  17
ENDBRANCH  15  16
ENDBRANCH  14  15
ENDBRANCH  13  14
ENDBRANCH   1  13
TORSDOF 14
ENDMDL
MODEL 2
REMARK VINA RESULT:      -5.5      1.922      6.282
REMARK  Name = 
REMARK  15 active torsions:
REMARK  status: ('A' for Active; 'I' for Inactive)
REMARK    1  A    between atoms: C_1  and  C_2
REMARK    2  A    between atoms: C_2  and  C_3
REMARK    3  A    between atoms: C_2  and  C_17
REMARK    4  A    between atoms: C_3  and  P_4
REMARK    5  A    between atoms: P_4  and  O_6
REMARK    6  A    between atoms: P_4  and  C_7
REMARK    7  A    between atoms: C_7  and  O_8
REMARK    8  A    between atoms: O_8  and  C_9
REMARK    9  A    between atoms: C_9  and  C_10
REMARK   10  A    between atoms: C_10  and  C_11
REMARK   11  A    between atoms: C_11  and  O_12
REMARK   12  A    between atoms: O_12  and  P_13
REMARK   13  A    between atoms: P_13  and  O_15
REMARK   14  A    between atoms: P_13  and  O_16
REMARK   15  A    between atoms: C_17  and  O_19
REMARK                            x       y       z     vdW  Elec       q    Type
REMARK                         _______ _______ _______ _____ _____    ______ ____
ROOT
ATOM      1  C   UNL     1       5.053   4.869  18.894  0.00  0.00    +0.000 C 
ENDROOT
BRANCH   1   2
ATOM      2  P   UNL     1       4.065   3.345  19.116  0.00  0.00    +0.000 P 
ATOM      3  O   UNL     1       5.181   2.727  19.978  0.00  0.00    +0.000 OA
BRANCH   2   4
ATOM      4  O   UNL     1       4.426   2.831  17.579  0.00  0.00    +0.000 OA
ATOM      5  H   UNL     1       4.260   3.543  16.928  0.00  0.00    +0.000 HD
ENDBRANCH   2   4
BRANCH   2   6
ATOM      6  C   UNL     1       3.076   1.822  19.338  0.00  0.00    +0.000 C 
BRANCH   6   8
ATOM      7  C   UNL     1       0.984   2.933  18.404  0.00  0.00    +0.000 C 
ATOM      8  C   UNL     1       1.581   2.106  19.532  0.00  0.00    +0.000 C 
BRANCH   8   9
ATOM      9  C   UNL     1       1.369   2.833  20.843  0.00  0.00    +0.000 C 
ATOM     10  O   UNL     1       1.771   2.415  21.924  0.00  0.00    +0.000 OA
BRANCH   9  11
ATOM     11  O   UNL     1       0.734   4.013  20.710  0.00  0.00    +0.000 OA
ATOM     12  H   UNL     1      -0.220   3.987  20.923  0.00  0.00    +0.000 HD
ENDBRANCH   9  11
ENDBRANCH   8   9
ENDBRANCH   6   8
ENDBRANCH   2   6
ENDBRANCH   1   2
BRANCH   1  13
ATOM     13  O   UNL     1       6.456   4.584  18.850  0.00  0.00    +0.000 OA
BRANCH  13  14
ATOM     14  C   UNL     1       7.184   5.633  19.488  0.00  0.00    +0.000 C 
BRANCH  14  15
ATOM     15  C   UNL     1       7.872   6.501  18.448  0.00  0.00    +0.000 C 
BRANCH  15  16
ATOM     16  C   UNL     1       7.027   6.646  17.192  0.00  0.00    +0.000 C 
BRANCH  16  17
ATOM     17  O   UNL     1       7.630   5.884  16.160  0.00  0.00    +0.000 OA
BRANCH  17  18
ATOM     18  P   UNL     1       6.638   5.088  15.184  0.00  0.00    +0.000 P 
ATOM     19  O   UNL     1       6.274   3.704  15.574  0.00  0.00    +0.000 OA
BRANCH  18  20
ATOM     20  O   UNL     1       5.433   6.132  15.103  0.00  0.00    +0.000 OA
ATOM     21  H   UNL     1       5.724   6.934  14.630  0.00  0.00    +0.000 HD
ENDBRANCH  18  20
BRANCH  18  22
ATOM     22  O   UNL     1       7.312   5.280  13.751  0.00  0.00    +0.000 OA
ATOM     23  H   UNL     1       6.931   6.048  13.290  0.00  0.00    +0.000 HD
ENDBRANCH  18  22
ENDBRANCH  17  18
ENDBRANCH  16  17
ENDBRANCH  15  16
ENDBRANCH  14  15
ENDBRANCH  13  14
ENDBRANCH   1  13
TORSDOF 14
ENDMDL
MODEL 3
REMARK VINA RESULT:      -5.5      1.733      2.500
REMARK  Name = 
REMARK  15 active torsions:
REMARK  status: ('A' for Active; 'I' for Inactive)
REMARK    1  A    between atoms: C_1  and  C_2
REMARK    2  A    between atoms: C_2  and  C_3
REMARK    3  A    between atoms: C_2  and  C_17
REMARK    4  A    between atoms: C_3  and  P_4
REMARK    5  A    between atoms: P_4  and  O_6
REMARK    6  A    between atoms: P_4  and  C_7
REMARK    7  A    between atoms: C_7  and  O_8
REMARK    8  A    between atoms: O_8  and  C_9
REMARK    9  A    between atoms: C_9  and  C_10
REMARK   10  A    between atoms: C_10  and  C_11
REMARK   11  A    between atoms: C_11  and  O_12
REMARK   12  A    between atoms: O_12  and  P_13
REMARK   13  A    between atoms: P_13  and  O_15
REMARK   14  A    between atoms: P_13  and  O_16
REMARK   15  A    between atoms: C_17  and  O_19
REMARK                            x       y       z     vdW  Elec       q    Type
REMARK                         _______ _______ _______ _____ _____    ______ ____
ROOT
ATOM      1  C   UNL     1       2.421   5.650  18.102  0.00  0.00    +0.000 C 
ENDROOT
BRANCH   1   2
ATOM      2  P   UNL     1       4.173   5.618  17.574  0.00  0.00    +0.000 P 
ATOM      3  O   UNL     1       4.632   5.597  19.044  0.00  0.00    +0.000 OA
BRANCH   2   4
ATOM      4  O   UNL     1       4.138   7.235  17.199  0.00  0.00    +0.000 OA
ATOM      5  H   UNL     1       4.914   7.480  16.655  0.00  0.00    +0.000 HD
ENDBRANCH   2   4
BRANCH   2   6
ATOM      6  C   UNL     1       5.925   5.585  17.046  0.00  0.00    +0.000 C 
BRANCH   6   8
ATOM      7  C   UNL     1       7.651   7.384  17.564  0.00  0.00    +0.000 C 
ATOM      8  C   UNL     1       6.872   6.188  18.091  0.00  0.00    +0.000 C 
BRANCH   8   9
ATOM      9  C   UNL     1       7.847   5.131  18.563  0.00  0.00    +0.000 C 
ATOM     10  O   UNL     1       8.364   5.133  19.675  0.00  0.00    +0.000 OA
BRANCH   9  11
ATOM     11  O   UNL     1       8.063   4.156  17.661  0.00  0.00    +0.000 OA
ATOM     12  H   UNL     1       7.689   3.285  17.907  0.00  0.00    +0.000 HD
ENDBRANCH   9  11
ENDBRANCH   8   9
ENDBRANCH   6   8
ENDBRANCH   2   6
ENDBRANCH   1   2
BRANCH   1  13
ATOM     13  O   UNL     1       1.715   4.488  17.651  0.00  0.00    +0.000 OA
BRANCH  13  14
ATOM     14  C   UNL     1       2.634   3.547  17.096  0.00  0.00    +0.000 C 
BRANCH  14  15
ATOM     15  C   UNL     1       2.388   2.167  17.681  0.00  0.00    +0.000 C 
BRANCH  15  16
ATOM     16  C   UNL     1       1.201   2.166  18.632  0.00  0.00    +0.000 C 
BRANCH  16  17
ATOM     17  O   UNL     1       1.670   1.836  19.929  0.00  0.00    +0.000 OA
BRANCH  17  18
ATOM     18  P   UNL     1       1.590   2.994  21.035  0.00  0.00    +0.000 P 
ATOM     19  O   UNL     1       1.434   2.569  22.448  0.00  0.00    +0.000 OA
BRANCH  18  20
ATOM     20  O   UNL     1       2.925   3.799  20.690  0.00  0.00    +0.000 OA
ATOM     21  H   UNL     1       3.702   3.286  20.977  0.00  0.00    +0.000 HD
ENDBRANCH  18  20
BRANCH  18  22
ATOM     22  O   UNL     1       0.476   3.975  20.450  0.00  0.00    +0.000 OA
ATOM     23  H   UNL     1       0.744   4.904  20.559  0.00  0.00    +0.000 HD
ENDBRANCH  18  22
ENDBRANCH  17  18
ENDBRANCH  16  17
ENDBRANCH  15  16
ENDBRANCH  14  15
ENDBRANCH  13  14
ENDBRANCH   1  13
TORSDOF 14
ENDMDL
MODEL 4
REMARK VINA RESULT:      -5.4      1.956      2.774
REMARK  Name = 
REMARK  15 active torsions:
REMARK  status: ('A' for Active; 'I' for Inactive)
REMARK    1  A    between atoms: C_1  and  C_2
REMARK    2  A    between atoms: C_2  and  C_3
REMARK    3  A    between atoms: C_2  and  C_17
REMARK    4  A    between atoms: C_3  and  P_4
REMARK    5  A    between atoms: P_4  and  O_6
REMARK    6  A    between atoms: P_4  and  C_7
REMARK    7  A    between atoms: C_7  and  O_8
REMARK    8  A    between atoms: O_8  and  C_9
REMARK    9  A    between atoms: C_9  and  C_10
REMARK   10  A    between atoms: C_10  and  C_11
REMARK   11  A    between atoms: C_11  and  O_12
REMARK   12  A    between atoms: O_12  and  P_13
REMARK   13  A    between atoms: P_13  and  O_15
REMARK   14  A    between atoms: P_13  and  O_16
REMARK   15  A    between atoms: C_17  and  O_19
REMARK                            x       y       z     vdW  Elec       q    Type
REMARK                         _______ _______ _______ _____ _____    ______ ____
ROOT
ATOM      1  C   UNL     1       3.806   3.902  16.608  0.00  0.00    +0.000 C 
ENDROOT
BRANCH   1   2
ATOM      2  P   UNL     1       5.330   4.915  16.646  0.00  0.00    +0.000 P 
ATOM      3  O   UNL     1       5.029   5.448  15.232  0.00  0.00    +0.000 OA
BRANCH   2   4
ATOM      4  O   UNL     1       6.279   3.582  16.367  0.00  0.00    +0.000 OA
ATOM      5  H   UNL     1       7.050   3.573  16.971  0.00  0.00    +0.000 HD
ENDBRANCH   2   4
BRANCH   2   6
ATOM      6  C   UNL     1       6.853   5.928  16.684  0.00  0.00    +0.000 C 
BRANCH   6   8
ATOM      7  C   UNL     1       8.097   7.708  18.013  0.00  0.00    +0.000 C 
ATOM      8  C   UNL     1       7.127   6.537  18.065  0.00  0.00    +0.000 C 
BRANCH   8   9
ATOM      9  C   UNL     1       7.685   5.475  18.987  0.00  0.00    +0.000 C 
ATOM     10  O   UNL     1       7.562   5.503  20.207  0.00  0.00    +0.000 OA
BRANCH   9  11
ATOM     11  O   UNL     1       8.291   4.462  18.340  0.00  0.00    +0.000 OA
ATOM     12  H   UNL     1       7.770   4.078  17.607  0.00  0.00    +0.000 HD
ENDBRANCH   9  11
ENDBRANCH   8   9
ENDBRANCH   6   8
ENDBRANCH   2   6
ENDBRANCH   1   2
BRANCH   1  13
ATOM     13  O   UNL     1       3.090   3.983  17.846  0.00  0.00    +0.000 OA
BRANCH  13  14
ATOM     14  C   UNL     1       2.277   5.156  17.860  0.00  0.00    +0.000 C 
BRANCH  14  15
ATOM     15  C   UNL     1       2.524   5.949  19.132  0.00  0.00    +0.000 C 
BRANCH  15  16
ATOM     16  C   UNL     1       3.018   5.057  20.260  0.00  0.00    +0.000 C 
BRANCH  16  17
ATOM     17  O   UNL     1       1.897   4.638  21.020  0.00  0.00    +0.000 OA
BRANCH  17  18
ATOM     18  P   UNL     1       1.598   3.063  21.047  0.00  0.00    +0.000 P 
ATOM     19  O   UNL     1       1.448   2.427  22.378  0.00  0.00    +0.000 OA
BRANCH  18  20
ATOM     20  O   UNL     1       0.316   3.008  20.097  0.00  0.00    +0.000 OA
ATOM     21  H   UNL     1       0.445   3.605  19.336  0.00  0.00    +0.000 HD
ENDBRANCH  18  20
BRANCH  18  22
ATOM     22  O   UNL     1       2.722   2.466  20.085  0.00  0.00    +0.000 OA
ATOM     23  H   UNL     1       3.602   2.542  20.495  0.00  0.00    +0.000 HD
ENDBRANCH  18  22
ENDBRANCH  17  18
ENDBRANCH  16  17
ENDBRANCH  15  16
ENDBRANCH  14  15
ENDBRANCH  13  14
ENDBRANCH   1  13
TORSDOF 14
ENDMDL
MODEL 5
REMARK VINA RESULT:      -5.3      2.040      6.094
REMARK  Name = 
REMARK  15 active torsions:
REMARK  status: ('A' for Active; 'I' for Inactive)
REMARK    1  A    between atoms: C_1  and  C_2
REMARK    2  A    between atoms: C_2  and  C_3
REMARK    3  A    between atoms: C_2  and  C_17
REMARK    4  A    between atoms: C_3  and  P_4
REMARK    5  A    between atoms: P_4  and  O_6
REMARK    6  A    between atoms: P_4  and  C_7
REMARK    7  A    between atoms: C_7  and  O_8
REMARK    8  A    between atoms: O_8  and  C_9
REMARK    9  A    between atoms: C_9  and  C_10
REMARK   10  A    between atoms: C_10  and  C_11
REMARK   11  A    between atoms: C_11  and  O_12
REMARK   12  A    between atoms: O_12  and  P_13
REMARK   13  A    between atoms: P_13  and  O_15
REMARK   14  A    between atoms: P_13  and  O_16
REMARK   15  A    between atoms: C_17  and  O_19
REMARK                            x       y       z     vdW  Elec       q    Type
REMARK                         _______ _______ _______ _____ _____    ______ ____
ROOT
ATOM      1  C   UNL     1       5.594   4.374  18.824  0.00  0.00    +0.000 C 
ENDROOT
BRANCH   1   2
ATOM      2  P   UNL     1       3.778   4.426  18.596  0.00  0.00    +0.000 P 
ATOM      3  O   UNL     1       3.841   3.190  17.680  0.00  0.00    +0.000 OA
BRANCH   2   4
ATOM      4  O   UNL     1       3.900   5.702  17.541  0.00  0.00    +0.000 OA
ATOM      5  H   UNL     1       4.091   5.383  16.634  0.00  0.00    +0.000 HD
ENDBRANCH   2   4
BRANCH   2   6
ATOM      6  C   UNL     1       1.963   4.478  18.370  0.00  0.00    +0.000 C 
BRANCH   6   8
ATOM      7  C   UNL     1       2.031   4.976  20.866  0.00  0.00    +0.000 C 
ATOM      8  C   UNL     1       1.198   4.468  19.699  0.00  0.00    +0.000 C 
BRANCH   8   9
ATOM      9  C   UNL     1       0.728   3.061  20.003  0.00  0.00    +0.000 C 
ATOM     10  O   UNL     1       0.282   2.297  19.154  0.00  0.00    +0.000 OA
BRANCH   9  11
ATOM     11  O   UNL     1       0.889   2.705  21.291  0.00  0.00    +0.000 OA
ATOM     12  H   UNL     1       0.063   2.694  21.816  0.00  0.00    +0.000 HD
ENDBRANCH   9  11
ENDBRANCH   8   9
ENDBRANCH   6   8
ENDBRANCH   2   6
ENDBRANCH   1   2
BRANCH   1  13
ATOM     13  O   UNL     1       6.092   5.605  19.360  0.00  0.00    +0.000 OA
BRANCH  13  14
ATOM     14  C   UNL     1       7.509   5.667  19.198  0.00  0.00    +0.000 C 
BRANCH  14  15
ATOM     15  C   UNL     1       7.887   6.860  18.337  0.00  0.00    +0.000 C 
BRANCH  15  16
ATOM     16  C   UNL     1       7.111   6.873  17.029  0.00  0.00    +0.000 C 
BRANCH  16  17
ATOM     17  O   UNL     1       7.704   5.932  16.150  0.00  0.00    +0.000 OA
BRANCH  17  18
ATOM     18  P   UNL     1       6.710   5.137  15.176  0.00  0.00    +0.000 P 
ATOM     19  O   UNL     1       6.380   3.738  15.543  0.00  0.00    +0.000 OA
BRANCH  18  20
ATOM     20  O   UNL     1       5.484   6.158  15.137  0.00  0.00    +0.000 OA
ATOM     21  H   UNL     1       4.645   5.666  15.192  0.00  0.00    +0.000 HD
ENDBRANCH  18  20
BRANCH  18  22
ATOM     22  O   UNL     1       7.354   5.371  13.735  0.00  0.00    +0.000 OA
ATOM     23  H   UNL     1       7.061   6.220  13.359  0.00  0.00    +0.000 HD
ENDBRANCH  18  22
ENDBRANCH  17  18
ENDBRANCH  16  17
ENDBRANCH  15  16
ENDBRANCH  14  15
ENDBRANCH  13  14
ENDBRANCH   1  13
TORSDOF 14
ENDMDL
MODEL 6
REMARK VINA RESULT:      -5.3      1.976      5.829
REMARK  Name = 
REMARK  15 active torsions:
REMARK  status: ('A' for Active; 'I' for Inactive)
REMARK    1  A    between atoms: C_1  and  C_2
REMARK    2  A    between atoms: C_2  and  C_3
REMARK    3  A    between atoms: C_2  and  C_17
REMARK    4  A    between atoms: C_3  and  P_4
REMARK    5  A    between atoms: P_4  and  O_6
REMARK    6  A    between atoms: P_4  and  C_7
REMARK    7  A    between atoms: C_7  and  O_8
REMARK    8  A    between atoms: O_8  and  C_9
REMARK    9  A    between atoms: C_9  and  C_10
REMARK   10  A    between atoms: C_10  and  C_11
REMARK   11  A    between atoms: C_11  and  O_12
REMARK   12  A    between atoms: O_12  and  P_13
REMARK   13  A    between atoms: P_13  and  O_15
REMARK   14  A    between atoms: P_13  and  O_16
REMARK   15  A    between atoms: C_17  and  O_19
REMARK                            x       y       z     vdW  Elec       q    Type
REMARK                         _______ _______ _______ _____ _____    ______ ____
ROOT
ATOM      1  C   UNL     1       4.078   4.487  17.310  0.00  0.00    +0.000 C 
ENDROOT
BRANCH   1   2
ATOM      2  P   UNL     1       2.903   3.486  18.292  0.00  0.00    +0.000 P 
ATOM      3  O   UNL     1       3.762   2.227  18.066  0.00  0.00    +0.000 OA
BRANCH   2   4
ATOM      4  O   UNL     1       1.816   3.447  17.039  0.00  0.00    +0.000 OA
ATOM      5  H   UNL     1       2.276   3.308  16.186  0.00  0.00    +0.000 HD
ENDBRANCH   2   4
BRANCH   2   6
ATOM      6  C   UNL     1       1.729   2.484  19.276  0.00  0.00    +0.000 C 
BRANCH   6   8
ATOM      7  C   UNL     1       1.482   4.737  20.437  0.00  0.00    +0.000 C 
ATOM      8  C   UNL     1       1.142   3.255  20.465  0.00  0.00    +0.000 C 
BRANCH   8   9
ATOM      9  C   UNL     1       1.650   2.655  21.759  0.00  0.00    +0.000 C 
ATOM     10  O   UNL     1       0.915   2.282  22.668  0.00  0.00    +0.000 OA
BRANCH   9  11
ATOM     11  O   UNL     1       2.988   2.525  21.805  0.00  0.00    +0.000 OA
ATOM     12  H   UNL     1       3.480   3.195  21.289  0.00  0.00    +0.000 HD
ENDBRANCH   9  11
ENDBRANCH   8   9
ENDBRANCH   6   8
ENDBRANCH   2   6
ENDBRANCH   1   2
BRANCH   1  13
ATOM     13  O   UNL     1       4.970   3.660  16.553  0.00  0.00    +0.000 OA
BRANCH  13  14
ATOM     14  C   UNL     1       5.445   4.376  15.413  0.00  0.00    +0.000 C 
BRANCH  14  15
ATOM     15  C   UNL     1       6.948   4.576  15.510  0.00  0.00    +0.000 C 
BRANCH  15  16
ATOM     16  C   UNL     1       7.305   5.642  16.534  0.00  0.00    +0.000 C 
BRANCH  16  17
ATOM     17  O   UNL     1       7.860   5.000  17.669  0.00  0.00    +0.000 OA
BRANCH  17  18
ATOM     18  P   UNL     1       7.632   5.722  19.082  0.00  0.00    +0.000 P 
ATOM     19  O   UNL     1       6.278   5.627  19.680  0.00  0.00    +0.000 OA
BRANCH  18  20
ATOM     20  O   UNL     1       8.816   5.061  19.925  0.00  0.00    +0.000 OA
ATOM     21  H   UNL     1       9.235   5.737  20.490  0.00  0.00    +0.000 HD
ENDBRANCH  18  20
BRANCH  18  22
ATOM     22  O   UNL     1       8.210   7.189  18.835  0.00  0.00    +0.000 OA
ATOM     23  H   UNL     1       7.530   7.862  19.016  0.00  0.00    +0.000 HD
ENDBRANCH  18  22
ENDBRANCH  17  18
ENDBRANCH  16  17
ENDBRANCH  15  16
ENDBRANCH  14  15
ENDBRANCH  13  14
ENDBRANCH   1  13
TORSDOF 14
ENDMDL
MODEL 7
REMARK VINA RESULT:      -5.2      2.088      5.831
REMARK  Name = 
REMARK  15 active torsions:
REMARK  status: ('A' for Active; 'I' for Inactive)
REMARK    1  A    between atoms: C_1  and  C_2
REMARK    2  A    between atoms: C_2  and  C_3
REMARK    3  A    between atoms: C_2  and  C_17
REMARK    4  A    between atoms: C_3  and  P_4
REMARK    5  A    between atoms: P_4  and  O_6
REMARK    6  A    between atoms: P_4  and  C_7
REMARK    7  A    between atoms: C_7  and  O_8
REMARK    8  A    between atoms: O_8  and  C_9
REMARK    9  A    between atoms: C_9  and  C_10
REMARK   10  A    between atoms: C_10  and  C_11
REMARK   11  A    between atoms: C_11  and  O_12
REMARK   12  A    between atoms: O_12  and  P_13
REMARK   13  A    between atoms: P_13  and  O_15
REMARK   14  A    between atoms: P_13  and  O_16
REMARK   15  A    between atoms: C_17  and  O_19
REMARK                            x       y       z     vdW  Elec       q    Type
REMARK                         _______ _______ _______ _____ _____    ______ ____
ROOT
ATOM      1  C   UNL     1       3.792   6.340  18.839  0.00  0.00    +0.000 C 
ENDROOT
BRANCH   1   2
ATOM      2  P   UNL     1       2.437   5.347  19.564  0.00  0.00    +0.000 P 
ATOM      3  O   UNL     1       1.627   5.470  18.259  0.00  0.00    +0.000 OA
BRANCH   2   4
ATOM      4  O   UNL     1       1.915   6.636  20.471  0.00  0.00    +0.000 OA
ATOM      5  H   UNL     1       1.690   6.350  21.381  0.00  0.00    +0.000 HD
ENDBRANCH   2   4
BRANCH   2   6
ATOM      6  C   UNL     1       1.081   4.354  20.289  0.00  0.00    +0.000 C 
BRANCH   6   8
ATOM      7  C   UNL     1       2.863   2.666  20.968  0.00  0.00    +0.000 C 
ATOM      8  C   UNL     1       1.449   2.873  20.447  0.00  0.00    +0.000 C 
BRANCH   8   9
ATOM      9  C   UNL     1       1.305   2.169  19.115  0.00  0.00    +0.000 C 
ATOM     10  O   UNL     1       0.294   2.226  18.423  0.00  0.00    +0.000 OA
BRANCH   9  11
ATOM     11  O   UNL     1       2.413   1.507  18.731  0.00  0.00    +0.000 OA
ATOM     12  H   UNL     1       2.908   1.087  19.463  0.00  0.00    +0.000 HD
ENDBRANCH   9  11
ENDBRANCH   8   9
ENDBRANCH   6   8
ENDBRANCH   2   6
ENDBRANCH   1   2
BRANCH   1  13
ATOM     13  O   UNL     1       4.428   5.650  17.757  0.00  0.00    +0.000 OA
BRANCH  13  14
ATOM     14  C   UNL     1       5.004   4.432  18.229  0.00  0.00    +0.000 C 
BRANCH  14  15
ATOM     15  C   UNL     1       6.513   4.572  18.337  0.00  0.00    +0.000 C 
BRANCH  15  16
ATOM     16  C   UNL     1       7.062   5.524  17.286  0.00  0.00    +0.000 C 
BRANCH  16  17
ATOM     17  O   UNL     1       7.603   4.752  16.227  0.00  0.00    +0.000 OA
BRANCH  17  18
ATOM     18  P   UNL     1       6.946   4.962  14.780  0.00  0.00    +0.000 P 
ATOM     19  O   UNL     1       7.854   5.365  13.678  0.00  0.00    +0.000 OA
BRANCH  18  20
ATOM     20  O   UNL     1       6.212   3.555  14.602  0.00  0.00    +0.000 OA
ATOM     21  H   UNL     1       5.557   3.615  13.882  0.00  0.00    +0.000 HD
ENDBRANCH  18  20
BRANCH  18  22
ATOM     22  O   UNL     1       5.708   5.922  15.081  0.00  0.00    +0.000 OA
ATOM     23  H   UNL     1       5.923   6.549  15.794  0.00  0.00    +0.000 HD
ENDBRANCH  18  22
ENDBRANCH  17  18
ENDBRANCH  16  17
ENDBRANCH  15  16
ENDBRANCH  14  15
ENDBRANCH  13  14
ENDBRANCH   1  13
TORSDOF 14
ENDMDL
MODEL 8
REMARK VINA RESULT:      -5.2      1.932      5.972
REMARK  Name = 
REMARK  15 active torsions:
REMARK  status: ('A' for Active; 'I' for Inactive)
REMARK    1  A    between atoms: C_1  and  C_2
REMARK    2  A    between atoms: C_2  and  C_3
REMARK    3  A    between atoms: C_2  and  C_17
REMARK    4  A    between atoms: C_3  and  P_4
REMARK    5  A    between atoms: P_4  and  O_6
REMARK    6  A    between atoms: P_4  and  C_7
REMARK    7  A    between atoms: C_7  and  O_8
REMARK    8  A    between atoms: O_8  and  C_9
REMARK    9  A    between atoms: C_9  and  C_10
REMARK   10  A    between atoms: C_10  and  C_11
REMARK   11  A    between atoms: C_11  and  O_12
REMARK   12  A    between atoms: O_12  and  P_13
REMARK   13  A    between atoms: P_13  and  O_15
REMARK   14  A    between atoms: P_13  and  O_16
REMARK   15  A    between atoms: C_17  and  O_19
REMARK                            x       y       z     vdW  Elec       q    Type
REMARK                         _______ _______ _______ _____ _____    ______ ____
ROOT
ATOM      1  C   UNL     1       5.453   4.111  18.616  0.00  0.00    +0.000 C 
ENDROOT
BRANCH   1   2
ATOM      2  P   UNL     1       4.063   2.996  19.032  0.00  0.00    +0.000 P 
ATOM      3  O   UNL     1       4.903   2.336  20.142  0.00  0.00    +0.000 OA
BRANCH   2   4
ATOM      4  O   UNL     1       4.361   2.051  17.701  0.00  0.00    +0.000 OA
ATOM      5  H   UNL     1       5.324   1.918  17.579  0.00  0.00    +0.000 HD
ENDBRANCH   2   4
BRANCH   2   6
ATOM      6  C   UNL     1       2.672   1.882  19.449  0.00  0.00    +0.000 C 
BRANCH   6   8
ATOM      7  C   UNL     1       0.961   3.547  18.563  0.00  0.00    +0.000 C 
ATOM      8  C   UNL     1       1.364   2.638  19.714  0.00  0.00    +0.000 C 
BRANCH   8   9
ATOM      9  C   UNL     1       1.504   3.468  20.973  0.00  0.00    +0.000 C 
ATOM     10  O   UNL     1       1.879   3.012  22.048  0.00  0.00    +0.000 OA
BRANCH   9  11
ATOM     11  O   UNL     1       1.223   4.772  20.794  0.00  0.00    +0.000 OA
ATOM     12  H   UNL     1       1.987   5.319  20.524  0.00  0.00    +0.000 HD
ENDBRANCH   9  11
ENDBRANCH   8   9
ENDBRANCH   6   8
ENDBRANCH   2   6
ENDBRANCH   1   2
BRANCH   1  13
ATOM     13  O   UNL     1       5.249   5.426  19.144  0.00  0.00    +0.000 OA
BRANCH  13  14
ATOM     14  C   UNL     1       5.534   6.402  18.142  0.00  0.00    +0.000 C 
BRANCH  14  15
ATOM     15  C   UNL     1       4.594   6.230  16.961  0.00  0.00    +0.000 C 
BRANCH  15  16
ATOM     16  C   UNL     1       5.328   6.373  15.636  0.00  0.00    +0.000 C 
BRANCH  16  17
ATOM     17  O   UNL     1       5.090   5.206  14.868  0.00  0.00    +0.000 OA
BRANCH  17  18
ATOM     18  P   UNL     1       6.373   4.320  14.496  0.00  0.00    +0.000 P 
ATOM     19  O   UNL     1       6.546   3.945  13.071  0.00  0.00    +0.000 OA
BRANCH  18  20
ATOM     20  O   UNL     1       7.527   5.227  15.125  0.00  0.00    +0.000 OA
ATOM     21  H   UNL     1       7.131   5.982  15.597  0.00  0.00    +0.000 HD
ENDBRANCH  18  20
BRANCH  18  22
ATOM     22  O   UNL     1       6.306   3.126  15.553  0.00  0.00    +0.000 OA
ATOM     23  H   UNL     1       7.140   3.060  16.052  0.00  0.00    +0.000 HD
ENDBRANCH  18  22
ENDBRANCH  17  18
ENDBRANCH  16  17
ENDBRANCH  15  16
ENDBRANCH  14  15
ENDBRANCH  13  14
ENDBRANCH   1  13
TORSDOF 14
ENDMDL
MODEL 9
REMARK VINA RESULT:      -5.2      1.697      2.381
REMARK  Name = 
REMARK  15 active torsions:
REMARK  status: ('A' for Active; 'I' for Inactive)
REMARK    1  A    between atoms: C_1  and  C_2
REMARK    2  A    between atoms: C_2  and  C_3
REMARK    3  A    between atoms: C_2  and  C_17
REMARK    4  A    between atoms: C_3  and  P_4
REMARK    5  A    between atoms: P_4  and  O_6
REMARK    6  A    between atoms: P_4  and  C_7
REMARK    7  A    between atoms: C_7  and  O_8
REMARK    8  A    between atoms: O_8  and  C_9
REMARK    9  A    between atoms: C_9  and  C_10
REMARK   10  A    between atoms: C_10  and  C_11
REMARK   11  A    between atoms: C_11  and  O_12
REMARK   12  A    between atoms: O_12  and  P_13
REMARK   13  A    between atoms: P_13  and  O_15
REMARK   14  A    between atoms: P_13  and  O_16
REMARK   15  A    between atoms: C_17  and  O_19
REMARK                            x       y       z     vdW  Elec       q    Type
REMARK                         _______ _______ _______ _____ _____    ______ ____
ROOT
ATOM      1  C   UNL     1       3.399   6.429  19.179  0.00  0.00    +0.000 C 
ENDROOT
BRANCH   1   2
ATOM      2  P   UNL     1       4.525   6.277  17.744  0.00  0.00    +0.000 P 
ATOM      3  O   UNL     1       3.898   7.528  17.099  0.00  0.00    +0.000 OA
BRANCH   2   4
ATOM      4  O   UNL     1       3.633   5.025  17.117  0.00  0.00    +0.000 OA
ATOM      5  H   UNL     1       3.247   4.481  17.835  0.00  0.00    +0.000 HD
ENDBRANCH   2   4
BRANCH   2   6
ATOM      6  C   UNL     1       5.651   6.125  16.310  0.00  0.00    +0.000 C 
BRANCH   6   8
ATOM      7  C   UNL     1       7.330   4.544  17.390  0.00  0.00    +0.000 C 
ATOM      8  C   UNL     1       7.110   5.893  16.722  0.00  0.00    +0.000 C 
BRANCH   8   9
ATOM      9  C   UNL     1       7.551   6.990  17.668  0.00  0.00    +0.000 C 
ATOM     10  O   UNL     1       8.014   6.778  18.784  0.00  0.00    +0.000 OA
BRANCH   9  11
ATOM     11  O   UNL     1       7.433   8.227  17.153  0.00  0.00    +0.000 OA
ATOM     12  H   UNL     1       6.512   8.514  16.991  0.00  0.00    +0.000 HD
ENDBRANCH   9  11
ENDBRANCH   8   9
ENDBRANCH   6   8
ENDBRANCH   2   6
ENDBRANCH   1   2
BRANCH   1  13
ATOM     13  O   UNL     1       3.315   5.202  19.914  0.00  0.00    +0.000 OA
BRANCH  13  14
ATOM     14  C   UNL     1       2.011   5.061  20.477  0.00  0.00    +0.000 C 
BRANCH  14  15
ATOM     15  C   UNL     1       1.901   3.742  21.221  0.00  0.00    +0.000 C 
BRANCH  15  16
ATOM     16  C   UNL     1       1.578   2.593  20.277  0.00  0.00    +0.000 C 
BRANCH  16  17
ATOM     17  O   UNL     1       2.763   1.846  20.064  0.00  0.00    +0.000 OA
BRANCH  17  18
ATOM     18  P   UNL     1       3.392   1.907  18.590  0.00  0.00    +0.000 P 
ATOM     19  O   UNL     1       2.496   2.343  17.491  0.00  0.00    +0.000 OA
BRANCH  18  20
ATOM     20  O   UNL     1       4.661   2.836  18.869  0.00  0.00    +0.000 OA
ATOM     21  H   UNL     1       5.458   2.283  18.960  0.00  0.00    +0.000 HD
ENDBRANCH  18  20
BRANCH  18  22
ATOM     22  O   UNL     1       4.082   0.477  18.433  0.00  0.00    +0.000 OA
ATOM     23  H   UNL     1       3.569  -0.089  17.830  0.00  0.00    +0.000 HD
ENDBRANCH  18  22
ENDBRANCH  17  18
ENDBRANCH  16  17
ENDBRANCH  15  16
ENDBRANCH  14  15
ENDBRANCH  13  14
ENDBRANCH   1  13
TORSDOF 14
ENDMDL
