MODEL 1
REMARK VINA RESULT:      -7.7      0.000      0.000
REMARK  Name = 
REMARK  6 active torsions:
REMARK  status: ('A' for Active; 'I' for Inactive)
REMARK    1  A    between atoms: C_1  and  O_2
REMARK    2  A    between atoms: O_2  and  C_3
REMARK    3  A    between atoms: C_6  and  C_7
REMARK    4  A    between atoms: C_8  and  C_9
REMARK    5  A    between atoms: N_11  and  C_12
REMARK    6  A    between atoms: C_20  and  O_21
REMARK                            x       y       z     vdW  Elec       q    Type
REMARK                         _______ _______ _______ _____ _____    ______ ____
ROOT
ATOM      1  C   UNL     1       9.064   9.500  18.858  0.00  0.00    +0.000 C 
ATOM      2  C   UNL     1       8.152   9.155  17.935  0.00  0.00    +0.000 C 
ENDROOT
BRANCH   1   6
ATOM      3  C   UNL     1      10.646  13.453  19.364  0.00  0.00    +0.000 A 
ATOM      4  C   UNL     1      10.505  12.601  20.466  0.00  0.00    +0.000 A 
ATOM      5  C   UNL     1       9.987  11.313  20.325  0.00  0.00    +0.000 A 
ATOM      6  C   UNL     1       9.584  10.852  19.071  0.00  0.00    +0.000 A 
ATOM      7  C   UNL     1       9.742  11.692  17.959  0.00  0.00    +0.000 A 
ATOM      8  C   UNL     1      10.262  12.984  18.104  0.00  0.00    +0.000 A 
BRANCH   3  10
ATOM      9  C   UNL     1      10.272  15.735  19.965  0.00  0.00    +0.000 C 
ATOM     10  O   UNL     1      11.172  14.670  19.700  0.00  0.00    +0.000 OA
ENDBRANCH   3  10
BRANCH   8  11
ATOM     11  O   UNL     1      10.380  13.759  16.984  0.00  0.00    +0.000 OA
ATOM     12  H   UNL     1      10.839  13.255  16.292  0.00  0.00    +0.000 HD
ENDBRANCH   8  11
ENDBRANCH   1   6
BRANCH   2  13
ATOM     13  C   UNL     1       7.731   7.729  17.879  0.00  0.00    +0.000 C 
ATOM     14  O   UNL     1       8.165   6.927  18.696  0.00  0.00    +0.000 OA
ATOM     15  N   UNL     1       6.876   7.455  16.833  0.00  0.00    +0.000 N 
ATOM     16  H   UNL     1       6.716   8.169  16.131  0.00  0.00    +0.000 HD
BRANCH  15  17
ATOM     17  C   UNL     1       6.273   6.198  16.571  0.00  0.00    +0.000 A 
ATOM     18  C   UNL     1       6.952   5.165  15.916  0.00  0.00    +0.000 A 
ATOM     19  C   UNL     1       6.332   3.941  15.663  0.00  0.00    +0.000 A 
ATOM     20  C   UNL     1       5.021   3.725  16.072  0.00  0.00    +0.000 A 
ATOM     21  C   UNL     1       4.330   4.734  16.741  0.00  0.00    +0.000 A 
ATOM     22  C   UNL     1       4.953   5.962  16.993  0.00  0.00    +0.000 A 
ATOM     23 CL   UNL     1       4.040   7.188  17.804  0.00  0.00    +0.000 Cl
ENDBRANCH  15  17
ENDBRANCH   2  13
TORSDOF 5
ENDMDL
MODEL 2
REMARK VINA RESULT:      -7.6      1.204      1.624
REMARK  Name = 
REMARK  6 active torsions:
REMARK  status: ('A' for Active; 'I' for Inactive)
REMARK    1  A    between atoms: C_1  and  O_2
REMARK    2  A    between atoms: O_2  and  C_3
REMARK    3  A    between atoms: C_6  and  C_7
REMARK    4  A    between atoms: C_8  and  C_9
REMARK    5  A    between atoms: N_11  and  C_12
REMARK    6  A    between atoms: C_20  and  O_21
REMARK                            x       y       z     vdW  Elec       q    Type
REMARK                         _______ _______ _______ _____ _____    ______ ____
ROOT
ATOM      1  C   UNL     1       8.760   9.349  18.940  0.00  0.00    +0.000 C 
ATOM      2  C   UNL     1       8.292   8.799  17.808  0.00  0.00    +0.000 C 
ENDROOT
BRANCH   1   6
ATOM      3  C   UNL     1      10.836  13.098  19.082  0.00  0.00    +0.000 A 
ATOM      4  C   UNL     1      10.820  12.256  20.201  0.00  0.00    +0.000 A 
ATOM      5  C   UNL     1      10.146  11.034  20.178  0.00  0.00    +0.000 A 
ATOM      6  C   UNL     1       9.458  10.634  19.032  0.00  0.00    +0.000 A 
ATOM      7  C   UNL     1       9.487  11.462  17.901  0.00  0.00    +0.000 A 
ATOM      8  C   UNL     1      10.165  12.688  17.928  0.00  0.00    +0.000 A 
BRANCH   3  10
ATOM      9  C   UNL     1      11.149  15.090  20.365  0.00  0.00    +0.000 C 
ATOM     10  O   UNL     1      11.548  14.246  19.296  0.00  0.00    +0.000 OA
ENDBRANCH   3  10
BRANCH   8  11
ATOM     11  O   UNL     1      10.146  13.457  16.797  0.00  0.00    +0.000 OA
ATOM     12  H   UNL     1       9.226  13.659  16.563  0.00  0.00    +0.000 HD
ENDBRANCH   8  11
ENDBRANCH   1   6
BRANCH   2  13
ATOM     13  C   UNL     1       7.592   7.490  17.915  0.00  0.00    +0.000 C 
ATOM     14  O   UNL     1       8.014   6.627  18.674  0.00  0.00    +0.000 OA
ATOM     15  N   UNL     1       6.506   7.385  17.073  0.00  0.00    +0.000 N 
ATOM     16  H   UNL     1       6.352   8.106  16.378  0.00  0.00    +0.000 HD
BRANCH  15  17
ATOM     17  C   UNL     1       5.624   6.276  17.004  0.00  0.00    +0.000 A 
ATOM     18  C   UNL     1       4.441   6.215  17.750  0.00  0.00    +0.000 A 
ATOM     19  C   UNL     1       3.595   5.108  17.670  0.00  0.00    +0.000 A 
ATOM     20  C   UNL     1       3.913   4.045  16.832  0.00  0.00    +0.000 A 
ATOM     21  C   UNL     1       5.078   4.092  16.068  0.00  0.00    +0.000 A 
ATOM     22  C   UNL     1       5.926   5.202  16.150  0.00  0.00    +0.000 A 
ATOM     23 CL   UNL     1       7.372   5.195  15.198  0.00  0.00    +0.000 Cl
ENDBRANCH  15  17
ENDBRANCH   2  13
TORSDOF 5
ENDMDL
MODEL 3
REMARK VINA RESULT:      -7.5      1.441      2.123
REMARK  Name = 
REMARK  6 active torsions:
REMARK  status: ('A' for Active; 'I' for Inactive)
REMARK    1  A    between atoms: C_1  and  O_2
REMARK    2  A    between atoms: O_2  and  C_3
REMARK    3  A    between atoms: C_6  and  C_7
REMARK    4  A    between atoms: C_8  and  C_9
REMARK    5  A    between atoms: N_11  and  C_12
REMARK    6  A    between atoms: C_20  and  O_21
REMARK                            x       y       z     vdW  Elec       q    Type
REMARK                         _______ _______ _______ _____ _____    ______ ____
ROOT
ATOM      1  C   UNL     1       8.607   9.536  18.558  0.00  0.00    +0.000 C 
ATOM      2  C   UNL     1       8.270   8.776  17.503  0.00  0.00    +0.000 C 
ENDROOT
BRANCH   1   6
ATOM      3  C   UNL     1      10.662  13.298  18.474  0.00  0.00    +0.000 A 
ATOM      4  C   UNL     1       9.460  13.134  17.775  0.00  0.00    +0.000 A 
ATOM      5  C   UNL     1       8.778  11.916  17.784  0.00  0.00    +0.000 A 
ATOM      6  C   UNL     1       9.295  10.827  18.487  0.00  0.00    +0.000 A 
ATOM      7  C   UNL     1      10.487  10.991  19.207  0.00  0.00    +0.000 A 
ATOM      8  C   UNL     1      11.169  12.214  19.195  0.00  0.00    +0.000 A 
BRANCH   3  10
ATOM      9  C   UNL     1      10.892  15.503  19.367  0.00  0.00    +0.000 C 
ATOM     10  O   UNL     1      11.179  14.558  18.347  0.00  0.00    +0.000 OA
ENDBRANCH   3  10
BRANCH   8  11
ATOM     11  O   UNL     1      12.333  12.307  19.907  0.00  0.00    +0.000 OA
ATOM     12  H   UNL     1      13.023  11.786  19.463  0.00  0.00    +0.000 HD
ENDBRANCH   8  11
ENDBRANCH   1   6
BRANCH   2  13
ATOM     13  C   UNL     1       7.557   7.499  17.773  0.00  0.00    +0.000 C 
ATOM     14  O   UNL     1       7.971   6.732  18.633  0.00  0.00    +0.000 OA
ATOM     15  N   UNL     1       6.467   7.301  16.952  0.00  0.00    +0.000 N 
ATOM     16  H   UNL     1       6.319   7.932  16.173  0.00  0.00    +0.000 HD
BRANCH  15  17
ATOM     17  C   UNL     1       5.573   6.203  17.022  0.00  0.00    +0.000 A 
ATOM     18  C   UNL     1       4.456   6.201  17.866  0.00  0.00    +0.000 A 
ATOM     19  C   UNL     1       3.597   5.102  17.922  0.00  0.00    +0.000 A 
ATOM     20  C   UNL     1       3.835   3.989  17.125  0.00  0.00    +0.000 A 
ATOM     21  C   UNL     1       4.932   3.974  16.267  0.00  0.00    +0.000 A 
ATOM     22  C   UNL     1       5.794   5.076  16.212  0.00  0.00    +0.000 A 
ATOM     23 CL   UNL     1       7.155   4.994  15.145  0.00  0.00    +0.000 Cl
ENDBRANCH  15  17
ENDBRANCH   2  13
TORSDOF 5
ENDMDL
MODEL 4
REMARK VINA RESULT:      -7.3      0.678      1.494
REMARK  Name = 
REMARK  6 active torsions:
REMARK  status: ('A' for Active; 'I' for Inactive)
REMARK    1  A    between atoms: C_1  and  O_2
REMARK    2  A    between atoms: O_2  and  C_3
REMARK    3  A    between atoms: C_6  and  C_7
REMARK    4  A    between atoms: C_8  and  C_9
REMARK    5  A    between atoms: N_11  and  C_12
REMARK    6  A    between atoms: C_20  and  O_21
REMARK                            x       y       z     vdW  Elec       q    Type
REMARK                         _______ _______ _______ _____ _____    ______ ____
ROOT
ATOM      1  C   UNL     1       8.921   9.491  18.861  0.00  0.00    +0.000 C 
ATOM      2  C   UNL     1       8.205   9.060  17.810  0.00  0.00    +0.000 C 
ENDROOT
BRANCH   1   6
ATOM      3  C   UNL     1      10.456  13.458  19.398  0.00  0.00    +0.000 A 
ATOM      4  C   UNL     1      10.459  12.865  18.130  0.00  0.00    +0.000 A 
ATOM      5  C   UNL     1       9.970  11.572  17.934  0.00  0.00    +0.000 A 
ATOM      6  C   UNL     1       9.476  10.838  19.013  0.00  0.00    +0.000 A 
ATOM      7  C   UNL     1       9.450  11.433  20.281  0.00  0.00    +0.000 A 
ATOM      8  C   UNL     1       9.942  12.731  20.475  0.00  0.00    +0.000 A 
BRANCH   3  10
ATOM      9  C   UNL     1      10.065  15.816  19.408  0.00  0.00    +0.000 C 
ATOM     10  O   UNL     1      10.972  14.725  19.390  0.00  0.00    +0.000 OA
ENDBRANCH   3  10
BRANCH   8  11
ATOM     11  O   UNL     1       9.901  13.252  21.738  0.00  0.00    +0.000 OA
ATOM     12  H   UNL     1      10.606  13.913  21.835  0.00  0.00    +0.000 HD
ENDBRANCH   8  11
ENDBRANCH   1   6
BRANCH   2  13
ATOM     13  C   UNL     1       7.708   7.658  17.841  0.00  0.00    +0.000 C 
ATOM     14  O   UNL     1       8.115   6.879  18.695  0.00  0.00    +0.000 OA
ATOM     15  N   UNL     1       6.820   7.373  16.826  0.00  0.00    +0.000 N 
ATOM     16  H   UNL     1       6.684   8.054  16.088  0.00  0.00    +0.000 HD
BRANCH  15  17
ATOM     17  C   UNL     1       6.146   6.138  16.646  0.00  0.00    +0.000 A 
ATOM     18  C   UNL     1       6.775   5.018  16.089  0.00  0.00    +0.000 A 
ATOM     19  C   UNL     1       6.085   3.817  15.914  0.00  0.00    +0.000 A 
ATOM     20  C   UNL     1       4.755   3.713  16.304  0.00  0.00    +0.000 A 
ATOM     21  C   UNL     1       4.114   4.810  16.875  0.00  0.00    +0.000 A 
ATOM     22  C   UNL     1       4.806   6.014  17.049  0.00  0.00    +0.000 A 
ATOM     23 CL   UNL     1       3.953   7.353  17.741  0.00  0.00    +0.000 Cl
ENDBRANCH  15  17
ENDBRANCH   2  13
TORSDOF 5
ENDMDL
MODEL 5
REMARK VINA RESULT:      -7.3      1.560      1.868
REMARK  Name = 
REMARK  6 active torsions:
REMARK  status: ('A' for Active; 'I' for Inactive)
REMARK    1  A    between atoms: C_1  and  O_2
REMARK    2  A    between atoms: O_2  and  C_3
REMARK    3  A    between atoms: C_6  and  C_7
REMARK    4  A    between atoms: C_8  and  C_9
REMARK    5  A    between atoms: N_11  and  C_12
REMARK    6  A    between atoms: C_20  and  O_21
REMARK                            x       y       z     vdW  Elec       q    Type
REMARK                         _______ _______ _______ _____ _____    ______ ____
ROOT
ATOM      1  C   UNL     1       7.796   9.061  17.839  0.00  0.00    +0.000 C 
ATOM      2  C   UNL     1       8.082   7.760  18.009  0.00  0.00    +0.000 C 
ENDROOT
BRANCH   1   6
ATOM      3  C   UNL     1      10.204  12.367  19.127  0.00  0.00    +0.000 A 
ATOM      4  C   UNL     1      10.214  11.164  19.843  0.00  0.00    +0.000 A 
ATOM      5  C   UNL     1       9.433  10.077  19.445  0.00  0.00    +0.000 A 
ATOM      6  C   UNL     1       8.611  10.178  18.321  0.00  0.00    +0.000 A 
ATOM      7  C   UNL     1       8.612  11.373  17.587  0.00  0.00    +0.000 A 
ATOM      8  C   UNL     1       9.397  12.461  17.990  0.00  0.00    +0.000 A 
BRANCH   3  10
ATOM      9  C   UNL     1      12.333  13.452  19.118  0.00  0.00    +0.000 C 
ATOM     10  O   UNL     1      11.032  13.311  19.668  0.00  0.00    +0.000 OA
ENDBRANCH   3  10
BRANCH   8  11
ATOM     11  O   UNL     1       9.345  13.603  17.239  0.00  0.00    +0.000 OA
ATOM     12  H   UNL     1       8.418  13.811  17.036  0.00  0.00    +0.000 HD
ENDBRANCH   8  11
ENDBRANCH   1   6
BRANCH   2  13
ATOM     13  C   UNL     1       7.139   6.765  17.431  0.00  0.00    +0.000 C 
ATOM     14  O   UNL     1       7.345   6.297  16.318  0.00  0.00    +0.000 OA
ATOM     15  N   UNL     1       6.064   6.495  18.250  0.00  0.00    +0.000 N 
ATOM     16  H   UNL     1       5.922   7.064  19.076  0.00  0.00    +0.000 HD
BRANCH  15  17
ATOM     17  C   UNL     1       5.043   5.548  17.981  0.00  0.00    +0.000 A 
ATOM     18  C   UNL     1       5.303   4.177  17.877  0.00  0.00    +0.000 A 
ATOM     19  C   UNL     1       4.280   3.268  17.603  0.00  0.00    +0.000 A 
ATOM     20  C   UNL     1       2.975   3.715  17.438  0.00  0.00    +0.000 A 
ATOM     21  C   UNL     1       2.689   5.074  17.553  0.00  0.00    +0.000 A 
ATOM     22  C   UNL     1       3.716   5.985  17.827  0.00  0.00    +0.000 A 
ATOM     23 CL   UNL     1       3.309   7.664  17.935  0.00  0.00    +0.000 Cl
ENDBRANCH  15  17
ENDBRANCH   2  13
TORSDOF 5
ENDMDL
MODEL 6
REMARK VINA RESULT:      -7.2      2.720      8.586
REMARK  Name = 
REMARK  6 active torsions:
REMARK  status: ('A' for Active; 'I' for Inactive)
REMARK    1  A    between atoms: C_1  and  O_2
REMARK    2  A    between atoms: O_2  and  C_3
REMARK    3  A    between atoms: C_6  and  C_7
REMARK    4  A    between atoms: C_8  and  C_9
REMARK    5  A    between atoms: N_11  and  C_12
REMARK    6  A    between atoms: C_20  and  O_21
REMARK                            x       y       z     vdW  Elec       q    Type
REMARK                         _______ _______ _______ _____ _____    ______ ____
ROOT
ATOM      1  C   UNL     1       7.811   8.753  17.870  0.00  0.00    +0.000 C 
ATOM      2  C   UNL     1       8.712   8.914  18.852  0.00  0.00    +0.000 C 
ENDROOT
BRANCH   1   6
ATOM      3  C   UNL     1       5.975   5.012  16.856  0.00  0.00    +0.000 A 
ATOM      4  C   UNL     1       5.351   6.220  16.522  0.00  0.00    +0.000 A 
ATOM      5  C   UNL     1       5.928   7.448  16.847  0.00  0.00    +0.000 A 
ATOM      6  C   UNL     1       7.144   7.494  17.531  0.00  0.00    +0.000 A 
ATOM      7  C   UNL     1       7.785   6.289  17.850  0.00  0.00    +0.000 A 
ATOM      8  C   UNL     1       7.203   5.057  17.522  0.00  0.00    +0.000 A 
BRANCH   3  10
ATOM      9  C   UNL     1       4.152   3.518  17.245  0.00  0.00    +0.000 C 
ATOM     10  O   UNL     1       5.260   3.918  16.454  0.00  0.00    +0.000 OA
ENDBRANCH   3  10
BRANCH   8  11
ATOM     11  O   UNL     1       7.872   3.917  17.872  0.00  0.00    +0.000 OA
ATOM     12  H   UNL     1       7.674   3.701  18.799  0.00  0.00    +0.000 HD
ENDBRANCH   8  11
ENDBRANCH   1   6
BRANCH   2  13
ATOM     13  C   UNL     1       9.271  10.277  19.058  0.00  0.00    +0.000 C 
ATOM     14  O   UNL     1       9.275  10.779  20.175  0.00  0.00    +0.000 OA
ATOM     15  N   UNL     1       9.716  10.864  17.893  0.00  0.00    +0.000 N 
ATOM     16  H   UNL     1       9.514  10.413  17.008  0.00  0.00    +0.000 HD
BRANCH  15  17
ATOM     17  C   UNL     1      10.346  12.132  17.799  0.00  0.00    +0.000 A 
ATOM     18  C   UNL     1      11.737  12.281  17.856  0.00  0.00    +0.000 A 
ATOM     19  C   UNL     1      12.330  13.542  17.770  0.00  0.00    +0.000 A 
ATOM     20  C   UNL     1      11.541  14.675  17.614  0.00  0.00    +0.000 A 
ATOM     21  C   UNL     1      10.155  14.549  17.539  0.00  0.00    +0.000 A 
ATOM     22  C   UNL     1       9.561  13.284  17.627  0.00  0.00    +0.000 A 
ATOM     23 CL   UNL     1       7.834  13.188  17.553  0.00  0.00    +0.000 Cl
ENDBRANCH  15  17
ENDBRANCH   2  13
TORSDOF 5
ENDMDL
MODEL 7
REMARK VINA RESULT:      -7.2      1.651      2.157
REMARK  Name = 
REMARK  6 active torsions:
REMARK  status: ('A' for Active; 'I' for Inactive)
REMARK    1  A    between atoms: C_1  and  O_2
REMARK    2  A    between atoms: O_2  and  C_3
REMARK    3  A    between atoms: C_6  and  C_7
REMARK    4  A    between atoms: C_8  and  C_9
REMARK    5  A    between atoms: N_11  and  C_12
REMARK    6  A    between atoms: C_20  and  O_21
REMARK                            x       y       z     vdW  Elec       q    Type
REMARK                         _______ _______ _______ _____ _____    ______ ____
ROOT
ATOM      1  C   UNL     1       8.461   9.024  18.475  0.00  0.00    +0.000 C 
ATOM      2  C   UNL     1       7.776   8.409  17.498  0.00  0.00    +0.000 C 
ENDROOT
BRANCH   1   6
ATOM      3  C   UNL     1       9.972  13.025  18.156  0.00  0.00    +0.000 A 
ATOM      4  C   UNL     1      10.727  12.033  18.794  0.00  0.00    +0.000 A 
ATOM      5  C   UNL     1      10.251  10.726  18.914  0.00  0.00    +0.000 A 
ATOM      6  C   UNL     1       8.997  10.386  18.406  0.00  0.00    +0.000 A 
ATOM      7  C   UNL     1       8.245  11.369  17.748  0.00  0.00    +0.000 A 
ATOM      8  C   UNL     1       8.725  12.680  17.629  0.00  0.00    +0.000 A 
BRANCH   3  10
ATOM      9  C   UNL     1      11.389  14.562  17.000  0.00  0.00    +0.000 C 
ATOM     10  O   UNL     1      10.603  14.238  18.136  0.00  0.00    +0.000 OA
ENDBRANCH   3  10
BRANCH   8  11
ATOM     11  O   UNL     1       7.939  13.596  16.987  0.00  0.00    +0.000 OA
ATOM     12  H   UNL     1       7.279  13.130  16.447  0.00  0.00    +0.000 HD
ENDBRANCH   8  11
ENDBRANCH   1   6
BRANCH   2  13
ATOM     13  C   UNL     1       7.295   7.025  17.758  0.00  0.00    +0.000 C 
ATOM     14  O   UNL     1       8.086   6.150  18.087  0.00  0.00    +0.000 OA
ATOM     15  N   UNL     1       5.941   6.874  17.554  0.00  0.00    +0.000 N 
ATOM     16  H   UNL     1       5.420   7.633  17.129  0.00  0.00    +0.000 HD
BRANCH  15  17
ATOM     17  C   UNL     1       5.203   5.683  17.780  0.00  0.00    +0.000 A 
ATOM     18  C   UNL     1       4.701   5.343  19.041  0.00  0.00    +0.000 A 
ATOM     19  C   UNL     1       3.986   4.160  19.237  0.00  0.00    +0.000 A 
ATOM     20  C   UNL     1       3.751   3.301  18.170  0.00  0.00    +0.000 A 
ATOM     21  C   UNL     1       4.229   3.627  16.902  0.00  0.00    +0.000 A 
ATOM     22  C   UNL     1       4.946   4.813  16.707  0.00  0.00    +0.000 A 
ATOM     23 CL   UNL     1       5.537   5.156  15.116  0.00  0.00    +0.000 Cl
ENDBRANCH  15  17
ENDBRANCH   2  13
TORSDOF 5
ENDMDL
MODEL 8
REMARK VINA RESULT:      -7.2      1.004      1.561
REMARK  Name = 
REMARK  6 active torsions:
REMARK  status: ('A' for Active; 'I' for Inactive)
REMARK    1  A    between atoms: C_1  and  O_2
REMARK    2  A    between atoms: O_2  and  C_3
REMARK    3  A    between atoms: C_6  and  C_7
REMARK    4  A    between atoms: C_8  and  C_9
REMARK    5  A    between atoms: N_11  and  C_12
REMARK    6  A    between atoms: C_20  and  O_21
REMARK                            x       y       z     vdW  Elec       q    Type
REMARK                         _______ _______ _______ _____ _____    ______ ____
ROOT
ATOM      1  C   UNL     1       8.501   9.510  18.549  0.00  0.00    +0.000 C 
ATOM      2  C   UNL     1       8.132   8.782  17.482  0.00  0.00    +0.000 C 
ENDROOT
BRANCH   1   6
ATOM      3  C   UNL     1      10.398  13.355  18.522  0.00  0.00    +0.000 A 
ATOM      4  C   UNL     1       9.235  13.135  17.773  0.00  0.00    +0.000 A 
ATOM      5  C   UNL     1       8.605  11.889  17.763  0.00  0.00    +0.000 A 
ATOM      6  C   UNL     1       9.136  10.828  18.497  0.00  0.00    +0.000 A 
ATOM      7  C   UNL     1      10.289  11.047  19.265  0.00  0.00    +0.000 A 
ATOM      8  C   UNL     1      10.919  12.298  19.273  0.00  0.00    +0.000 A 
BRANCH   3  10
ATOM      9  C   UNL     1      10.126  15.674  19.028  0.00  0.00    +0.000 C 
ATOM     10  O   UNL     1      10.866  14.635  18.407  0.00  0.00    +0.000 OA
ENDBRANCH   3  10
BRANCH   8  11
ATOM     11  O   UNL     1      12.046  12.445  20.033  0.00  0.00    +0.000 OA
ATOM     12  H   UNL     1      12.640  13.083  19.605  0.00  0.00    +0.000 HD
ENDBRANCH   8  11
ENDBRANCH   1   6
BRANCH   2  13
ATOM     13  C   UNL     1       7.482   7.468  17.734  0.00  0.00    +0.000 C 
ATOM     14  O   UNL     1       7.925   6.717  18.595  0.00  0.00    +0.000 OA
ATOM     15  N   UNL     1       6.414   7.221  16.899  0.00  0.00    +0.000 N 
ATOM     16  H   UNL     1       6.243   7.849  16.122  0.00  0.00    +0.000 HD
BRANCH  15  17
ATOM     17  C   UNL     1       5.576   6.077  16.951  0.00  0.00    +0.000 A 
ATOM     18  C   UNL     1       6.021   4.807  16.566  0.00  0.00    +0.000 A 
ATOM     19  C   UNL     1       5.173   3.700  16.619  0.00  0.00    +0.000 A 
ATOM     20  C   UNL     1       3.866   3.843  17.069  0.00  0.00    +0.000 A 
ATOM     21  C   UNL     1       3.406   5.095  17.472  0.00  0.00    +0.000 A 
ATOM     22  C   UNL     1       4.257   6.205  17.418  0.00  0.00    +0.000 A 
ATOM     23 CL   UNL     1       3.626   7.741  17.907  0.00  0.00    +0.000 Cl
ENDBRANCH  15  17
ENDBRANCH   2  13
TORSDOF 5
ENDMDL
MODEL 9
REMARK VINA RESULT:      -7.1      1.344      2.082
REMARK  Name = 
REMARK  6 active torsions:
REMARK  status: ('A' for Active; 'I' for Inactive)
REMARK    1  A    between atoms: C_1  and  O_2
REMARK    2  A    between atoms: O_2  and  C_3
REMARK    3  A    between atoms: C_6  and  C_7
REMARK    4  A    between atoms: C_8  and  C_9
REMARK    5  A    between atoms: N_11  and  C_12
REMARK    6  A    between atoms: C_20  and  O_21
REMARK                            x       y       z     vdW  Elec       q    Type
REMARK                         _______ _______ _______ _____ _____    ______ ____
ROOT
ATOM      1  C   UNL     1       8.482   8.737  18.584  0.00  0.00    +0.000 C 
ATOM      2  C   UNL     1       7.693   8.446  17.537  0.00  0.00    +0.000 C 
ENDROOT
BRANCH   1   6
ATOM      3  C   UNL     1      10.335  12.523  19.370  0.00  0.00    +0.000 A 
ATOM      4  C   UNL     1      10.125  12.099  18.053  0.00  0.00    +0.000 A 
ATOM      5  C   UNL     1       9.529  10.868  17.774  0.00  0.00    +0.000 A 
ATOM      6  C   UNL     1       9.141  10.025  18.816  0.00  0.00    +0.000 A 
ATOM      7  C   UNL     1       9.329  10.452  20.138  0.00  0.00    +0.000 A 
ATOM      8  C   UNL     1       9.928  11.688  20.414  0.00  0.00    +0.000 A 
BRANCH   3  10
ATOM      9  C   UNL     1      11.244  14.413  18.225  0.00  0.00    +0.000 C 
ATOM     10  O   UNL     1      10.928  13.754  19.441  0.00  0.00    +0.000 OA
ENDBRANCH   3  10
BRANCH   8  11
ATOM     11  O   UNL     1      10.095  12.042  21.724  0.00  0.00    +0.000 OA
ATOM     12  H   UNL     1       9.226  12.113  22.150  0.00  0.00    +0.000 HD
ENDBRANCH   8  11
ENDBRANCH   1   6
BRANCH   2  13
ATOM     13  C   UNL     1       7.096   7.084  17.481  0.00  0.00    +0.000 C 
ATOM     14  O   UNL     1       7.815   6.094  17.540  0.00  0.00    +0.000 OA
ATOM     15  N   UNL     1       5.727   7.097  17.326  0.00  0.00    +0.000 N 
ATOM     16  H   UNL     1       5.264   7.977  17.130  0.00  0.00    +0.000 HD
BRANCH  15  17
ATOM     17  C   UNL     1       4.892   5.951  17.298  0.00  0.00    +0.000 A 
ATOM     18  C   UNL     1       5.339   4.711  16.827  0.00  0.00    +0.000 A 
ATOM     19  C   UNL     1       4.493   3.601  16.802  0.00  0.00    +0.000 A 
ATOM     20  C   UNL     1       3.185   3.710  17.260  0.00  0.00    +0.000 A 
ATOM     21  C   UNL     1       2.723   4.931  17.749  0.00  0.00    +0.000 A 
ATOM     22  C   UNL     1       3.572   6.043  17.772  0.00  0.00    +0.000 A 
ATOM     23 CL   UNL     1       2.937   7.541  18.366  0.00  0.00    +0.000 Cl
ENDBRANCH  15  17
ENDBRANCH   2  13
TORSDOF 5
ENDMDL
