MODEL 1
REMARK VINA RESULT:      -8.4      0.000      0.000
REMARK  Name = 
REMARK  11 active torsions:
REMARK  status: ('A' for Active; 'I' for Inactive)
REMARK    1  A    between atoms: C_2  and  C_3
REMARK    2  A    between atoms: C_3  and  C_4
REMARK    3  A    between atoms: C_4  and  C_5
REMARK    4  A    between atoms: C_7  and  C_8
REMARK    5  A    between atoms: C_11  and  O_12
REMARK    6  A    between atoms: N_17  and  C_18
REMARK    7  A    between atoms: N_20  and  C_21
REMARK    8  A    between atoms: C_21  and  C_22
REMARK    9  A    between atoms: C_22  and  N_23
REMARK   10  A    between atoms: C_30  and  C_31
REMARK   11  A    between atoms: C_31  and  O_33
REMARK                            x       y       z     vdW  Elec       q    Type
REMARK                         _______ _______ _______ _____ _____    ______ ____
ROOT
ATOM      1  O   UNL     1       7.318   5.813  19.399  0.00  0.00    +0.000 OA
ATOM      2  C   UNL     1       7.575   6.551  18.444  0.00  0.00    +0.000 C 
ATOM      3  N   UNL     1       7.072   6.428  17.154  0.00  0.00    +0.000 N 
ATOM      4  H   UNL     1       7.528   6.955  16.412  0.00  0.00    +0.000 HD
ENDROOT
BRANCH   3   5
ATOM      5  C   UNL     1       6.113   5.494  16.752  0.00  0.00    +0.000 A 
ATOM      6  C   UNL     1       4.942   5.214  17.429  0.00  0.00    +0.000 A 
ATOM      7  N   UNL     1       4.273   4.231  16.762  0.00  0.00    +0.000 N 
ATOM      8  C   UNL     1       5.002   3.840  15.683  0.00  0.00    +0.000 A 
ATOM      9  C   UNL     1       6.086   4.687  15.557  0.00  0.00    +0.000 A 
BRANCH   9  10
ATOM     10  C   UNL     1       6.892   4.729  14.353  0.00  0.00    +0.000 C 
ATOM     11  O   UNL     1       7.835   5.485  14.199  0.00  0.00    +0.000 OA
BRANCH  10  12
ATOM     12  O   UNL     1       6.494   3.869  13.364  0.00  0.00    +0.000 OA
ATOM     13  H   UNL     1       7.072   3.895  12.576  0.00  0.00    +0.000 HD
ENDBRANCH  10  12
ENDBRANCH   9  10
BRANCH   7  14
ATOM     14  C   UNL     1       2.940   3.743  17.077  0.00  0.00    +0.000 C 
BRANCH  14  15
ATOM     15  C   UNL     1       2.397   4.358  18.376  0.00  0.00    +0.000 C 
BRANCH  15  16
ATOM     16  N   UNL     1       1.490   3.489  19.136  0.00  0.00    +0.000 NA
ATOM     17  C   UNL     1       1.008   4.117  20.383  0.00  0.00    +0.000 C 
ATOM     18  C   UNL     1       2.108   4.288  21.442  0.00  0.00    +0.000 C 
ATOM     19  O   UNL     1       2.710   3.028  21.765  0.00  0.00    +0.000 OA
ATOM     20  C   UNL     1       3.247   2.393  20.598  0.00  0.00    +0.000 C 
ATOM     21  C   UNL     1       2.178   2.225  19.500  0.00  0.00    +0.000 C 
ENDBRANCH  15  16
ENDBRANCH  14  15
ENDBRANCH   7  14
ENDBRANCH   3   5
BRANCH   2  22
ATOM     22  C   UNL     1       8.535   7.711  18.643  0.00  0.00    +0.000 C 
BRANCH  22  23
ATOM     23  C   UNL     1       8.058   8.990  17.956  0.00  0.00    +0.000 C 
BRANCH  23  24
ATOM     24  C   UNL     1       8.770  10.198  18.442  0.00  0.00    +0.000 A 
ATOM     25  N   UNL     1       8.987  11.328  17.827  0.00  0.00    +0.000 NA
ATOM     26  C   UNL     1       9.772  12.020  18.733  0.00  0.00    +0.000 A 
ATOM     27  N   UNL     1       9.985  11.363  19.876  0.00  0.00    +0.000 NA
ATOM     28  O   UNL     1       9.319  10.146  19.690  0.00  0.00    +0.000 OA
BRANCH  26  29
ATOM     29  C   UNL     1      10.369  13.302  18.359  0.00  0.00    +0.000 A 
ATOM     30  C   UNL     1      10.174  14.401  19.198  0.00  0.00    +0.000 A 
ATOM     31  C   UNL     1      10.580  15.683  18.825  0.00  0.00    +0.000 A 
ATOM     32  C   UNL     1      11.181  15.871  17.594  0.00  0.00    +0.000 A 
ATOM     33  C   UNL     1      11.461  14.785  16.775  0.00  0.00    +0.000 A 
ATOM     34  C   UNL     1      11.057  13.495  17.156  0.00  0.00    +0.000 A 
BRANCH  32  35
ATOM     35  O   UNL     1      11.487  17.124  17.154  0.00  0.00    +0.000 OA
ATOM     36  H   UNL     1      11.447  17.727  17.918  0.00  0.00    +0.000 HD
ENDBRANCH  32  35
ENDBRANCH  26  29
ENDBRANCH  23  24
ENDBRANCH  22  23
ENDBRANCH   2  22
TORSDOF 11
ENDMDL
MODEL 2
REMARK VINA RESULT:      -8.3      6.023     10.160
REMARK  Name = 
REMARK  11 active torsions:
REMARK  status: ('A' for Active; 'I' for Inactive)
REMARK    1  A    between atoms: C_2  and  C_3
REMARK    2  A    between atoms: C_3  and  C_4
REMARK    3  A    between atoms: C_4  and  C_5
REMARK    4  A    between atoms: C_7  and  C_8
REMARK    5  A    between atoms: C_11  and  O_12
REMARK    6  A    between atoms: N_17  and  C_18
REMARK    7  A    between atoms: N_20  and  C_21
REMARK    8  A    between atoms: C_21  and  C_22
REMARK    9  A    between atoms: C_22  and  N_23
REMARK   10  A    between atoms: C_30  and  C_31
REMARK   11  A    between atoms: C_31  and  O_33
REMARK                            x       y       z     vdW  Elec       q    Type
REMARK                         _______ _______ _______ _____ _____    ______ ____
ROOT
ATOM      1  O   UNL     1       2.224   7.577  19.212  0.00  0.00    +0.000 OA
ATOM      2  C   UNL     1       1.770   7.277  20.319  0.00  0.00    +0.000 C 
ATOM      3  N   UNL     1       0.982   8.085  21.130  0.00  0.00    +0.000 N 
ATOM      4  H   UNL     1       0.861   7.811  22.103  0.00  0.00    +0.000 HD
ENDROOT
BRANCH   3   5
ATOM      5  C   UNL     1       0.498   9.348  20.777  0.00  0.00    +0.000 A 
ATOM      6  C   UNL     1       0.441   9.846  19.489  0.00  0.00    +0.000 A 
ATOM      7  N   UNL     1      -0.056  11.116  19.532  0.00  0.00    +0.000 N 
ATOM      8  C   UNL     1      -0.290  11.467  20.824  0.00  0.00    +0.000 A 
ATOM      9  C   UNL     1      -0.091  10.357  21.622  0.00  0.00    +0.000 A 
BRANCH   9  10
ATOM     10  C   UNL     1      -0.538  10.312  23.000  0.00  0.00    +0.000 C 
ATOM     11  O   UNL     1      -1.568  10.833  23.392  0.00  0.00    +0.000 OA
BRANCH  10  12
ATOM     12  O   UNL     1       0.307   9.660  23.858  0.00  0.00    +0.000 OA
ATOM     13  H   UNL     1      -0.153   9.266  24.626  0.00  0.00    +0.000 HD
ENDBRANCH  10  12
ENDBRANCH   9  10
BRANCH   7  14
ATOM     14  C   UNL     1      -0.392  11.937  18.380  0.00  0.00    +0.000 C 
BRANCH  14  15
ATOM     15  C   UNL     1      -1.909  12.013  18.154  0.00  0.00    +0.000 C 
BRANCH  15  16
ATOM     16  N   UNL     1      -2.580  10.712  18.038  0.00  0.00    +0.000 NA
ATOM     17  C   UNL     1      -2.203   9.982  16.811  0.00  0.00    +0.000 C 
ATOM     18  C   UNL     1      -2.740  10.634  15.527  0.00  0.00    +0.000 C 
ATOM     19  O   UNL     1      -4.167  10.756  15.570  0.00  0.00    +0.000 OA
ATOM     20  C   UNL     1      -4.591  11.505  16.715  0.00  0.00    +0.000 C 
ATOM     21  C   UNL     1      -4.053  10.896  18.024  0.00  0.00    +0.000 C 
ENDBRANCH  15  16
ENDBRANCH  14  15
ENDBRANCH   7  14
ENDBRANCH   3   5
BRANCH   2  22
ATOM     22  C   UNL     1       2.081   5.908  20.899  0.00  0.00    +0.000 C 
BRANCH  22  23
ATOM     23  C   UNL     1       1.420   4.775  20.114  0.00  0.00    +0.000 C 
BRANCH  23  24
ATOM     24  C   UNL     1       2.212   4.364  18.928  0.00  0.00    +0.000 A 
ATOM     25  N   UNL     1       3.449   4.648  18.626  0.00  0.00    +0.000 NA
ATOM     26  C   UNL     1       3.594   4.075  17.375  0.00  0.00    +0.000 A 
ATOM     27  N   UNL     1       2.509   3.424  16.950  0.00  0.00    +0.000 NA
ATOM     28  O   UNL     1       1.581   3.611  17.981  0.00  0.00    +0.000 OA
BRANCH  26  29
ATOM     29  C   UNL     1       4.816   4.297  16.602  0.00  0.00    +0.000 A 
ATOM     30  C   UNL     1       5.725   5.260  17.047  0.00  0.00    +0.000 A 
ATOM     31  C   UNL     1       6.827   5.631  16.277  0.00  0.00    +0.000 A 
ATOM     32  C   UNL     1       7.021   5.038  15.043  0.00  0.00    +0.000 A 
ATOM     33  C   UNL     1       6.181   4.020  14.611  0.00  0.00    +0.000 A 
ATOM     34  C   UNL     1       5.075   3.644  15.392  0.00  0.00    +0.000 A 
BRANCH  32  35
ATOM     35  O   UNL     1       8.024   5.458  14.220  0.00  0.00    +0.000 OA
ATOM     36  H   UNL     1       7.884   6.404  14.037  0.00  0.00    +0.000 HD
ENDBRANCH  32  35
ENDBRANCH  26  29
ENDBRANCH  23  24
ENDBRANCH  22  23
ENDBRANCH   2  22
TORSDOF 11
ENDMDL
MODEL 3
REMARK VINA RESULT:      -8.2      1.550      1.742
REMARK  Name = 
REMARK  11 active torsions:
REMARK  status: ('A' for Active; 'I' for Inactive)
REMARK    1  A    between atoms: C_2  and  C_3
REMARK    2  A    between atoms: C_3  and  C_4
REMARK    3  A    between atoms: C_4  and  C_5
REMARK    4  A    between atoms: C_7  and  C_8
REMARK    5  A    between atoms: C_11  and  O_12
REMARK    6  A    between atoms: N_17  and  C_18
REMARK    7  A    between atoms: N_20  and  C_21
REMARK    8  A    between atoms: C_21  and  C_22
REMARK    9  A    between atoms: C_22  and  N_23
REMARK   10  A    between atoms: C_30  and  C_31
REMARK   11  A    between atoms: C_31  and  O_33
REMARK                            x       y       z     vdW  Elec       q    Type
REMARK                         _______ _______ _______ _____ _____    ______ ____
ROOT
ATOM      1  O   UNL     1       8.006   6.828  18.458  0.00  0.00    +0.000 OA
ATOM      2  C   UNL     1       7.484   7.749  17.824  0.00  0.00    +0.000 C 
ATOM      3  N   UNL     1       6.294   7.683  17.108  0.00  0.00    +0.000 N 
ATOM      4  H   UNL     1       6.089   8.434  16.453  0.00  0.00    +0.000 HD
ENDROOT
BRANCH   3   5
ATOM      5  C   UNL     1       5.444   6.575  17.067  0.00  0.00    +0.000 A 
ATOM      6  C   UNL     1       4.150   6.546  17.552  0.00  0.00    +0.000 A 
ATOM      7  N   UNL     1       3.641   5.294  17.370  0.00  0.00    +0.000 N 
ATOM      8  C   UNL     1       4.589   4.497  16.808  0.00  0.00    +0.000 A 
ATOM      9  C   UNL     1       5.677   5.279  16.476  0.00  0.00    +0.000 A 
BRANCH   9  10
ATOM     10  C   UNL     1       6.729   4.800  15.602  0.00  0.00    +0.000 C 
ATOM     11  O   UNL     1       7.546   5.530  15.066  0.00  0.00    +0.000 OA
BRANCH  10  12
ATOM     12  O   UNL     1       6.725   3.448  15.384  0.00  0.00    +0.000 OA
ATOM     13  H   UNL     1       5.952   2.997  15.775  0.00  0.00    +0.000 HD
ENDBRANCH  10  12
ENDBRANCH   9  10
BRANCH   7  14
ATOM     14  C   UNL     1       2.269   4.887  17.628  0.00  0.00    +0.000 C 
BRANCH  14  15
ATOM     15  C   UNL     1       2.024   4.614  19.120  0.00  0.00    +0.000 C 
BRANCH  15  16
ATOM     16  N   UNL     1       1.604   3.242  19.434  0.00  0.00    +0.000 NA
ATOM     17  C   UNL     1       1.113   3.098  20.819  0.00  0.00    +0.000 C 
ATOM     18  C   UNL     1       2.218   3.249  21.876  0.00  0.00    +0.000 C 
ATOM     19  O   UNL     1       3.269   2.299  21.658  0.00  0.00    +0.000 OA
ATOM     20  C   UNL     1       3.825   2.429  20.345  0.00  0.00    +0.000 C 
ATOM     21  C   UNL     1       2.742   2.306  19.255  0.00  0.00    +0.000 C 
ENDBRANCH  15  16
ENDBRANCH  14  15
ENDBRANCH   7  14
ENDBRANCH   3   5
BRANCH   2  22
ATOM     22  C   UNL     1       8.174   9.102  17.784  0.00  0.00    +0.000 C 
BRANCH  22  23
ATOM     23  C   UNL     1       9.150   9.296  18.943  0.00  0.00    +0.000 C 
BRANCH  23  24
ATOM     24  C   UNL     1       9.509  10.721  19.155  0.00  0.00    +0.000 A 
ATOM     25  N   UNL     1       8.766  11.785  19.020  0.00  0.00    +0.000 NA
ATOM     26  C   UNL     1       9.662  12.812  19.256  0.00  0.00    +0.000 A 
ATOM     27  N   UNL     1      10.891  12.395  19.573  0.00  0.00    +0.000 NA
ATOM     28  O   UNL     1      10.796  10.999  19.509  0.00  0.00    +0.000 OA
BRANCH  26  29
ATOM     29  C   UNL     1       9.258  14.202  19.052  0.00  0.00    +0.000 A 
ATOM     30  C   UNL     1       8.439  14.810  20.007  0.00  0.00    +0.000 A 
ATOM     31  C   UNL     1       7.891  16.075  19.797  0.00  0.00    +0.000 A 
ATOM     32  C   UNL     1       8.156  16.740  18.615  0.00  0.00    +0.000 A 
ATOM     33  C   UNL     1       9.031  16.197  17.683  0.00  0.00    +0.000 A 
ATOM     34  C   UNL     1       9.588  14.926  17.900  0.00  0.00    +0.000 A 
BRANCH  32  35
ATOM     35  O   UNL     1       7.546  17.926  18.333  0.00  0.00    +0.000 OA
ATOM     36  H   UNL     1       6.746  17.736  17.813  0.00  0.00    +0.000 HD
ENDBRANCH  32  35
ENDBRANCH  26  29
ENDBRANCH  23  24
ENDBRANCH  22  23
ENDBRANCH   2  22
TORSDOF 11
ENDMDL
MODEL 4
REMARK VINA RESULT:      -8.1      0.781      1.422
REMARK  Name = 
REMARK  11 active torsions:
REMARK  status: ('A' for Active; 'I' for Inactive)
REMARK    1  A    between atoms: C_2  and  C_3
REMARK    2  A    between atoms: C_3  and  C_4
REMARK    3  A    between atoms: C_4  and  C_5
REMARK    4  A    between atoms: C_7  and  C_8
REMARK    5  A    between atoms: C_11  and  O_12
REMARK    6  A    between atoms: N_17  and  C_18
REMARK    7  A    between atoms: N_20  and  C_21
REMARK    8  A    between atoms: C_21  and  C_22
REMARK    9  A    between atoms: C_22  and  N_23
REMARK   10  A    between atoms: C_30  and  C_31
REMARK   11  A    between atoms: C_31  and  O_33
REMARK                            x       y       z     vdW  Elec       q    Type
REMARK                         _______ _______ _______ _____ _____    ______ ____
ROOT
ATOM      1  O   UNL     1       7.835   5.207  19.011  0.00  0.00    +0.000 OA
ATOM      2  C   UNL     1       7.664   6.213  18.317  0.00  0.00    +0.000 C 
ATOM      3  N   UNL     1       6.828   6.314  17.211  0.00  0.00    +0.000 N 
ATOM      4  H   UNL     1       6.944   7.118  16.597  0.00  0.00    +0.000 HD
ENDROOT
BRANCH   3   5
ATOM      5  C   UNL     1       5.970   5.308  16.758  0.00  0.00    +0.000 A 
ATOM      6  C   UNL     1       4.829   4.882  17.411  0.00  0.00    +0.000 A 
ATOM      7  N   UNL     1       4.266   3.868  16.695  0.00  0.00    +0.000 N 
ATOM      8  C   UNL     1       5.036   3.600  15.606  0.00  0.00    +0.000 A 
ATOM      9  C   UNL     1       6.030   4.556  15.528  0.00  0.00    +0.000 A 
BRANCH   9  10
ATOM     10  C   UNL     1       6.833   4.734  14.335  0.00  0.00    +0.000 C 
ATOM     11  O   UNL     1       6.626   4.143  13.289  0.00  0.00    +0.000 OA
BRANCH  10  12
ATOM     12  O   UNL     1       7.884   5.601  14.472  0.00  0.00    +0.000 OA
ATOM     13  H   UNL     1       8.136   5.757  15.403  0.00  0.00    +0.000 HD
ENDBRANCH  10  12
ENDBRANCH   9  10
BRANCH   7  14
ATOM     14  C   UNL     1       2.987   3.235  16.974  0.00  0.00    +0.000 C 
BRANCH  14  15
ATOM     15  C   UNL     1       2.909   2.715  18.418  0.00  0.00    +0.000 C 
BRANCH  15  16
ATOM     16  N   UNL     1       2.881   3.761  19.449  0.00  0.00    +0.000 NA
ATOM     17  C   UNL     1       3.383   3.289  20.755  0.00  0.00    +0.000 C 
ATOM     18  C   UNL     1       2.452   2.272  21.433  0.00  0.00    +0.000 C 
ATOM     19  O   UNL     1       1.139   2.818  21.613  0.00  0.00    +0.000 OA
ATOM     20  C   UNL     1       0.576   3.244  20.367  0.00  0.00    +0.000 C 
ATOM     21  C   UNL     1       1.493   4.250  19.644  0.00  0.00    +0.000 C 
ENDBRANCH  15  16
ENDBRANCH  14  15
ENDBRANCH   7  14
ENDBRANCH   3   5
BRANCH   2  22
ATOM     22  C   UNL     1       8.423   7.483  18.657  0.00  0.00    +0.000 C 
BRANCH  22  23
ATOM     23  C   UNL     1       7.912   8.697  17.881  0.00  0.00    +0.000 C 
BRANCH  23  24
ATOM     24  C   UNL     1       8.604   9.952  18.265  0.00  0.00    +0.000 A 
ATOM     25  N   UNL     1       8.625  11.102  17.648  0.00  0.00    +0.000 NA
ATOM     26  C   UNL     1       9.499  11.844  18.422  0.00  0.00    +0.000 A 
ATOM     27  N   UNL     1       9.954  11.196  19.497  0.00  0.00    +0.000 NA
ATOM     28  O   UNL     1       9.360   9.932  19.400  0.00  0.00    +0.000 OA
BRANCH  26  29
ATOM     29  C   UNL     1       9.923  13.173  17.982  0.00  0.00    +0.000 A 
ATOM     30  C   UNL     1      11.093  13.287  17.228  0.00  0.00    +0.000 A 
ATOM     31  C   UNL     1      11.637  14.533  16.911  0.00  0.00    +0.000 A 
ATOM     32  C   UNL     1      11.009  15.680  17.360  0.00  0.00    +0.000 A 
ATOM     33  C   UNL     1       9.801  15.599  18.042  0.00  0.00    +0.000 A 
ATOM     34  C   UNL     1       9.252  14.344  18.353  0.00  0.00    +0.000 A 
BRANCH  32  35
ATOM     35  O   UNL     1      11.573  16.904  17.163  0.00  0.00    +0.000 OA
ATOM     36  H   UNL     1      12.009  16.896  16.293  0.00  0.00    +0.000 HD
ENDBRANCH  32  35
ENDBRANCH  26  29
ENDBRANCH  23  24
ENDBRANCH  22  23
ENDBRANCH   2  22
TORSDOF 11
ENDMDL
MODEL 5
REMARK VINA RESULT:      -8.0      1.555      2.145
REMARK  Name = 
REMARK  11 active torsions:
REMARK  status: ('A' for Active; 'I' for Inactive)
REMARK    1  A    between atoms: C_2  and  C_3
REMARK    2  A    between atoms: C_3  and  C_4
REMARK    3  A    between atoms: C_4  and  C_5
REMARK    4  A    between atoms: C_7  and  C_8
REMARK    5  A    between atoms: C_11  and  O_12
REMARK    6  A    between atoms: N_17  and  C_18
REMARK    7  A    between atoms: N_20  and  C_21
REMARK    8  A    between atoms: C_21  and  C_22
REMARK    9  A    between atoms: C_22  and  N_23
REMARK   10  A    between atoms: C_30  and  C_31
REMARK   11  A    between atoms: C_31  and  O_33
REMARK                            x       y       z     vdW  Elec       q    Type
REMARK                         _______ _______ _______ _____ _____    ______ ____
ROOT
ATOM      1  O   UNL     1       7.954   6.952  18.650  0.00  0.00    +0.000 OA
ATOM      2  C   UNL     1       7.644   7.744  17.756  0.00  0.00    +0.000 C 
ATOM      3  N   UNL     1       6.640   7.563  16.812  0.00  0.00    +0.000 N 
ATOM      4  H   UNL     1       6.632   8.178  16.001  0.00  0.00    +0.000 HD
ENDROOT
BRANCH   3   5
ATOM      5  C   UNL     1       5.753   6.484  16.780  0.00  0.00    +0.000 A 
ATOM      6  C   UNL     1       4.577   6.399  17.500  0.00  0.00    +0.000 A 
ATOM      7  N   UNL     1       3.991   5.195  17.245  0.00  0.00    +0.000 N 
ATOM      8  C   UNL     1       4.780   4.478  16.399  0.00  0.00    +0.000 A 
ATOM      9  C   UNL     1       5.816   5.288  15.975  0.00  0.00    +0.000 A 
BRANCH   9  10
ATOM     10  C   UNL     1       6.659   4.931  14.852  0.00  0.00    +0.000 C 
ATOM     11  O   UNL     1       6.376   4.062  14.046  0.00  0.00    +0.000 OA
BRANCH  10  12
ATOM     12  O   UNL     1       7.836   5.627  14.773  0.00  0.00    +0.000 OA
ATOM     13  H   UNL     1       8.624   5.068  14.921  0.00  0.00    +0.000 HD
ENDBRANCH  10  12
ENDBRANCH   9  10
BRANCH   7  14
ATOM     14  C   UNL     1       2.679   4.771  17.706  0.00  0.00    +0.000 C 
BRANCH  14  15
ATOM     15  C   UNL     1       2.640   4.585  19.230  0.00  0.00    +0.000 C 
BRANCH  15  16
ATOM     16  N   UNL     1       2.078   3.305  19.681  0.00  0.00    +0.000 NA
ATOM     17  C   UNL     1       2.835   2.712  20.802  0.00  0.00    +0.000 C 
ATOM     18  C   UNL     1       4.234   2.221  20.400  0.00  0.00    +0.000 C 
ATOM     19  O   UNL     1       4.156   1.262  19.338  0.00  0.00    +0.000 OA
ATOM     20  C   UNL     1       3.479   1.801  18.197  0.00  0.00    +0.000 C 
ATOM     21  C   UNL     1       2.077   2.326  18.565  0.00  0.00    +0.000 C 
ENDBRANCH  15  16
ENDBRANCH  14  15
ENDBRANCH   7  14
ENDBRANCH   3   5
BRANCH   2  22
ATOM     22  C   UNL     1       8.407   9.051  17.629  0.00  0.00    +0.000 C 
BRANCH  22  23
ATOM     23  C   UNL     1       8.908   9.570  18.975  0.00  0.00    +0.000 C 
BRANCH  23  24
ATOM     24  C   UNL     1       9.529  10.915  18.873  0.00  0.00    +0.000 A 
ATOM     25  N   UNL     1       9.520  11.893  19.737  0.00  0.00    +0.000 NA
ATOM     26  C   UNL     1      10.169  12.906  19.054  0.00  0.00    +0.000 A 
ATOM     27  N   UNL     1      10.604  12.549  17.843  0.00  0.00    +0.000 NA
ATOM     28  O   UNL     1      10.181  11.220  17.715  0.00  0.00    +0.000 OA
BRANCH  26  29
ATOM     29  C   UNL     1      10.239  14.250  19.625  0.00  0.00    +0.000 A 
ATOM     30  C   UNL     1      10.076  15.348  18.778  0.00  0.00    +0.000 A 
ATOM     31  C   UNL     1      10.287  16.652  19.227  0.00  0.00    +0.000 A 
ATOM     32  C   UNL     1      10.674  16.863  20.538  0.00  0.00    +0.000 A 
ATOM     33  C   UNL     1      10.764  15.797  21.424  0.00  0.00    +0.000 A 
ATOM     34  C   UNL     1      10.545  14.486  20.971  0.00  0.00    +0.000 A 
BRANCH  32  35
ATOM     35  O   UNL     1      10.995  18.113  20.975  0.00  0.00    +0.000 OA
ATOM     36  H   UNL     1      10.222  18.473  21.445  0.00  0.00    +0.000 HD
ENDBRANCH  32  35
ENDBRANCH  26  29
ENDBRANCH  23  24
ENDBRANCH  22  23
ENDBRANCH   2  22
TORSDOF 11
ENDMDL
MODEL 6
REMARK VINA RESULT:      -7.8      0.987      1.247
REMARK  Name = 
REMARK  11 active torsions:
REMARK  status: ('A' for Active; 'I' for Inactive)
REMARK    1  A    between atoms: C_2  and  C_3
REMARK    2  A    between atoms: C_3  and  C_4
REMARK    3  A    between atoms: C_4  and  C_5
REMARK    4  A    between atoms: C_7  and  C_8
REMARK    5  A    between atoms: C_11  and  O_12
REMARK    6  A    between atoms: N_17  and  C_18
REMARK    7  A    between atoms: N_20  and  C_21
REMARK    8  A    between atoms: C_21  and  C_22
REMARK    9  A    between atoms: C_22  and  N_23
REMARK   10  A    between atoms: C_30  and  C_31
REMARK   11  A    between atoms: C_31  and  O_33
REMARK                            x       y       z     vdW  Elec       q    Type
REMARK                         _______ _______ _______ _____ _____    ______ ____
ROOT
ATOM      1  O   UNL     1       7.826   6.391  18.461  0.00  0.00    +0.000 OA
ATOM      2  C   UNL     1       7.358   7.272  17.735  0.00  0.00    +0.000 C 
ATOM      3  N   UNL     1       6.328   7.116  16.814  0.00  0.00    +0.000 N 
ATOM      4  H   UNL     1       6.188   7.853  16.126  0.00  0.00    +0.000 HD
ENDROOT
BRANCH   3   5
ATOM      5  C   UNL     1       5.589   5.946  16.629  0.00  0.00    +0.000 A 
ATOM      6  C   UNL     1       4.414   5.633  17.287  0.00  0.00    +0.000 A 
ATOM      7  N   UNL     1       3.995   4.402  16.877  0.00  0.00    +0.000 N 
ATOM      8  C   UNL     1       4.892   3.890  15.991  0.00  0.00    +0.000 A 
ATOM      9  C   UNL     1       5.826   4.866  15.701  0.00  0.00    +0.000 A 
BRANCH   9  10
ATOM     10  C   UNL     1       6.738   4.748  14.582  0.00  0.00    +0.000 C 
ATOM     11  O   UNL     1       6.544   4.012  13.629  0.00  0.00    +0.000 OA
BRANCH  10  12
ATOM     12  O   UNL     1       7.874   5.507  14.681  0.00  0.00    +0.000 OA
ATOM     13  H   UNL     1       8.154   5.661  15.604  0.00  0.00    +0.000 HD
ENDBRANCH  10  12
ENDBRANCH   9  10
BRANCH   7  14
ATOM     14  C   UNL     1       2.737   3.767  17.234  0.00  0.00    +0.000 C 
BRANCH  14  15
ATOM     15  C   UNL     1       2.951   2.370  17.835  0.00  0.00    +0.000 C 
BRANCH  15  16
ATOM     16  N   UNL     1       2.066   2.041  18.960  0.00  0.00    +0.000 NA
ATOM     17  C   UNL     1       0.920   2.966  19.075  0.00  0.00    +0.000 C 
ATOM     18  C   UNL     1       1.323   4.385  19.504  0.00  0.00    +0.000 C 
ATOM     19  O   UNL     1       2.024   4.363  20.754  0.00  0.00    +0.000 OA
ATOM     20  C   UNL     1       3.182   3.523  20.688  0.00  0.00    +0.000 C 
ATOM     21  C   UNL     1       2.822   2.094  20.237  0.00  0.00    +0.000 C 
ENDBRANCH  15  16
ENDBRANCH  14  15
ENDBRANCH   7  14
ENDBRANCH   3   5
BRANCH   2  22
ATOM     22  C   UNL     1       7.936   8.675  17.809  0.00  0.00    +0.000 C 
BRANCH  22  23
ATOM     23  C   UNL     1       8.946   8.833  18.944  0.00  0.00    +0.000 C 
BRANCH  23  24
ATOM     24  C   UNL     1       9.317  10.250  19.186  0.00  0.00    +0.000 A 
ATOM     25  N   UNL     1       9.801  11.127  18.351  0.00  0.00    +0.000 NA
ATOM     26  C   UNL     1      10.031  12.223  19.163  0.00  0.00    +0.000 A 
ATOM     27  N   UNL     1       9.656  12.044  20.432  0.00  0.00    +0.000 NA
ATOM     28  O   UNL     1       9.177  10.729  20.455  0.00  0.00    +0.000 OA
BRANCH  26  29
ATOM     29  C   UNL     1      10.725  13.397  18.634  0.00  0.00    +0.000 A 
ATOM     30  C   UNL     1      11.652  14.052  19.449  0.00  0.00    +0.000 A 
ATOM     31  C   UNL     1      12.230  15.262  19.067  0.00  0.00    +0.000 A 
ATOM     32  C   UNL     1      11.872  15.833  17.859  0.00  0.00    +0.000 A 
ATOM     33  C   UNL     1      11.016  15.165  16.992  0.00  0.00    +0.000 A 
ATOM     34  C   UNL     1      10.441  13.942  17.377  0.00  0.00    +0.000 A 
BRANCH  32  35
ATOM     35  O   UNL     1      12.333  17.066  17.509  0.00  0.00    +0.000 OA
ATOM     36  H   UNL     1      11.657  17.721  17.759  0.00  0.00    +0.000 HD
ENDBRANCH  32  35
ENDBRANCH  26  29
ENDBRANCH  23  24
ENDBRANCH  22  23
ENDBRANCH   2  22
TORSDOF 11
ENDMDL
MODEL 7
REMARK VINA RESULT:      -7.8      1.545      2.155
REMARK  Name = 
REMARK  11 active torsions:
REMARK  status: ('A' for Active; 'I' for Inactive)
REMARK    1  A    between atoms: C_2  and  C_3
REMARK    2  A    between atoms: C_3  and  C_4
REMARK    3  A    between atoms: C_4  and  C_5
REMARK    4  A    between atoms: C_7  and  C_8
REMARK    5  A    between atoms: C_11  and  O_12
REMARK    6  A    between atoms: N_17  and  C_18
REMARK    7  A    between atoms: N_20  and  C_21
REMARK    8  A    between atoms: C_21  and  C_22
REMARK    9  A    between atoms: C_22  and  N_23
REMARK   10  A    between atoms: C_30  and  C_31
REMARK   11  A    between atoms: C_31  and  O_33
REMARK                            x       y       z     vdW  Elec       q    Type
REMARK                         _______ _______ _______ _____ _____    ______ ____
ROOT
ATOM      1  O   UNL     1       8.085   7.006  18.633  0.00  0.00    +0.000 OA
ATOM      2  C   UNL     1       7.742   7.811  17.763  0.00  0.00    +0.000 C 
ATOM      3  N   UNL     1       6.678   7.663  16.880  0.00  0.00    +0.000 N 
ATOM      4  H   UNL     1       6.638   8.282  16.073  0.00  0.00    +0.000 HD
ENDROOT
BRANCH   3   5
ATOM      5  C   UNL     1       5.762   6.608  16.898  0.00  0.00    +0.000 A 
ATOM      6  C   UNL     1       4.544   6.624  17.551  0.00  0.00    +0.000 A 
ATOM      7  N   UNL     1       3.937   5.415  17.377  0.00  0.00    +0.000 N 
ATOM      8  C   UNL     1       4.751   4.600  16.654  0.00  0.00    +0.000 A 
ATOM      9  C   UNL     1       5.834   5.338  16.218  0.00  0.00    +0.000 A 
BRANCH   9  10
ATOM     10  C   UNL     1       6.730   4.852  15.187  0.00  0.00    +0.000 C 
ATOM     11  O   UNL     1       6.614   3.763  14.652  0.00  0.00    +0.000 OA
BRANCH  10  12
ATOM     12  O   UNL     1       7.757   5.701  14.870  0.00  0.00    +0.000 OA
ATOM     13  H   UNL     1       7.641   6.140  14.005  0.00  0.00    +0.000 HD
ENDBRANCH  10  12
ENDBRANCH   9  10
BRANCH   7  14
ATOM     14  C   UNL     1       2.588   5.071  17.796  0.00  0.00    +0.000 C 
BRANCH  14  15
ATOM     15  C   UNL     1       2.408   5.207  19.316  0.00  0.00    +0.000 C 
BRANCH  15  16
ATOM     16  N   UNL     1       3.164   4.233  20.115  0.00  0.00    +0.000 NA
ATOM     17  C   UNL     1       3.322   2.933  19.432  0.00  0.00    +0.000 C 
ATOM     18  C   UNL     1       2.005   2.152  19.301  0.00  0.00    +0.000 C 
ATOM     19  O   UNL     1       1.410   1.929  20.585  0.00  0.00    +0.000 OA
ATOM     20  C   UNL     1       1.181   3.163  21.275  0.00  0.00    +0.000 C 
ATOM     21  C   UNL     1       2.476   3.988  21.407  0.00  0.00    +0.000 C 
ENDBRANCH  15  16
ENDBRANCH  14  15
ENDBRANCH   7  14
ENDBRANCH   3   5
BRANCH   2  22
ATOM     22  C   UNL     1       8.532   9.097  17.594  0.00  0.00    +0.000 C 
BRANCH  22  23
ATOM     23  C   UNL     1       8.939   9.715  18.931  0.00  0.00    +0.000 C 
BRANCH  23  24
ATOM     24  C   UNL     1       9.592  11.038  18.773  0.00  0.00    +0.000 A 
ATOM     25  N   UNL     1       9.520  12.088  19.544  0.00  0.00    +0.000 NA
ATOM     26  C   UNL     1      10.250  13.030  18.842  0.00  0.00    +0.000 A 
ATOM     27  N   UNL     1      10.791  12.563  17.714  0.00  0.00    +0.000 NA
ATOM     28  O   UNL     1      10.357  11.233  17.661  0.00  0.00    +0.000 OA
BRANCH  26  29
ATOM     29  C   UNL     1      10.292  14.419  19.299  0.00  0.00    +0.000 A 
ATOM     30  C   UNL     1      10.932  14.708  20.506  0.00  0.00    +0.000 A 
ATOM     31  C   UNL     1      10.871  15.981  21.075  0.00  0.00    +0.000 A 
ATOM     32  C   UNL     1      10.156  16.976  20.435  0.00  0.00    +0.000 A 
ATOM     33  C   UNL     1       9.578  16.739  19.194  0.00  0.00    +0.000 A 
ATOM     34  C   UNL     1       9.646  15.459  18.620  0.00  0.00    +0.000 A 
BRANCH  32  35
ATOM     35  O   UNL     1       9.985  18.195  21.020  0.00  0.00    +0.000 OA
ATOM     36  H   UNL     1       9.434  18.073  21.812  0.00  0.00    +0.000 HD
ENDBRANCH  32  35
ENDBRANCH  26  29
ENDBRANCH  23  24
ENDBRANCH  22  23
ENDBRANCH   2  22
TORSDOF 11
ENDMDL
MODEL 8
REMARK VINA RESULT:      -7.8      1.181      1.675
REMARK  Name = 
REMARK  11 active torsions:
REMARK  status: ('A' for Active; 'I' for Inactive)
REMARK    1  A    between atoms: C_2  and  C_3
REMARK    2  A    between atoms: C_3  and  C_4
REMARK    3  A    between atoms: C_4  and  C_5
REMARK    4  A    between atoms: C_7  and  C_8
REMARK    5  A    between atoms: C_11  and  O_12
REMARK    6  A    between atoms: N_17  and  C_18
REMARK    7  A    between atoms: N_20  and  C_21
REMARK    8  A    between atoms: C_21  and  C_22
REMARK    9  A    between atoms: C_22  and  N_23
REMARK   10  A    between atoms: C_30  and  C_31
REMARK   11  A    between atoms: C_31  and  O_33
REMARK                            x       y       z     vdW  Elec       q    Type
REMARK                         _______ _______ _______ _____ _____    ______ ____
ROOT
ATOM      1  O   UNL     1       5.827   7.558  17.625  0.00  0.00    +0.000 OA
ATOM      2  C   UNL     1       6.933   7.029  17.762  0.00  0.00    +0.000 C 
ATOM      3  N   UNL     1       7.223   5.679  17.603  0.00  0.00    +0.000 N 
ATOM      4  H   UNL     1       8.113   5.338  17.959  0.00  0.00    +0.000 HD
ENDROOT
BRANCH   3   5
ATOM      5  C   UNL     1       6.316   4.709  17.169  0.00  0.00    +0.000 A 
ATOM      6  C   UNL     1       5.305   4.164  17.938  0.00  0.00    +0.000 A 
ATOM      7  N   UNL     1       4.644   3.230  17.196  0.00  0.00    +0.000 N 
ATOM      8  C   UNL     1       5.227   3.130  15.971  0.00  0.00    +0.000 A 
ATOM      9  C   UNL     1       6.181   4.122  15.858  0.00  0.00    +0.000 A 
BRANCH   9  10
ATOM     10  C   UNL     1       6.773   4.477  14.584  0.00  0.00    +0.000 C 
ATOM     11  O   UNL     1       6.476   3.941  13.530  0.00  0.00    +0.000 OA
BRANCH  10  12
ATOM     12  O   UNL     1       7.733   5.452  14.646  0.00  0.00    +0.000 OA
ATOM     13  H   UNL     1       7.474   6.277  14.191  0.00  0.00    +0.000 HD
ENDBRANCH  10  12
ENDBRANCH   9  10
BRANCH   7  14
ATOM     14  C   UNL     1       3.438   2.523  17.595  0.00  0.00    +0.000 C 
BRANCH  14  15
ATOM     15  C   UNL     1       3.373   2.317  19.116  0.00  0.00    +0.000 C 
BRANCH  15  16
ATOM     16  N   UNL     1       2.017   2.161  19.658  0.00  0.00    +0.000 NA
ATOM     17  C   UNL     1       1.044   3.082  19.037  0.00  0.00    +0.000 C 
ATOM     18  C   UNL     1       1.275   4.554  19.412  0.00  0.00    +0.000 C 
ATOM     19  O   UNL     1       1.237   4.734  20.833  0.00  0.00    +0.000 OA
ATOM     20  C   UNL     1       2.202   3.904  21.489  0.00  0.00    +0.000 C 
ATOM     21  C   UNL     1       2.018   2.419  21.120  0.00  0.00    +0.000 C 
ENDBRANCH  15  16
ENDBRANCH  14  15
ENDBRANCH   7  14
ENDBRANCH   3   5
BRANCH   2  22
ATOM     22  C   UNL     1       8.122   7.892  18.150  0.00  0.00    +0.000 C 
BRANCH  22  23
ATOM     23  C   UNL     1       8.069   9.282  17.517  0.00  0.00    +0.000 C 
BRANCH  23  24
ATOM     24  C   UNL     1       8.765  10.308  18.332  0.00  0.00    +0.000 A 
ATOM     25  N   UNL     1       8.915  11.583  18.098  0.00  0.00    +0.000 NA
ATOM     26  C   UNL     1       9.721  11.990  19.145  0.00  0.00    +0.000 A 
ATOM     27  N   UNL     1      10.011  11.019  20.014  0.00  0.00    +0.000 NA
ATOM     28  O   UNL     1       9.375   9.892  19.479  0.00  0.00    +0.000 OA
BRANCH  26  29
ATOM     29  C   UNL     1      10.257  13.351  19.174  0.00  0.00    +0.000 A 
ATOM     30  C   UNL     1      10.609  13.958  17.967  0.00  0.00    +0.000 A 
ATOM     31  C   UNL     1      11.269  15.187  17.935  0.00  0.00    +0.000 A 
ATOM     32  C   UNL     1      11.590  15.814  19.125  0.00  0.00    +0.000 A 
ATOM     33  C   UNL     1      11.180  15.275  20.337  0.00  0.00    +0.000 A 
ATOM     34  C   UNL     1      10.509  14.040  20.366  0.00  0.00    +0.000 A 
BRANCH  32  35
ATOM     35  O   UNL     1      12.331  16.958  19.130  0.00  0.00    +0.000 OA
ATOM     36  H   UNL     1      13.250  16.720  18.916  0.00  0.00    +0.000 HD
ENDBRANCH  32  35
ENDBRANCH  26  29
ENDBRANCH  23  24
ENDBRANCH  22  23
ENDBRANCH   2  22
TORSDOF 11
ENDMDL
MODEL 9
REMARK VINA RESULT:      -7.8      5.071      8.346
REMARK  Name = 
REMARK  11 active torsions:
REMARK  status: ('A' for Active; 'I' for Inactive)
REMARK    1  A    between atoms: C_2  and  C_3
REMARK    2  A    between atoms: C_3  and  C_4
REMARK    3  A    between atoms: C_4  and  C_5
REMARK    4  A    between atoms: C_7  and  C_8
REMARK    5  A    between atoms: C_11  and  O_12
REMARK    6  A    between atoms: N_17  and  C_18
REMARK    7  A    between atoms: N_20  and  C_21
REMARK    8  A    between atoms: C_21  and  C_22
REMARK    9  A    between atoms: C_22  and  N_23
REMARK   10  A    between atoms: C_30  and  C_31
REMARK   11  A    between atoms: C_31  and  O_33
REMARK                            x       y       z     vdW  Elec       q    Type
REMARK                         _______ _______ _______ _____ _____    ______ ____
ROOT
ATOM      1  O   UNL     1       0.772   4.420  20.140  0.00  0.00    +0.000 OA
ATOM      2  C   UNL     1       1.874   4.577  20.673  0.00  0.00    +0.000 C 
ATOM      3  N   UNL     1       2.540   5.785  20.841  0.00  0.00    +0.000 N 
ATOM      4  H   UNL     1       3.527   5.755  21.089  0.00  0.00    +0.000 HD
ENDROOT
BRANCH   3   5
ATOM      5  C   UNL     1       2.022   7.040  20.511  0.00  0.00    +0.000 A 
ATOM      6  C   UNL     1       1.445   7.923  21.404  0.00  0.00    +0.000 A 
ATOM      7  N   UNL     1       1.026   9.027  20.721  0.00  0.00    +0.000 N 
ATOM      8  C   UNL     1       1.287   8.865  19.396  0.00  0.00    +0.000 A 
ATOM      9  C   UNL     1       2.026   7.710  19.233  0.00  0.00    +0.000 A 
BRANCH   9  10
ATOM     10  C   UNL     1       2.713   7.406  17.994  0.00  0.00    +0.000 C 
ATOM     11  O   UNL     1       3.111   8.258  17.217  0.00  0.00    +0.000 OA
BRANCH  10  12
ATOM     12  O   UNL     1       2.862   6.071  17.730  0.00  0.00    +0.000 OA
ATOM     13  H   UNL     1       3.703   5.857  17.282  0.00  0.00    +0.000 HD
ENDBRANCH  10  12
ENDBRANCH   9  10
BRANCH   7  14
ATOM     14  C   UNL     1       0.485  10.240  21.312  0.00  0.00    +0.000 C 
BRANCH  14  15
ATOM     15  C   UNL     1       0.719  11.467  20.417  0.00  0.00    +0.000 C 
BRANCH  15  16
ATOM     16  N   UNL     1      -0.404  11.808  19.534  0.00  0.00    +0.000 NA
ATOM     17  C   UNL     1      -0.087  12.914  18.609  0.00  0.00    +0.000 C 
ATOM     18  C   UNL     1       0.072  14.270  19.314  0.00  0.00    +0.000 C 
ATOM     19  O   UNL     1      -1.111  14.609  20.049  0.00  0.00    +0.000 OA
ATOM     20  C   UNL     1      -1.438  13.594  21.005  0.00  0.00    +0.000 C 
ATOM     21  C   UNL     1      -1.584  12.211  20.339  0.00  0.00    +0.000 C 
ENDBRANCH  15  16
ENDBRANCH  14  15
ENDBRANCH   7  14
ENDBRANCH   3   5
BRANCH   2  22
ATOM     22  C   UNL     1       2.616   3.363  21.204  0.00  0.00    +0.000 C 
BRANCH  22  23
ATOM     23  C   UNL     1       3.168   2.479  20.087  0.00  0.00    +0.000 C 
BRANCH  23  24
ATOM     24  C   UNL     1       4.085   3.212  19.179  0.00  0.00    +0.000 A 
ATOM     25  N   UNL     1       5.003   4.092  19.471  0.00  0.00    +0.000 NA
ATOM     26  C   UNL     1       5.452   4.487  18.223  0.00  0.00    +0.000 A 
ATOM     27  N   UNL     1       4.871   3.840  17.210  0.00  0.00    +0.000 NA
ATOM     28  O   UNL     1       3.957   2.986  17.840  0.00  0.00    +0.000 OA
BRANCH  26  29
ATOM     29  C   UNL     1       6.399   5.594  18.100  0.00  0.00    +0.000 A 
ATOM     30  C   UNL     1       7.409   5.722  19.055  0.00  0.00    +0.000 A 
ATOM     31  C   UNL     1       8.245   6.839  19.086  0.00  0.00    +0.000 A 
ATOM     32  C   UNL     1       8.065   7.846  18.155  0.00  0.00    +0.000 A 
ATOM     33  C   UNL     1       7.123   7.708  17.144  0.00  0.00    +0.000 A 
ATOM     34  C   UNL     1       6.287   6.579  17.111  0.00  0.00    +0.000 A 
BRANCH  32  35
ATOM     35  O   UNL     1       8.790   8.997  18.228  0.00  0.00    +0.000 OA
ATOM     36  H   UNL     1       8.376   9.650  17.636  0.00  0.00    +0.000 HD
ENDBRANCH  32  35
ENDBRANCH  26  29
ENDBRANCH  23  24
ENDBRANCH  22  23
ENDBRANCH   2  22
TORSDOF 11
ENDMDL
