MODEL 1
REMARK VINA RESULT:      -7.0      0.000      0.000
REMARK  Name = 
REMARK  7 active torsions:
REMARK  status: ('A' for Active; 'I' for Inactive)
REMARK    1  A    between atoms: C_1  and  C_2
REMARK    2  A    between atoms: C_2  and  C_3
REMARK    3  A    between atoms: C_3  and  S_4
REMARK    4  A    between atoms: S_4  and  N_7
REMARK    5  A    between atoms: N_7  and  C_8
REMARK    6  A    between atoms: C_8  and  C_9
REMARK    7  A    between atoms: C_9  and  C_10
REMARK                            x       y       z     vdW  Elec       q    Type
REMARK                         _______ _______ _______ _____ _____    ______ ____
ROOT
ATOM      1  C   UNL     1       5.225   5.281  17.888  0.00  0.00    +0.000 C 
ENDROOT
BRANCH   1   2
ATOM      2  N   UNL     1       6.135   5.937  16.929  0.00  0.00    +0.000 NA
ATOM      3  H   UNL     1       5.768   6.735  16.409  0.00  0.00    +0.000 HD
BRANCH   2   4
ATOM      4  S   UNL     1       7.206   4.941  16.097  0.00  0.00    +0.000 S 
ATOM      5  O   UNL     1       8.040   4.268  17.072  0.00  0.00    +0.000 OA
ATOM      6  O   UNL     1       7.771   5.728  15.021  0.00  0.00    +0.000 OA
BRANCH   4   7
ATOM      7  C   UNL     1       6.102   3.730  15.368  0.00  0.00    +0.000 C 
BRANCH   7   9
ATOM      8  C   UNL     1       5.932   3.561  12.851  0.00  0.00    +0.000 C 
ATOM      9  C   UNL     1       5.460   4.287  14.100  0.00  0.00    +0.000 C 
ENDBRANCH   7   9
ENDBRANCH   4   7
ENDBRANCH   2   4
ENDBRANCH   1   2
BRANCH   1  10
ATOM     10  C   UNL     1       3.756   5.439  17.482  0.00  0.00    +0.000 C 
BRANCH  10  11
ATOM     11  C   UNL     1       2.784   4.855  18.477  0.00  0.00    +0.000 A 
ATOM     12  C   UNL     1       2.644   5.400  19.762  0.00  0.00    +0.000 A 
ATOM     13  C   UNL     1       1.726   4.858  20.667  0.00  0.00    +0.000 A 
ATOM     14  C   UNL     1       0.935   3.769  20.297  0.00  0.00    +0.000 A 
ATOM     15  C   UNL     1       1.069   3.229  19.023  0.00  0.00    +0.000 A 
ATOM     16  F   UNL     1       0.312   2.181  18.671  0.00  0.00    +0.000 F 
ATOM     17  C   UNL     1       1.983   3.765  18.121  0.00  0.00    +0.000 A 
ATOM     18  F   UNL     1       2.098   3.229  16.895  0.00  0.00    +0.000 F 
ENDBRANCH  10  11
ENDBRANCH   1  10
TORSDOF 6
ENDMDL
MODEL 2
REMARK VINA RESULT:      -7.0      0.995      1.052
REMARK  Name = 
REMARK  7 active torsions:
REMARK  status: ('A' for Active; 'I' for Inactive)
REMARK    1  A    between atoms: C_1  and  C_2
REMARK    2  A    between atoms: C_2  and  C_3
REMARK    3  A    between atoms: C_3  and  S_4
REMARK    4  A    between atoms: S_4  and  N_7
REMARK    5  A    between atoms: N_7  and  C_8
REMARK    6  A    between atoms: C_8  and  C_9
REMARK    7  A    between atoms: C_9  and  C_10
REMARK                            x       y       z     vdW  Elec       q    Type
REMARK                         _______ _______ _______ _____ _____    ______ ____
ROOT
ATOM      1  C   UNL     1       4.236   5.656  17.366  0.00  0.00    +0.000 C 
ENDROOT
BRANCH   1   2
ATOM      2  N   UNL     1       5.528   5.832  18.057  0.00  0.00    +0.000 NA
ATOM      3  H   UNL     1       5.651   6.688  18.602  0.00  0.00    +0.000 HD
BRANCH   2   4
ATOM      4  S   UNL     1       6.896   5.252  17.270  0.00  0.00    +0.000 S 
ATOM      5  O   UNL     1       7.670   4.487  18.227  0.00  0.00    +0.000 OA
ATOM      6  O   UNL     1       7.468   6.360  16.536  0.00  0.00    +0.000 OA
BRANCH   4   7
ATOM      7  C   UNL     1       6.188   4.113  16.079  0.00  0.00    +0.000 C 
BRANCH   7   9
ATOM      8  C   UNL     1       5.799   3.921  13.589  0.00  0.00    +0.000 C 
ATOM      9  C   UNL     1       6.745   4.383  14.684  0.00  0.00    +0.000 C 
ENDBRANCH   7   9
ENDBRANCH   4   7
ENDBRANCH   2   4
ENDBRANCH   1   2
BRANCH   1  10
ATOM     10  C   UNL     1       3.058   6.131  18.221  0.00  0.00    +0.000 C 
BRANCH  10  11
ATOM     11  C   UNL     1       2.429   5.040  19.051  0.00  0.00    +0.000 A 
ATOM     12  C   UNL     1       2.658   4.955  20.433  0.00  0.00    +0.000 A 
ATOM     13  C   UNL     1       2.053   3.948  21.192  0.00  0.00    +0.000 A 
ATOM     14  C   UNL     1       1.211   3.018  20.581  0.00  0.00    +0.000 A 
ATOM     15  C   UNL     1       0.980   3.101  19.212  0.00  0.00    +0.000 A 
ATOM     16  F   UNL     1       0.174   2.205  18.627  0.00  0.00    +0.000 F 
ATOM     17  C   UNL     1       1.581   4.101  18.454  0.00  0.00    +0.000 A 
ATOM     18  F   UNL     1       1.345   4.166  17.134  0.00  0.00    +0.000 F 
ENDBRANCH  10  11
ENDBRANCH   1  10
TORSDOF 6
ENDMDL
MODEL 3
REMARK VINA RESULT:      -7.0      2.227      3.195
REMARK  Name = 
REMARK  7 active torsions:
REMARK  status: ('A' for Active; 'I' for Inactive)
REMARK    1  A    between atoms: C_1  and  C_2
REMARK    2  A    between atoms: C_2  and  C_3
REMARK    3  A    between atoms: C_3  and  S_4
REMARK    4  A    between atoms: S_4  and  N_7
REMARK    5  A    between atoms: N_7  and  C_8
REMARK    6  A    between atoms: C_8  and  C_9
REMARK    7  A    between atoms: C_9  and  C_10
REMARK                            x       y       z     vdW  Elec       q    Type
REMARK                         _______ _______ _______ _____ _____    ______ ____
ROOT
ATOM      1  C   UNL     1       4.636   4.105  16.736  0.00  0.00    +0.000 C 
ENDROOT
BRANCH   1   2
ATOM      2  N   UNL     1       5.847   3.728  15.982  0.00  0.00    +0.000 NA
ATOM      3  H   UNL     1       6.074   2.733  15.932  0.00  0.00    +0.000 HD
BRANCH   2   4
ATOM      4  S   UNL     1       7.155   4.782  16.070  0.00  0.00    +0.000 S 
ATOM      5  O   UNL     1       7.467   5.220  14.725  0.00  0.00    +0.000 OA
ATOM      6  O   UNL     1       8.147   4.159  16.921  0.00  0.00    +0.000 OA
BRANCH   4   7
ATOM      7  C   UNL     1       6.458   6.170  16.968  0.00  0.00    +0.000 C 
BRANCH   7   9
ATOM      8  C   UNL     1       7.727   8.269  17.578  0.00  0.00    +0.000 C 
ATOM      9  C   UNL     1       7.508   6.797  17.882  0.00  0.00    +0.000 C 
ENDBRANCH   7   9
ENDBRANCH   4   7
ENDBRANCH   2   4
ENDBRANCH   1   2
BRANCH   1  10
ATOM     10  C   UNL     1       4.540   3.365  18.073  0.00  0.00    +0.000 C 
BRANCH  10  11
ATOM     11  C   UNL     1       3.223   3.559  18.783  0.00  0.00    +0.000 A 
ATOM     12  C   UNL     1       2.190   2.616  18.667  0.00  0.00    +0.000 A 
ATOM     13  C   UNL     1       0.981   2.801  19.345  0.00  0.00    +0.000 A 
ATOM     14  C   UNL     1       0.792   3.926  20.149  0.00  0.00    +0.000 A 
ATOM     15  C   UNL     1       1.815   4.861  20.268  0.00  0.00    +0.000 A 
ATOM     16  F   UNL     1       1.630   5.942  21.037  0.00  0.00    +0.000 F 
ATOM     17  C   UNL     1       3.019   4.680  19.593  0.00  0.00    +0.000 A 
ATOM     18  F   UNL     1       3.995   5.594  19.721  0.00  0.00    +0.000 F 
ENDBRANCH  10  11
ENDBRANCH   1  10
TORSDOF 6
ENDMDL
MODEL 4
REMARK VINA RESULT:      -6.8      1.778      2.683
REMARK  Name = 
REMARK  7 active torsions:
REMARK  status: ('A' for Active; 'I' for Inactive)
REMARK    1  A    between atoms: C_1  and  C_2
REMARK    2  A    between atoms: C_2  and  C_3
REMARK    3  A    between atoms: C_3  and  S_4
REMARK    4  A    between atoms: S_4  and  N_7
REMARK    5  A    between atoms: N_7  and  C_8
REMARK    6  A    between atoms: C_8  and  C_9
REMARK    7  A    between atoms: C_9  and  C_10
REMARK                            x       y       z     vdW  Elec       q    Type
REMARK                         _______ _______ _______ _____ _____    ______ ____
ROOT
ATOM      1  C   UNL     1       4.755   4.463  17.251  0.00  0.00    +0.000 C 
ENDROOT
BRANCH   1   2
ATOM      2  N   UNL     1       5.807   3.970  16.341  0.00  0.00    +0.000 NA
ATOM      3  H   UNL     1       5.917   2.957  16.261  0.00  0.00    +0.000 HD
BRANCH   2   4
ATOM      4  S   UNL     1       7.221   4.877  16.253  0.00  0.00    +0.000 S 
ATOM      5  O   UNL     1       7.431   5.243  14.867  0.00  0.00    +0.000 OA
ATOM      6  O   UNL     1       8.227   4.172  17.019  0.00  0.00    +0.000 OA
BRANCH   4   7
ATOM      7  C   UNL     1       6.775   6.355  17.167  0.00  0.00    +0.000 C 
BRANCH   7   9
ATOM      8  C   UNL     1       7.479   5.794  19.529  0.00  0.00    +0.000 C 
ATOM      9  C   UNL     1       7.780   6.615  18.286  0.00  0.00    +0.000 C 
ENDBRANCH   7   9
ENDBRANCH   4   7
ENDBRANCH   2   4
ENDBRANCH   1   2
BRANCH   1  10
ATOM     10  C   UNL     1       4.649   3.611  18.519  0.00  0.00    +0.000 C 
BRANCH  10  11
ATOM     11  C   UNL     1       3.268   3.589  19.125  0.00  0.00    +0.000 A 
ATOM     12  C   UNL     1       2.940   4.409  20.215  0.00  0.00    +0.000 A 
ATOM     13  C   UNL     1       1.650   4.390  20.755  0.00  0.00    +0.000 A 
ATOM     14  C   UNL     1       0.673   3.557  20.209  0.00  0.00    +0.000 A 
ATOM     15  C   UNL     1       0.994   2.746  19.125  0.00  0.00    +0.000 A 
ATOM     16  F   UNL     1       0.055   1.944  18.605  0.00  0.00    +0.000 F 
ATOM     17  C   UNL     1       2.277   2.761  18.588  0.00  0.00    +0.000 A 
ATOM     18  F   UNL     1       2.567   1.971  17.541  0.00  0.00    +0.000 F 
ENDBRANCH  10  11
ENDBRANCH   1  10
TORSDOF 6
ENDMDL
MODEL 5
REMARK VINA RESULT:      -6.7      1.714      2.110
REMARK  Name = 
REMARK  7 active torsions:
REMARK  status: ('A' for Active; 'I' for Inactive)
REMARK    1  A    between atoms: C_1  and  C_2
REMARK    2  A    between atoms: C_2  and  C_3
REMARK    3  A    between atoms: C_3  and  S_4
REMARK    4  A    between atoms: S_4  and  N_7
REMARK    5  A    between atoms: N_7  and  C_8
REMARK    6  A    between atoms: C_8  and  C_9
REMARK    7  A    between atoms: C_9  and  C_10
REMARK                            x       y       z     vdW  Elec       q    Type
REMARK                         _______ _______ _______ _____ _____    ______ ____
ROOT
ATOM      1  C   UNL     1       5.492   4.854  19.140  0.00  0.00    +0.000 C 
ENDROOT
BRANCH   1   2
ATOM      2  N   UNL     1       6.503   5.770  18.578  0.00  0.00    +0.000 NA
ATOM      3  H   UNL     1       6.396   6.764  18.785  0.00  0.00    +0.000 HD
BRANCH   2   4
ATOM      4  S   UNL     1       7.107   5.391  17.055  0.00  0.00    +0.000 S 
ATOM      5  O   UNL     1       8.017   4.273  17.201  0.00  0.00    +0.000 OA
ATOM      6  O   UNL     1       7.517   6.635  16.438  0.00  0.00    +0.000 OA
BRANCH   4   7
ATOM      7  C   UNL     1       5.638   4.815  16.202  0.00  0.00    +0.000 C 
BRANCH   7   9
ATOM      8  C   UNL     1       6.451   4.258  13.874  0.00  0.00    +0.000 C 
ATOM      9  C   UNL     1       5.993   3.707  15.214  0.00  0.00    +0.000 C 
ENDBRANCH   7   9
ENDBRANCH   4   7
ENDBRANCH   2   4
ENDBRANCH   1   2
BRANCH   1  10
ATOM     10  C   UNL     1       4.140   5.546  19.340  0.00  0.00    +0.000 C 
BRANCH  10  11
ATOM     11  C   UNL     1       2.958   4.613  19.244  0.00  0.00    +0.000 A 
ATOM     12  C   UNL     1       2.475   4.179  18.000  0.00  0.00    +0.000 A 
ATOM     13  C   UNL     1       1.389   3.301  17.927  0.00  0.00    +0.000 A 
ATOM     14  C   UNL     1       0.778   2.843  19.095  0.00  0.00    +0.000 A 
ATOM     15  C   UNL     1       1.257   3.268  20.330  0.00  0.00    +0.000 A 
ATOM     16  F   UNL     1       0.666   2.830  21.449  0.00  0.00    +0.000 F 
ATOM     17  C   UNL     1       2.336   4.143  20.405  0.00  0.00    +0.000 A 
ATOM     18  F   UNL     1       2.784   4.542  21.606  0.00  0.00    +0.000 F 
ENDBRANCH  10  11
ENDBRANCH   1  10
TORSDOF 6
ENDMDL
MODEL 6
REMARK VINA RESULT:      -6.7      1.817      2.291
REMARK  Name = 
REMARK  7 active torsions:
REMARK  status: ('A' for Active; 'I' for Inactive)
REMARK    1  A    between atoms: C_1  and  C_2
REMARK    2  A    between atoms: C_2  and  C_3
REMARK    3  A    between atoms: C_3  and  S_4
REMARK    4  A    between atoms: S_4  and  N_7
REMARK    5  A    between atoms: N_7  and  C_8
REMARK    6  A    between atoms: C_8  and  C_9
REMARK    7  A    between atoms: C_9  and  C_10
REMARK                            x       y       z     vdW  Elec       q    Type
REMARK                         _______ _______ _______ _____ _____    ______ ____
ROOT
ATOM      1  C   UNL     1       4.261   6.150  17.345  0.00  0.00    +0.000 C 
ENDROOT
BRANCH   1   2
ATOM      2  N   UNL     1       5.386   5.941  18.276  0.00  0.00    +0.000 NA
ATOM      3  H   UNL     1       5.253   6.244  19.243  0.00  0.00    +0.000 HD
BRANCH   2   4
ATOM      4  S   UNL     1       6.936   6.128  17.649  0.00  0.00    +0.000 S 
ATOM      5  O   UNL     1       7.865   6.169  18.760  0.00  0.00    +0.000 OA
ATOM      6  O   UNL     1       6.873   7.188  16.665  0.00  0.00    +0.000 OA
BRANCH   4   7
ATOM      7  C   UNL     1       7.173   4.582  16.771  0.00  0.00    +0.000 C 
BRANCH   7   9
ATOM      8  C   UNL     1       5.923   3.958  14.665  0.00  0.00    +0.000 C 
ATOM      9  C   UNL     1       7.039   4.795  15.266  0.00  0.00    +0.000 C 
ENDBRANCH   7   9
ENDBRANCH   4   7
ENDBRANCH   2   4
ENDBRANCH   1   2
BRANCH   1  10
ATOM     10  C   UNL     1       2.909   6.110  18.062  0.00  0.00    +0.000 C 
BRANCH  10  11
ATOM     11  C   UNL     1       2.439   4.717  18.398  0.00  0.00    +0.000 A 
ATOM     12  C   UNL     1       2.655   3.645  17.518  0.00  0.00    +0.000 A 
ATOM     13  C   UNL     1       2.229   2.355  17.851  0.00  0.00    +0.000 A 
ATOM     14  C   UNL     1       1.587   2.121  19.068  0.00  0.00    +0.000 A 
ATOM     15  C   UNL     1       1.374   3.180  19.944  0.00  0.00    +0.000 A 
ATOM     16  F   UNL     1       0.754   2.953  21.109  0.00  0.00    +0.000 F 
ATOM     17  C   UNL     1       1.795   4.465  19.614  0.00  0.00    +0.000 A 
ATOM     18  F   UNL     1       1.581   5.474  20.473  0.00  0.00    +0.000 F 
ENDBRANCH  10  11
ENDBRANCH   1  10
TORSDOF 6
ENDMDL
MODEL 7
REMARK VINA RESULT:      -6.7      2.693      3.321
REMARK  Name = 
REMARK  7 active torsions:
REMARK  status: ('A' for Active; 'I' for Inactive)
REMARK    1  A    between atoms: C_1  and  C_2
REMARK    2  A    between atoms: C_2  and  C_3
REMARK    3  A    between atoms: C_3  and  S_4
REMARK    4  A    between atoms: S_4  and  N_7
REMARK    5  A    between atoms: N_7  and  C_8
REMARK    6  A    between atoms: C_8  and  C_9
REMARK    7  A    between atoms: C_9  and  C_10
REMARK                            x       y       z     vdW  Elec       q    Type
REMARK                         _______ _______ _______ _____ _____    ______ ____
ROOT
ATOM      1  C   UNL     1       5.252   5.189  19.090  0.00  0.00    +0.000 C 
ENDROOT
BRANCH   1   2
ATOM      2  N   UNL     1       5.856   4.435  17.974  0.00  0.00    +0.000 NA
ATOM      3  H   UNL     1       6.004   3.434  18.114  0.00  0.00    +0.000 HD
BRANCH   2   4
ATOM      4  S   UNL     1       7.020   5.234  17.060  0.00  0.00    +0.000 S 
ATOM      5  O   UNL     1       6.360   5.826  15.915  0.00  0.00    +0.000 OA
ATOM      6  O   UNL     1       8.141   4.331  16.914  0.00  0.00    +0.000 OA
BRANCH   4   7
ATOM      7  C   UNL     1       7.523   6.554  18.166  0.00  0.00    +0.000 C 
BRANCH   7   9
ATOM      8  C   UNL     1       8.380   8.932  18.160  0.00  0.00    +0.000 C 
ATOM      9  C   UNL     1       7.554   7.889  17.427  0.00  0.00    +0.000 C 
ENDBRANCH   7   9
ENDBRANCH   4   7
ENDBRANCH   2   4
ENDBRANCH   1   2
BRANCH   1  10
ATOM     10  C   UNL     1       3.828   5.650  18.766  0.00  0.00    +0.000 C 
BRANCH  10  11
ATOM     11  C   UNL     1       2.790   4.564  18.903  0.00  0.00    +0.000 A 
ATOM     12  C   UNL     1       2.315   3.868  17.781  0.00  0.00    +0.000 A 
ATOM     13  C   UNL     1       1.365   2.852  17.926  0.00  0.00    +0.000 A 
ATOM     14  C   UNL     1       0.883   2.517  19.192  0.00  0.00    +0.000 A 
ATOM     15  C   UNL     1       1.355   3.203  20.307  0.00  0.00    +0.000 A 
ATOM     16  F   UNL     1       0.889   2.882  21.521  0.00  0.00    +0.000 F 
ATOM     17  C   UNL     1       2.299   4.216  20.165  0.00  0.00    +0.000 A 
ATOM     18  F   UNL     1       2.743   4.866  21.253  0.00  0.00    +0.000 F 
ENDBRANCH  10  11
ENDBRANCH   1  10
TORSDOF 6
ENDMDL
MODEL 8
REMARK VINA RESULT:      -6.7      2.498      3.401
REMARK  Name = 
REMARK  7 active torsions:
REMARK  status: ('A' for Active; 'I' for Inactive)
REMARK    1  A    between atoms: C_1  and  C_2
REMARK    2  A    between atoms: C_2  and  C_3
REMARK    3  A    between atoms: C_3  and  S_4
REMARK    4  A    between atoms: S_4  and  N_7
REMARK    5  A    between atoms: N_7  and  C_8
REMARK    6  A    between atoms: C_8  and  C_9
REMARK    7  A    between atoms: C_9  and  C_10
REMARK                            x       y       z     vdW  Elec       q    Type
REMARK                         _______ _______ _______ _____ _____    ______ ____
ROOT
ATOM      1  C   UNL     1       5.106   5.503  18.829  0.00  0.00    +0.000 C 
ENDROOT
BRANCH   1   2
ATOM      2  N   UNL     1       6.104   4.455  18.541  0.00  0.00    +0.000 NA
ATOM      3  H   UNL     1       6.041   3.591  19.082  0.00  0.00    +0.000 HD
BRANCH   2   4
ATOM      4  S   UNL     1       7.656   4.971  18.148  0.00  0.00    +0.000 S 
ATOM      5  O   UNL     1       8.115   4.188  17.019  0.00  0.00    +0.000 OA
ATOM      6  O   UNL     1       8.406   5.043  19.384  0.00  0.00    +0.000 OA
BRANCH   4   7
ATOM      7  C   UNL     1       7.362   6.650  17.589  0.00  0.00    +0.000 C 
BRANCH   7   9
ATOM      8  C   UNL     1       8.094   9.055  17.856  0.00  0.00    +0.000 C 
ATOM      9  C   UNL     1       8.207   7.637  18.390  0.00  0.00    +0.000 C 
ENDBRANCH   7   9
ENDBRANCH   4   7
ENDBRANCH   2   4
ENDBRANCH   1   2
BRANCH   1  10
ATOM     10  C   UNL     1       3.909   5.431  17.877  0.00  0.00    +0.000 C 
BRANCH  10  11
ATOM     11  C   UNL     1       2.946   4.313  18.193  0.00  0.00    +0.000 A 
ATOM     12  C   UNL     1       2.956   3.118  17.458  0.00  0.00    +0.000 A 
ATOM     13  C   UNL     1       2.069   2.083  17.774  0.00  0.00    +0.000 A 
ATOM     14  C   UNL     1       1.167   2.230  18.829  0.00  0.00    +0.000 A 
ATOM     15  C   UNL     1       1.157   3.413  19.561  0.00  0.00    +0.000 A 
ATOM     16  F   UNL     1       0.288   3.553  20.570  0.00  0.00    +0.000 F 
ATOM     17  C   UNL     1       2.037   4.444  19.248  0.00  0.00    +0.000 A 
ATOM     18  F   UNL     1       2.013   5.578  19.966  0.00  0.00    +0.000 F 
ENDBRANCH  10  11
ENDBRANCH   1  10
TORSDOF 6
ENDMDL
MODEL 9
REMARK VINA RESULT:      -6.7      2.295      3.168
REMARK  Name = 
REMARK  7 active torsions:
REMARK  status: ('A' for Active; 'I' for Inactive)
REMARK    1  A    between atoms: C_1  and  C_2
REMARK    2  A    between atoms: C_2  and  C_3
REMARK    3  A    between atoms: C_3  and  S_4
REMARK    4  A    between atoms: S_4  and  N_7
REMARK    5  A    between atoms: N_7  and  C_8
REMARK    6  A    between atoms: C_8  and  C_9
REMARK    7  A    between atoms: C_9  and  C_10
REMARK                            x       y       z     vdW  Elec       q    Type
REMARK                         _______ _______ _______ _____ _____    ______ ____
ROOT
ATOM      1  C   UNL     1       4.675   3.945  16.859  0.00  0.00    +0.000 C 
ENDROOT
BRANCH   1   2
ATOM      2  N   UNL     1       5.927   3.670  16.128  0.00  0.00    +0.000 NA
ATOM      3  H   UNL     1       6.204   2.691  16.030  0.00  0.00    +0.000 HD
BRANCH   2   4
ATOM      4  S   UNL     1       7.179   4.777  16.322  0.00  0.00    +0.000 S 
ATOM      5  O   UNL     1       7.553   5.262  15.009  0.00  0.00    +0.000 OA
ATOM      6  O   UNL     1       8.144   4.177  17.219  0.00  0.00    +0.000 OA
BRANCH   4   7
ATOM      7  C   UNL     1       6.366   6.110  17.206  0.00  0.00    +0.000 C 
BRANCH   7   9
ATOM      8  C   UNL     1       8.131   7.381  18.494  0.00  0.00    +0.000 C 
ATOM      9  C   UNL     1       7.260   7.346  17.250  0.00  0.00    +0.000 C 
ENDBRANCH   7   9
ENDBRANCH   4   7
ENDBRANCH   2   4
ENDBRANCH   1   2
BRANCH   1  10
ATOM     10  C   UNL     1       4.662   3.288  18.241  0.00  0.00    +0.000 C 
BRANCH  10  11
ATOM     11  C   UNL     1       3.294   3.224  18.873  0.00  0.00    +0.000 A 
ATOM     12  C   UNL     1       2.155   3.668  18.184  0.00  0.00    +0.000 A 
ATOM     13  C   UNL     1       0.890   3.587  18.776  0.00  0.00    +0.000 A 
ATOM     14  C   UNL     1       0.749   3.058  20.060  0.00  0.00    +0.000 A 
ATOM     15  C   UNL     1       1.876   2.614  20.744  0.00  0.00    +0.000 A 
ATOM     16  F   UNL     1       1.739   2.111  21.978  0.00  0.00    +0.000 F 
ATOM     17  C   UNL     1       3.136   2.696  20.158  0.00  0.00    +0.000 A 
ATOM     18  F   UNL     1       4.211   2.262  20.835  0.00  0.00    +0.000 F 
ENDBRANCH  10  11
ENDBRANCH   1  10
TORSDOF 6
ENDMDL
