MODEL 1
REMARK VINA RESULT:      -7.9      0.000      0.000
REMARK  Name = 
REMARK  8 active torsions:
REMARK  status: ('A' for Active; 'I' for Inactive)
REMARK    1  A    between atoms: C_1  and  O_2
REMARK    2  A    between atoms: O_2  and  C_3
REMARK    3  A    between atoms: C_7  and  C_8
REMARK    4  A    between atoms: C_8  and  N_9
REMARK    5  A    between atoms: C_10  and  C_12
REMARK    6  A    between atoms: C_12  and  C_13
REMARK    7  A    between atoms: C_13  and  C_14
REMARK    8  A    between atoms: C_14  and  N_15
REMARK                            x       y       z     vdW  Elec       q    Type
REMARK                         _______ _______ _______ _____ _____    ______ ____
ROOT
ATOM      1  C   UNL     1       7.804   6.147  18.321  0.00  0.00    +0.000 C 
ENDROOT
BRANCH   1   2
ATOM      2  C   UNL     1       7.416   7.335  17.440  0.00  0.00    +0.000 C 
BRANCH   2   4
ATOM      3  N   UNL     1       5.008   7.301  17.791  0.00  0.00    +0.000 N 
ATOM      4  C   UNL     1       6.020   7.130  16.873  0.00  0.00    +0.000 C 
ATOM      5  O   UNL     1       5.810   6.832  15.702  0.00  0.00    +0.000 OA
ATOM      6  H   UNL     1       5.221   7.554  18.744  0.00  0.00    +0.000 HD
BRANCH   3   7
ATOM      7  C   UNL     1       3.629   7.055  17.430  0.00  0.00    +0.000 C 
BRANCH   7  12
ATOM      8  C   UNL     1       1.195   9.625  18.847  0.00  0.00    +0.000 A 
ATOM      9  C   UNL     1       0.964   9.098  20.119  0.00  0.00    +0.000 A 
ATOM     10  C   UNL     1       1.561   7.899  20.510  0.00  0.00    +0.000 A 
ATOM     11  C   UNL     1       2.405   7.224  19.630  0.00  0.00    +0.000 A 
ATOM     12  C   UNL     1       2.667   7.750  18.357  0.00  0.00    +0.000 A 
ATOM     13  C   UNL     1       2.039   8.943  17.967  0.00  0.00    +0.000 A 
BRANCH   8  15
ATOM     14  C   UNL     1       0.194  11.596  19.721  0.00  0.00    +0.000 C 
ATOM     15  O   UNL     1       0.560  10.810  18.593  0.00  0.00    +0.000 OA
ENDBRANCH   8  15
ENDBRANCH   7  12
ENDBRANCH   3   7
ENDBRANCH   2   4
ENDBRANCH   1   2
BRANCH   1  16
ATOM     16  C   UNL     1       7.442   4.800  17.708  0.00  0.00    +0.000 C 
BRANCH  16  17
ATOM     17  N   UNL     1       6.105   4.376  18.119  0.00  0.00    +0.000 N 
ATOM     18  N   UNL     1       5.797   4.560  19.472  0.00  0.00    +0.000 NA
ATOM     19  C   UNL     1       4.629   4.188  19.903  0.00  0.00    +0.000 A 
ATOM     20  N   UNL     1       3.705   3.629  19.045  0.00  0.00    +0.000 N 
ATOM     21  C   UNL     1       3.961   3.399  17.713  0.00  0.00    +0.000 A 
ATOM     22  C   UNL     1       2.838   2.863  17.098  0.00  0.00    +0.000 A 
ATOM     23  C   UNL     1       1.900   2.790  18.141  0.00  0.00    +0.000 A 
ATOM     24  O   UNL     1       0.610   2.401  18.303  0.00  0.00    +0.000 OA
ATOM     25  C   UNL     1       0.352   2.619  19.626  0.00  0.00    +0.000 A 
ATOM     26  C   UNL     1       1.432   3.129  20.312  0.00  0.00    +0.000 A 
ATOM     27  C   UNL     1       2.417   3.236  19.306  0.00  0.00    +0.000 A 
ATOM     28  C   UNL     1       5.259   3.740  17.185  0.00  0.00    +0.000 A 
ATOM     29  O   UNL     1       5.586   3.511  16.024  0.00  0.00    +0.000 OA
ENDBRANCH  16  17
ENDBRANCH   1  16
TORSDOF 7
ENDMDL
MODEL 2
REMARK VINA RESULT:      -7.8      1.870      4.788
REMARK  Name = 
REMARK  8 active torsions:
REMARK  status: ('A' for Active; 'I' for Inactive)
REMARK    1  A    between atoms: C_1  and  O_2
REMARK    2  A    between atoms: O_2  and  C_3
REMARK    3  A    between atoms: C_7  and  C_8
REMARK    4  A    between atoms: C_8  and  N_9
REMARK    5  A    between atoms: C_10  and  C_12
REMARK    6  A    between atoms: C_12  and  C_13
REMARK    7  A    between atoms: C_13  and  C_14
REMARK    8  A    between atoms: C_14  and  N_15
REMARK                            x       y       z     vdW  Elec       q    Type
REMARK                         _______ _______ _______ _____ _____    ______ ____
ROOT
ATOM      1  C   UNL     1       1.567   2.147  20.076  0.00  0.00    +0.000 C 
ENDROOT
BRANCH   1   2
ATOM      2  C   UNL     1       0.768   3.444  19.937  0.00  0.00    +0.000 C 
BRANCH   2   4
ATOM      3  N   UNL     1       1.665   5.675  19.559  0.00  0.00    +0.000 N 
ATOM      4  C   UNL     1       1.590   4.620  20.441  0.00  0.00    +0.000 C 
ATOM      5  O   UNL     1       2.145   4.629  21.536  0.00  0.00    +0.000 OA
ATOM      6  H   UNL     1       1.188   5.632  18.671  0.00  0.00    +0.000 HD
BRANCH   3   7
ATOM      7  C   UNL     1       2.482   6.831  19.854  0.00  0.00    +0.000 C 
BRANCH   7  12
ATOM      8  C   UNL     1       0.294   9.311  21.752  0.00  0.00    +0.000 A 
ATOM      9  C   UNL     1       0.019  10.243  20.750  0.00  0.00    +0.000 A 
ATOM     10  C   UNL     1       0.565  10.096  19.474  0.00  0.00    +0.000 A 
ATOM     11  C   UNL     1       1.382   9.003  19.190  0.00  0.00    +0.000 A 
ATOM     12  C   UNL     1       1.651   8.045  20.177  0.00  0.00    +0.000 A 
ATOM     13  C   UNL     1       1.118   8.220  21.464  0.00  0.00    +0.000 A 
BRANCH   8  15
ATOM     14  C   UNL     1      -1.027  10.789  23.064  0.00  0.00    +0.000 C 
ATOM     15  O   UNL     1      -0.310   9.564  22.953  0.00  0.00    +0.000 OA
ENDBRANCH   8  15
ENDBRANCH   7  12
ENDBRANCH   3   7
ENDBRANCH   2   4
ENDBRANCH   1   2
BRANCH   1  16
ATOM     16  C   UNL     1       2.413   1.829  18.849  0.00  0.00    +0.000 C 
BRANCH  16  17
ATOM     17  N   UNL     1       3.437   2.850  18.635  0.00  0.00    +0.000 N 
ATOM     18  N   UNL     1       4.401   2.966  19.643  0.00  0.00    +0.000 NA
ATOM     19  C   UNL     1       5.329   3.867  19.518  0.00  0.00    +0.000 A 
ATOM     20  N   UNL     1       5.373   4.688  18.412  0.00  0.00    +0.000 N 
ATOM     21  C   UNL     1       4.438   4.637  17.403  0.00  0.00    +0.000 A 
ATOM     22  C   UNL     1       4.758   5.554  16.411  0.00  0.00    +0.000 A 
ATOM     23  C   UNL     1       5.937   6.150  16.887  0.00  0.00    +0.000 A 
ATOM     24  O   UNL     1       6.822   7.091  16.473  0.00  0.00    +0.000 OA
ATOM     25  C   UNL     1       7.749   7.153  17.475  0.00  0.00    +0.000 A 
ATOM     26  C   UNL     1       7.483   6.286  18.511  0.00  0.00    +0.000 A 
ATOM     27  C   UNL     1       6.300   5.643  18.085  0.00  0.00    +0.000 A 
ATOM     28  C   UNL     1       3.350   3.696  17.509  0.00  0.00    +0.000 A 
ATOM     29  O   UNL     1       2.445   3.630  16.683  0.00  0.00    +0.000 OA
ENDBRANCH  16  17
ENDBRANCH   1  16
TORSDOF 7
ENDMDL
MODEL 3
REMARK VINA RESULT:      -7.7      2.114      6.926
REMARK  Name = 
REMARK  8 active torsions:
REMARK  status: ('A' for Active; 'I' for Inactive)
REMARK    1  A    between atoms: C_1  and  O_2
REMARK    2  A    between atoms: O_2  and  C_3
REMARK    3  A    between atoms: C_7  and  C_8
REMARK    4  A    between atoms: C_8  and  N_9
REMARK    5  A    between atoms: C_10  and  C_12
REMARK    6  A    between atoms: C_12  and  C_13
REMARK    7  A    between atoms: C_13  and  C_14
REMARK    8  A    between atoms: C_14  and  N_15
REMARK                            x       y       z     vdW  Elec       q    Type
REMARK                         _______ _______ _______ _____ _____    ______ ____
ROOT
ATOM      1  C   UNL     1       1.492   4.510  20.777  0.00  0.00    +0.000 C 
ENDROOT
BRANCH   1   2
ATOM      2  C   UNL     1       0.804   3.597  19.761  0.00  0.00    +0.000 C 
BRANCH   2   4
ATOM      3  N   UNL     1       2.797   2.812  18.606  0.00  0.00    +0.000 N 
ATOM      4  C   UNL     1       1.625   3.525  18.484  0.00  0.00    +0.000 C 
ATOM      5  O   UNL     1       1.280   4.059  17.434  0.00  0.00    +0.000 OA
ATOM      6  H   UNL     1       3.042   2.381  19.484  0.00  0.00    +0.000 HD
BRANCH   3   7
ATOM      7  C   UNL     1       3.731   2.726  17.505  0.00  0.00    +0.000 C 
BRANCH   7  12
ATOM      8  C   UNL     1       6.578   5.083  16.565  0.00  0.00    +0.000 A 
ATOM      9  C   UNL     1       6.943   5.572  17.821  0.00  0.00    +0.000 A 
ATOM     10  C   UNL     1       6.252   5.173  18.966  0.00  0.00    +0.000 A 
ATOM     11  C   UNL     1       5.196   4.269  18.861  0.00  0.00    +0.000 A 
ATOM     12  C   UNL     1       4.830   3.750  17.612  0.00  0.00    +0.000 A 
ATOM     13  C   UNL     1       5.516   4.181  16.464  0.00  0.00    +0.000 A 
BRANCH   8  15
ATOM     14  C   UNL     1       7.087   4.977  14.246  0.00  0.00    +0.000 C 
ATOM     15  O   UNL     1       7.340   5.543  15.527  0.00  0.00    +0.000 OA
ENDBRANCH   8  15
ENDBRANCH   7  12
ENDBRANCH   3   7
ENDBRANCH   2   4
ENDBRANCH   1   2
BRANCH   1  16
ATOM     16  C   UNL     1       2.535   5.428  20.150  0.00  0.00    +0.000 C 
BRANCH  16  17
ATOM     17  N   UNL     1       2.046   6.803  20.067  0.00  0.00    +0.000 N 
ATOM     18  N   UNL     1       1.300   7.252  21.164  0.00  0.00    +0.000 NA
ATOM     19  C   UNL     1       0.824   8.460  21.142  0.00  0.00    +0.000 A 
ATOM     20  N   UNL     1       1.053   9.291  20.067  0.00  0.00    +0.000 N 
ATOM     21  C   UNL     1       1.755   8.897  18.951  0.00  0.00    +0.000 A 
ATOM     22  C   UNL     1       1.854   9.951  18.053  0.00  0.00    +0.000 A 
ATOM     23  C   UNL     1       1.172  10.994  18.701  0.00  0.00    +0.000 A 
ATOM     24  O   UNL     1       0.872  12.296  18.462  0.00  0.00    +0.000 OA
ATOM     25  C   UNL     1       0.168  12.691  19.563  0.00  0.00    +0.000 A 
ATOM     26  C   UNL     1       0.006  11.687  20.491  0.00  0.00    +0.000 A 
ATOM     27  C   UNL     1       0.684  10.601  19.897  0.00  0.00    +0.000 A 
ATOM     28  C   UNL     1       2.264   7.548  18.889  0.00  0.00    +0.000 A 
ATOM     29  O   UNL     1       2.847   7.102  17.905  0.00  0.00    +0.000 OA
ENDBRANCH  16  17
ENDBRANCH   1  16
TORSDOF 7
ENDMDL
MODEL 4
REMARK VINA RESULT:      -7.7      0.948      1.432
REMARK  Name = 
REMARK  8 active torsions:
REMARK  status: ('A' for Active; 'I' for Inactive)
REMARK    1  A    between atoms: C_1  and  O_2
REMARK    2  A    between atoms: O_2  and  C_3
REMARK    3  A    between atoms: C_7  and  C_8
REMARK    4  A    between atoms: C_8  and  N_9
REMARK    5  A    between atoms: C_10  and  C_12
REMARK    6  A    between atoms: C_12  and  C_13
REMARK    7  A    between atoms: C_13  and  C_14
REMARK    8  A    between atoms: C_14  and  N_15
REMARK                            x       y       z     vdW  Elec       q    Type
REMARK                         _______ _______ _______ _____ _____    ______ ____
ROOT
ATOM      1  C   UNL     1       7.535   6.319  18.022  0.00  0.00    +0.000 C 
ENDROOT
BRANCH   1   2
ATOM      2  C   UNL     1       7.048   7.338  16.990  0.00  0.00    +0.000 C 
BRANCH   2   4
ATOM      3  N   UNL     1       4.759   7.189  17.801  0.00  0.00    +0.000 N 
ATOM      4  C   UNL     1       5.575   7.116  16.693  0.00  0.00    +0.000 C 
ATOM      5  O   UNL     1       5.145   6.887  15.567  0.00  0.00    +0.000 OA
ATOM      6  H   UNL     1       5.149   7.388  18.709  0.00  0.00    +0.000 HD
BRANCH   3   7
ATOM      7  C   UNL     1       3.343   6.914  17.698  0.00  0.00    +0.000 C 
BRANCH   7  12
ATOM      8  C   UNL     1       1.327   8.610  20.455  0.00  0.00    +0.000 A 
ATOM      9  C   UNL     1       0.882   9.755  19.793  0.00  0.00    +0.000 A 
ATOM     10  C   UNL     1       1.258  10.002  18.472  0.00  0.00    +0.000 A 
ATOM     11  C   UNL     1       2.075   9.094  17.801  0.00  0.00    +0.000 A 
ATOM     12  C   UNL     1       2.513   7.927  18.443  0.00  0.00    +0.000 A 
ATOM     13  C   UNL     1       2.149   7.704  19.780  0.00  0.00    +0.000 A 
BRANCH   8  15
ATOM     14  C   UNL     1      -0.532   8.467  21.930  0.00  0.00    +0.000 C 
ATOM     15  O   UNL     1       0.878   8.480  21.741  0.00  0.00    +0.000 OA
ENDBRANCH   8  15
ENDBRANCH   7  12
ENDBRANCH   3   7
ENDBRANCH   2   4
ENDBRANCH   1   2
BRANCH   1  16
ATOM     16  C   UNL     1       7.329   4.874  17.584  0.00  0.00    +0.000 C 
BRANCH  16  17
ATOM     17  N   UNL     1       6.029   4.370  18.023  0.00  0.00    +0.000 N 
ATOM     18  N   UNL     1       5.780   4.445  19.398  0.00  0.00    +0.000 NA
ATOM     19  C   UNL     1       4.648   3.998  19.852  0.00  0.00    +0.000 A 
ATOM     20  N   UNL     1       3.704   3.467  18.999  0.00  0.00    +0.000 N 
ATOM     21  C   UNL     1       3.904   3.342  17.643  0.00  0.00    +0.000 A 
ATOM     22  C   UNL     1       2.773   2.808  17.042  0.00  0.00    +0.000 A 
ATOM     23  C   UNL     1       1.889   2.624  18.118  0.00  0.00    +0.000 A 
ATOM     24  O   UNL     1       0.623   2.175  18.310  0.00  0.00    +0.000 OA
ATOM     25  C   UNL     1       0.421   2.288  19.656  0.00  0.00    +0.000 A 
ATOM     26  C   UNL     1       1.514   2.789  20.327  0.00  0.00    +0.000 A 
ATOM     27  C   UNL     1       2.445   3.006  19.288  0.00  0.00    +0.000 A 
ATOM     28  C   UNL     1       5.163   3.770  17.084  0.00  0.00    +0.000 A 
ATOM     29  O   UNL     1       5.442   3.638  15.896  0.00  0.00    +0.000 OA
ENDBRANCH  16  17
ENDBRANCH   1  16
TORSDOF 7
ENDMDL
MODEL 5
REMARK VINA RESULT:      -7.7      2.548      4.983
REMARK  Name = 
REMARK  8 active torsions:
REMARK  status: ('A' for Active; 'I' for Inactive)
REMARK    1  A    between atoms: C_1  and  O_2
REMARK    2  A    between atoms: O_2  and  C_3
REMARK    3  A    between atoms: C_7  and  C_8
REMARK    4  A    between atoms: C_8  and  N_9
REMARK    5  A    between atoms: C_10  and  C_12
REMARK    6  A    between atoms: C_12  and  C_13
REMARK    7  A    between atoms: C_13  and  C_14
REMARK    8  A    between atoms: C_14  and  N_15
REMARK                            x       y       z     vdW  Elec       q    Type
REMARK                         _______ _______ _______ _____ _____    ______ ____
ROOT
ATOM      1  C   UNL     1       2.025   4.029  20.148  0.00  0.00    +0.000 C 
ENDROOT
BRANCH   1   2
ATOM      2  C   UNL     1       2.201   5.237  21.070  0.00  0.00    +0.000 C 
BRANCH   2   4
ATOM      3  N   UNL     1       1.514   7.568  20.953  0.00  0.00    +0.000 N 
ATOM      4  C   UNL     1       2.094   6.524  20.269  0.00  0.00    +0.000 C 
ATOM      5  O   UNL     1       2.484   6.626  19.109  0.00  0.00    +0.000 OA
ATOM      6  H   UNL     1       1.213   7.448  21.909  0.00  0.00    +0.000 HD
BRANCH   3   7
ATOM      7  C   UNL     1       1.260   8.834  20.301  0.00  0.00    +0.000 C 
BRANCH   7  12
ATOM      8  C   UNL     1      -0.501  11.964  21.581  0.00  0.00    +0.000 A 
ATOM      9  C   UNL     1      -1.021  11.499  22.791  0.00  0.00    +0.000 A 
ATOM     10  C   UNL     1      -0.838  10.172  23.179  0.00  0.00    +0.000 A 
ATOM     11  C   UNL     1      -0.119   9.302  22.362  0.00  0.00    +0.000 A 
ATOM     12  C   UNL     1       0.430   9.756  21.154  0.00  0.00    +0.000 A 
ATOM     13  C   UNL     1       0.215  11.087  20.763  0.00  0.00    +0.000 A 
BRANCH   8  15
ATOM     14  C   UNL     1      -1.026  13.635  19.974  0.00  0.00    +0.000 C 
ATOM     15  O   UNL     1      -0.742  13.286  21.324  0.00  0.00    +0.000 OA
ENDBRANCH   8  15
ENDBRANCH   7  12
ENDBRANCH   3   7
ENDBRANCH   2   4
ENDBRANCH   1   2
BRANCH   1  16
ATOM     16  C   UNL     1       3.276   3.165  20.045  0.00  0.00    +0.000 C 
BRANCH  16  17
ATOM     17  N   UNL     1       4.004   3.439  18.807  0.00  0.00    +0.000 N 
ATOM     18  N   UNL     1       3.503   2.821  17.656  0.00  0.00    +0.000 NA
ATOM     19  C   UNL     1       4.117   3.013  16.527  0.00  0.00    +0.000 A 
ATOM     20  N   UNL     1       5.235   3.815  16.458  0.00  0.00    +0.000 N 
ATOM     21  C   UNL     1       5.789   4.426  17.560  0.00  0.00    +0.000 A 
ATOM     22  C   UNL     1       6.882   5.194  17.180  0.00  0.00    +0.000 A 
ATOM     23  C   UNL     1       6.944   5.005  15.790  0.00  0.00    +0.000 A 
ATOM     24  O   UNL     1       7.708   5.433  14.753  0.00  0.00    +0.000 OA
ATOM     25  C   UNL     1       7.169   4.823  13.657  0.00  0.00    +0.000 A 
ATOM     26  C   UNL     1       6.091   4.021  13.959  0.00  0.00    +0.000 A 
ATOM     27  C   UNL     1       5.970   4.175  15.357  0.00  0.00    +0.000 A 
ATOM     28  C   UNL     1       5.187   4.209  18.852  0.00  0.00    +0.000 A 
ATOM     29  O   UNL     1       5.654   4.668  19.890  0.00  0.00    +0.000 OA
ENDBRANCH  16  17
ENDBRANCH   1  16
TORSDOF 7
ENDMDL
MODEL 6
REMARK VINA RESULT:      -7.6      1.504      4.598
REMARK  Name = 
REMARK  8 active torsions:
REMARK  status: ('A' for Active; 'I' for Inactive)
REMARK    1  A    between atoms: C_1  and  O_2
REMARK    2  A    between atoms: O_2  and  C_3
REMARK    3  A    between atoms: C_7  and  C_8
REMARK    4  A    between atoms: C_8  and  N_9
REMARK    5  A    between atoms: C_10  and  C_12
REMARK    6  A    between atoms: C_12  and  C_13
REMARK    7  A    between atoms: C_13  and  C_14
REMARK    8  A    between atoms: C_14  and  N_15
REMARK                            x       y       z     vdW  Elec       q    Type
REMARK                         _______ _______ _______ _____ _____    ______ ____
ROOT
ATOM      1  C   UNL     1       1.777   2.025  19.873  0.00  0.00    +0.000 C 
ENDROOT
BRANCH   1   2
ATOM      2  C   UNL     1       0.909   3.283  19.811  0.00  0.00    +0.000 C 
BRANCH   2   4
ATOM      3  N   UNL     1       1.752   5.552  19.560  0.00  0.00    +0.000 N 
ATOM      4  C   UNL     1       1.660   4.465  20.401  0.00  0.00    +0.000 C 
ATOM      5  O   UNL     1       2.148   4.455  21.527  0.00  0.00    +0.000 OA
ATOM      6  H   UNL     1       1.330   5.525  18.644  0.00  0.00    +0.000 HD
BRANCH   3   7
ATOM      7  C   UNL     1       2.511   6.723  19.941  0.00  0.00    +0.000 C 
BRANCH   7  12
ATOM      8  C   UNL     1       0.718  10.047  19.420  0.00  0.00    +0.000 A 
ATOM      9  C   UNL     1       0.075  10.197  20.650  0.00  0.00    +0.000 A 
ATOM     10  C   UNL     1       0.188   9.215  21.634  0.00  0.00    +0.000 A 
ATOM     11  C   UNL     1       0.958   8.077  21.396  0.00  0.00    +0.000 A 
ATOM     12  C   UNL     1       1.629   7.920  20.175  0.00  0.00    +0.000 A 
ATOM     13  C   UNL     1       1.485   8.903  19.183  0.00  0.00    +0.000 A 
BRANCH   8  15
ATOM     14  C   UNL     1       0.464  12.390  19.109  0.00  0.00    +0.000 C 
ATOM     15  O   UNL     1       0.536  11.084  18.547  0.00  0.00    +0.000 OA
ENDBRANCH   8  15
ENDBRANCH   7  12
ENDBRANCH   3   7
ENDBRANCH   2   4
ENDBRANCH   1   2
BRANCH   1  16
ATOM     16  C   UNL     1       2.620   1.815  18.621  0.00  0.00    +0.000 C 
BRANCH  16  17
ATOM     17  N   UNL     1       3.617   2.874  18.472  0.00  0.00    +0.000 N 
ATOM     18  N   UNL     1       4.587   2.944  19.478  0.00  0.00    +0.000 NA
ATOM     19  C   UNL     1       5.491   3.874  19.411  0.00  0.00    +0.000 A 
ATOM     20  N   UNL     1       5.503   4.772  18.365  0.00  0.00    +0.000 N 
ATOM     21  C   UNL     1       4.561   4.770  17.362  0.00  0.00    +0.000 A 
ATOM     22  C   UNL     1       4.849   5.762  16.435  0.00  0.00    +0.000 A 
ATOM     23  C   UNL     1       6.017   6.352  16.943  0.00  0.00    +0.000 A 
ATOM     24  O   UNL     1       6.874   7.343  16.591  0.00  0.00    +0.000 OA
ATOM     25  C   UNL     1       7.808   7.357  17.586  0.00  0.00    +0.000 A 
ATOM     26  C   UNL     1       7.574   6.413  18.561  0.00  0.00    +0.000 A 
ATOM     27  C   UNL     1       6.404   5.772  18.100  0.00  0.00    +0.000 A 
ATOM     28  C   UNL     1       3.498   3.796  17.410  0.00  0.00    +0.000 A 
ATOM     29  O   UNL     1       2.586   3.766  16.588  0.00  0.00    +0.000 OA
ENDBRANCH  16  17
ENDBRANCH   1  16
TORSDOF 7
ENDMDL
MODEL 7
REMARK VINA RESULT:      -7.5      2.928      5.370
REMARK  Name = 
REMARK  8 active torsions:
REMARK  status: ('A' for Active; 'I' for Inactive)
REMARK    1  A    between atoms: C_1  and  O_2
REMARK    2  A    between atoms: O_2  and  C_3
REMARK    3  A    between atoms: C_7  and  C_8
REMARK    4  A    between atoms: C_8  and  N_9
REMARK    5  A    between atoms: C_10  and  C_12
REMARK    6  A    between atoms: C_12  and  C_13
REMARK    7  A    between atoms: C_13  and  C_14
REMARK    8  A    between atoms: C_14  and  N_15
REMARK                            x       y       z     vdW  Elec       q    Type
REMARK                         _______ _______ _______ _____ _____    ______ ____
ROOT
ATOM      1  C   UNL     1       1.991   5.760  20.146  0.00  0.00    +0.000 C 
ENDROOT
BRANCH   1   2
ATOM      2  C   UNL     1       2.427   7.156  19.695  0.00  0.00    +0.000 C 
BRANCH   2   4
ATOM      3  N   UNL     1       1.001   9.106  19.406  0.00  0.00    +0.000 N 
ATOM      4  C   UNL     1       1.522   8.209  20.312  0.00  0.00    +0.000 C 
ATOM      5  O   UNL     1       1.279   8.264  21.514  0.00  0.00    +0.000 OA
ATOM      6  H   UNL     1       1.218   9.024  18.424  0.00  0.00    +0.000 HD
BRANCH   3   7
ATOM      7  C   UNL     1       0.193  10.222  19.847  0.00  0.00    +0.000 C 
BRANCH   7  12
ATOM      8  C   UNL     1      -3.143  11.490  18.505  0.00  0.00    +0.000 A 
ATOM      9  C   UNL     1      -3.177  10.875  17.253  0.00  0.00    +0.000 A 
ATOM     10  C   UNL     1      -2.113  10.081  16.823  0.00  0.00    +0.000 A 
ATOM     11  C   UNL     1      -1.010   9.889  17.654  0.00  0.00    +0.000 A 
ATOM     12  C   UNL     1      -0.968  10.480  18.924  0.00  0.00    +0.000 A 
ATOM     13  C   UNL     1      -2.034  11.298  19.333  0.00  0.00    +0.000 A 
BRANCH   8  15
ATOM     14  C   UNL     1      -5.398  12.039  17.988  0.00  0.00    +0.000 C 
ATOM     15  O   UNL     1      -4.252  12.231  18.810  0.00  0.00    +0.000 OA
ENDBRANCH   8  15
ENDBRANCH   7  12
ENDBRANCH   3   7
ENDBRANCH   2   4
ENDBRANCH   1   2
BRANCH   1  16
ATOM     16  C   UNL     1       3.143   4.765  20.217  0.00  0.00    +0.000 C 
BRANCH  16  17
ATOM     17  N   UNL     1       3.844   4.678  18.937  0.00  0.00    +0.000 N 
ATOM     18  N   UNL     1       3.131   4.083  17.891  0.00  0.00    +0.000 NA
ATOM     19  C   UNL     1       3.706   3.961  16.732  0.00  0.00    +0.000 A 
ATOM     20  N   UNL     1       4.992   4.417  16.531  0.00  0.00    +0.000 N 
ATOM     21  C   UNL     1       5.751   4.986  17.528  0.00  0.00    +0.000 A 
ATOM     22  C   UNL     1       6.983   5.378  17.023  0.00  0.00    +0.000 A 
ATOM     23  C   UNL     1       6.912   5.011  15.670  0.00  0.00    +0.000 A 
ATOM     24  O   UNL     1       7.701   5.086  14.568  0.00  0.00    +0.000 OA
ATOM     25  C   UNL     1       6.956   4.514  13.576  0.00  0.00    +0.000 A 
ATOM     26  C   UNL     1       5.725   4.076  14.007  0.00  0.00    +0.000 A 
ATOM     27  C   UNL     1       5.730   4.427  15.375  0.00  0.00    +0.000 A 
ATOM     28  C   UNL     1       5.189   5.100  18.851  0.00  0.00    +0.000 A 
ATOM     29  O   UNL     1       5.821   5.540  19.807  0.00  0.00    +0.000 OA
ENDBRANCH  16  17
ENDBRANCH   1  16
TORSDOF 7
ENDMDL
MODEL 8
REMARK VINA RESULT:      -7.5      2.330      4.802
REMARK  Name = 
REMARK  8 active torsions:
REMARK  status: ('A' for Active; 'I' for Inactive)
REMARK    1  A    between atoms: C_1  and  O_2
REMARK    2  A    between atoms: O_2  and  C_3
REMARK    3  A    between atoms: C_7  and  C_8
REMARK    4  A    between atoms: C_8  and  N_9
REMARK    5  A    between atoms: C_10  and  C_12
REMARK    6  A    between atoms: C_12  and  C_13
REMARK    7  A    between atoms: C_13  and  C_14
REMARK    8  A    between atoms: C_14  and  N_15
REMARK                            x       y       z     vdW  Elec       q    Type
REMARK                         _______ _______ _______ _____ _____    ______ ____
ROOT
ATOM      1  C   UNL     1       2.038   4.062  20.196  0.00  0.00    +0.000 C 
ENDROOT
BRANCH   1   2
ATOM      2  C   UNL     1       2.122   5.439  20.855  0.00  0.00    +0.000 C 
BRANCH   2   4
ATOM      3  N   UNL     1       1.829   7.780  20.260  0.00  0.00    +0.000 N 
ATOM      4  C   UNL     1       2.152   6.526  19.793  0.00  0.00    +0.000 C 
ATOM      5  O   UNL     1       2.434   6.307  18.619  0.00  0.00    +0.000 OA
ATOM      6  H   UNL     1       1.610   7.921  21.235  0.00  0.00    +0.000 HD
BRANCH   3   7
ATOM      7  C   UNL     1       1.727   8.905  19.356  0.00  0.00    +0.000 C 
BRANCH   7  12
ATOM      8  C   UNL     1      -1.355  11.149  19.291  0.00  0.00    +0.000 A 
ATOM      9  C   UNL     1      -1.252  11.777  20.534  0.00  0.00    +0.000 A 
ATOM     10  C   UNL     1      -0.214  11.455  21.409  0.00  0.00    +0.000 A 
ATOM     11  C   UNL     1       0.738  10.506  21.037  0.00  0.00    +0.000 A 
ATOM     12  C   UNL     1       0.664   9.882  19.784  0.00  0.00    +0.000 A 
ATOM     13  C   UNL     1      -0.401  10.197  18.925  0.00  0.00    +0.000 A 
BRANCH   8  15
ATOM     14  C   UNL     1      -2.379  11.211  17.147  0.00  0.00    +0.000 C 
ATOM     15  O   UNL     1      -2.410  11.563  18.526  0.00  0.00    +0.000 OA
ENDBRANCH   8  15
ENDBRANCH   7  12
ENDBRANCH   3   7
ENDBRANCH   2   4
ENDBRANCH   1   2
BRANCH   1  16
ATOM     16  C   UNL     1       3.376   3.334  20.151  0.00  0.00    +0.000 C 
BRANCH  16  17
ATOM     17  N   UNL     1       4.066   3.577  18.885  0.00  0.00    +0.000 N 
ATOM     18  N   UNL     1       3.443   3.062  17.743  0.00  0.00    +0.000 NA
ATOM     19  C   UNL     1       4.016   3.230  16.590  0.00  0.00    +0.000 A 
ATOM     20  N   UNL     1       5.210   3.911  16.486  0.00  0.00    +0.000 N 
ATOM     21  C   UNL     1       5.882   4.417  17.576  0.00  0.00    +0.000 A 
ATOM     22  C   UNL     1       7.030   5.078  17.163  0.00  0.00    +0.000 A 
ATOM     23  C   UNL     1       7.001   4.938  15.766  0.00  0.00    +0.000 A 
ATOM     24  O   UNL     1       7.753   5.322  14.704  0.00  0.00    +0.000 OA
ATOM     25  C   UNL     1       7.097   4.817  13.619  0.00  0.00    +0.000 A 
ATOM     26  C   UNL     1       5.955   4.122  13.953  0.00  0.00    +0.000 A 
ATOM     27  C   UNL     1       5.923   4.234  15.360  0.00  0.00    +0.000 A 
ATOM     28  C   UNL     1       5.326   4.214  18.891  0.00  0.00    +0.000 A 
ATOM     29  O   UNL     1       5.892   4.581  19.917  0.00  0.00    +0.000 OA
ENDBRANCH  16  17
ENDBRANCH   1  16
TORSDOF 7
ENDMDL
MODEL 9
REMARK VINA RESULT:      -7.4      2.666      5.064
REMARK  Name = 
REMARK  8 active torsions:
REMARK  status: ('A' for Active; 'I' for Inactive)
REMARK    1  A    between atoms: C_1  and  O_2
REMARK    2  A    between atoms: O_2  and  C_3
REMARK    3  A    between atoms: C_7  and  C_8
REMARK    4  A    between atoms: C_8  and  N_9
REMARK    5  A    between atoms: C_10  and  C_12
REMARK    6  A    between atoms: C_12  and  C_13
REMARK    7  A    between atoms: C_13  and  C_14
REMARK    8  A    between atoms: C_14  and  N_15
REMARK                            x       y       z     vdW  Elec       q    Type
REMARK                         _______ _______ _______ _____ _____    ______ ____
ROOT
ATOM      1  C   UNL     1       1.789   5.567  20.024  0.00  0.00    +0.000 C 
ENDROOT
BRANCH   1   2
ATOM      2  C   UNL     1       1.917   6.982  20.590  0.00  0.00    +0.000 C 
BRANCH   2   4
ATOM      3  N   UNL     1       1.235   9.158  19.740  0.00  0.00    +0.000 N 
ATOM      4  C   UNL     1       1.923   7.998  19.460  0.00  0.00    +0.000 C 
ATOM      5  O   UNL     1       2.485   7.803  18.387  0.00  0.00    +0.000 OA
ATOM      6  H   UNL     1       0.792   9.284  20.638  0.00  0.00    +0.000 HD
BRANCH   3   7
ATOM      7  C   UNL     1       1.073  10.185  18.735  0.00  0.00    +0.000 C 
BRANCH   7  12
ATOM      8  C   UNL     1      -2.442  11.637  19.009  0.00  0.00    +0.000 A 
ATOM      9  C   UNL     1      -3.097  10.940  17.993  0.00  0.00    +0.000 A 
ATOM     10  C   UNL     1      -2.403  10.030  17.195  0.00  0.00    +0.000 A 
ATOM     11  C   UNL     1      -1.046   9.802  17.420  0.00  0.00    +0.000 A 
ATOM     12  C   UNL     1      -0.377  10.477  18.451  0.00  0.00    +0.000 A 
ATOM     13  C   UNL     1      -1.081  11.410  19.228  0.00  0.00    +0.000 A 
BRANCH   8  15
ATOM     14  C   UNL     1      -2.909  12.675  21.096  0.00  0.00    +0.000 C 
ATOM     15  O   UNL     1      -3.238  12.490  19.724  0.00  0.00    +0.000 OA
ENDBRANCH   8  15
ENDBRANCH   7  12
ENDBRANCH   3   7
ENDBRANCH   2   4
ENDBRANCH   1   2
BRANCH   1  16
ATOM     16  C   UNL     1       3.065   4.746  20.163  0.00  0.00    +0.000 C 
BRANCH  16  17
ATOM     17  N   UNL     1       3.787   4.675  18.894  0.00  0.00    +0.000 N 
ATOM     18  N   UNL     1       3.094   4.084  17.832  0.00  0.00    +0.000 NA
ATOM     19  C   UNL     1       3.688   3.976  16.681  0.00  0.00    +0.000 A 
ATOM     20  N   UNL     1       4.973   4.442  16.504  0.00  0.00    +0.000 N 
ATOM     21  C   UNL     1       5.713   5.008  17.517  0.00  0.00    +0.000 A 
ATOM     22  C   UNL     1       6.951   5.412  17.035  0.00  0.00    +0.000 A 
ATOM     23  C   UNL     1       6.903   5.056  15.677  0.00  0.00    +0.000 A 
ATOM     24  O   UNL     1       7.708   5.146  14.589  0.00  0.00    +0.000 OA
ATOM     25  C   UNL     1       6.983   4.578  13.580  0.00  0.00    +0.000 A 
ATOM     26  C   UNL     1       5.747   4.128  13.989  0.00  0.00    +0.000 A 
ATOM     27  C   UNL     1       5.730   4.468  15.360  0.00  0.00    +0.000 A 
ATOM     28  C   UNL     1       5.130   5.106  18.832  0.00  0.00    +0.000 A 
ATOM     29  O   UNL     1       5.744   5.542  19.802  0.00  0.00    +0.000 OA
ENDBRANCH  16  17
ENDBRANCH   1  16
TORSDOF 7
ENDMDL
