MODEL 1
REMARK VINA RESULT:      -8.8      0.000      0.000
REMARK  Name = 
REMARK  8 active torsions:
REMARK  status: ('A' for Active; 'I' for Inactive)
REMARK    1  A    between atoms: C_2  and  C_25
REMARK    2  A    between atoms: N_3  and  N_4
REMARK    3  A    between atoms: C_5  and  C_7
REMARK    4  A    between atoms: C_11  and  N_12
REMARK    5  A    between atoms: N_12  and  S_13
REMARK    6  A    between atoms: S_13  and  C_16
REMARK    7  A    between atoms: C_19  and  O_20
REMARK    8  A    between atoms: C_22  and  O_23
REMARK                            x       y       z     vdW  Elec       q    Type
REMARK                         _______ _______ _______ _____ _____    ______ ____
ROOT
ATOM      1  C   UNL     1       2.693   4.562  19.421  0.00  0.00    +0.000 A 
ATOM      2  C   UNL     1       2.086   3.444  18.836  0.00  0.00    +0.000 A 
ATOM      3  C   UNL     1       2.851   2.539  18.101  0.00  0.00    +0.000 A 
ATOM      4  C   UNL     1       4.224   2.747  17.957  0.00  0.00    +0.000 A 
ATOM      5  C   UNL     1       4.837   3.836  18.576  0.00  0.00    +0.000 A 
ATOM      6  C   UNL     1       4.077   4.750  19.308  0.00  0.00    +0.000 A 
ENDROOT
BRANCH   1   8
ATOM      7  N   UNL     1       2.270   6.815  20.241  0.00  0.00    +0.000 N 
ATOM      8  C   UNL     1       1.844   5.504  20.192  0.00  0.00    +0.000 C 
ATOM      9  O   UNL     1       0.811   5.119  20.734  0.00  0.00    +0.000 OA
ATOM     10  H   UNL     1       3.039   7.208  19.699  0.00  0.00    +0.000 HD
BRANCH   7  13
ATOM     11  O   UNL     1       1.424   9.188  19.229  0.00  0.00    +0.000 OA
ATOM     12  C   UNL     1       1.153   8.913  20.394  0.00  0.00    +0.000 C 
ATOM     13  N   UNL     1       1.512   7.720  20.982  0.00  0.00    +0.000 N 
ATOM     14  H   UNL     1       1.165   7.389  21.881  0.00  0.00    +0.000 HD
BRANCH  12  15
ATOM     15  C   UNL     1       0.387   9.859  21.247  0.00  0.00    +0.000 A 
ATOM     16  C   UNL     1       0.344  11.211  20.879  0.00  0.00    +0.000 A 
ATOM     17  C   UNL     1      -0.363  12.126  21.664  0.00  0.00    +0.000 A 
ATOM     18  C   UNL     1      -1.009  11.687  22.814  0.00  0.00    +0.000 A 
ATOM     19  F   UNL     1      -1.684  12.565  23.568  0.00  0.00    +0.000 F 
ATOM     20  C   UNL     1      -0.960  10.352  23.201  0.00  0.00    +0.000 A 
ATOM     21  C   UNL     1      -0.257   9.432  22.419  0.00  0.00    +0.000 A 
ENDBRANCH  12  15
ENDBRANCH   7  13
ENDBRANCH   1   8
BRANCH   5  22
ATOM     22  N   UNL     1       6.240   4.017  18.416  0.00  0.00    +0.000 N 
ATOM     23  H   UNL     1       6.764   4.342  19.233  0.00  0.00    +0.000 HD
BRANCH  22  24
ATOM     24  S   UNL     1       6.793   4.783  17.008  0.00  0.00    +0.000 S 
ATOM     25  O   UNL     1       7.933   4.035  16.525  0.00  0.00    +0.000 OA
ATOM     26  O   UNL     1       5.656   5.037  16.150  0.00  0.00    +0.000 OA
BRANCH  24  27
ATOM     27  C   UNL     1       7.381   6.321  17.563  0.00  0.00    +0.000 A 
ATOM     28  C   UNL     1       7.119   7.484  16.881  0.00  0.00    +0.000 A 
ATOM     29  N   UNL     1       7.560   8.691  17.304  0.00  0.00    +0.000 NA
ATOM     30  C   UNL     1       8.295   8.674  18.421  0.00  0.00    +0.000 A 
ATOM     31  N   UNL     1       8.604   7.611  19.165  0.00  0.00    +0.000 NA
ATOM     32  C   UNL     1       8.130   6.451  18.701  0.00  0.00    +0.000 A 
BRANCH  30  33
ATOM     33  O   UNL     1       8.759   9.882  18.828  0.00  0.00    +0.000 OA
ATOM     34  H   UNL     1       8.936  10.293  17.967  0.00  0.00    +0.000 HD
ENDBRANCH  30  33
BRANCH  32  35
ATOM     35  O   UNL     1       8.395   5.413  19.533  0.00  0.00    +0.000 OA
ATOM     36  H   UNL     1       8.094   5.787  20.387  0.00  0.00    +0.000 HD
ENDBRANCH  32  35
ENDBRANCH  24  27
ENDBRANCH  22  24
ENDBRANCH   5  22
TORSDOF 8
ENDMDL
MODEL 2
REMARK VINA RESULT:      -8.4      2.658      4.523
REMARK  Name = 
REMARK  8 active torsions:
REMARK  status: ('A' for Active; 'I' for Inactive)
REMARK    1  A    between atoms: C_2  and  C_25
REMARK    2  A    between atoms: N_3  and  N_4
REMARK    3  A    between atoms: C_5  and  C_7
REMARK    4  A    between atoms: C_11  and  N_12
REMARK    5  A    between atoms: N_12  and  S_13
REMARK    6  A    between atoms: S_13  and  C_16
REMARK    7  A    between atoms: C_19  and  O_20
REMARK    8  A    between atoms: C_22  and  O_23
REMARK                            x       y       z     vdW  Elec       q    Type
REMARK                         _______ _______ _______ _____ _____    ______ ____
ROOT
ATOM      1  C   UNL     1       1.282   9.076  19.243  0.00  0.00    +0.000 A 
ATOM      2  C   UNL     1       1.746   9.310  17.942  0.00  0.00    +0.000 A 
ATOM      3  C   UNL     1       2.671   8.442  17.364  0.00  0.00    +0.000 A 
ATOM      4  C   UNL     1       3.127   7.335  18.082  0.00  0.00    +0.000 A 
ATOM      5  C   UNL     1       2.634   7.076  19.360  0.00  0.00    +0.000 A 
ATOM      6  C   UNL     1       1.713   7.944  19.948  0.00  0.00    +0.000 A 
ENDROOT
BRANCH   1   8
ATOM      7  N   UNL     1       0.782  10.891  20.785  0.00  0.00    +0.000 N 
ATOM      8  C   UNL     1       0.302  10.025  19.826  0.00  0.00    +0.000 C 
ATOM      9  O   UNL     1      -0.867  10.033  19.446  0.00  0.00    +0.000 OA
ATOM     10  H   UNL     1       1.762  11.014  21.034  0.00  0.00    +0.000 HD
BRANCH   7  13
ATOM     11  O   UNL     1      -0.244  10.496  23.268  0.00  0.00    +0.000 OA
ATOM     12  C   UNL     1      -0.609  11.477  22.628  0.00  0.00    +0.000 C 
ATOM     13  N   UNL     1      -0.119  11.775  21.376  0.00  0.00    +0.000 N 
ATOM     14  H   UNL     1      -0.270  12.658  20.890  0.00  0.00    +0.000 HD
BRANCH  12  15
ATOM     15  C   UNL     1      -1.602  12.431  23.187  0.00  0.00    +0.000 A 
ATOM     16  C   UNL     1      -2.901  11.972  23.448  0.00  0.00    +0.000 A 
ATOM     17  C   UNL     1      -3.860  12.846  23.969  0.00  0.00    +0.000 A 
ATOM     18  C   UNL     1      -3.518  14.172  24.210  0.00  0.00    +0.000 A 
ATOM     19  F   UNL     1      -4.437  15.010  24.705  0.00  0.00    +0.000 F 
ATOM     20  C   UNL     1      -2.239  14.646  23.938  0.00  0.00    +0.000 A 
ATOM     21  C   UNL     1      -1.276  13.776  23.422  0.00  0.00    +0.000 A 
ENDBRANCH  12  15
ENDBRANCH   7  13
ENDBRANCH   1   8
BRANCH   5  22
ATOM     22  N   UNL     1       3.114   5.935  20.063  0.00  0.00    +0.000 N 
ATOM     23  H   UNL     1       3.991   6.041  20.579  0.00  0.00    +0.000 HD
BRANCH  22  24
ATOM     24  S   UNL     1       3.059   4.431  19.282  0.00  0.00    +0.000 S 
ATOM     25  O   UNL     1       3.248   3.410  20.289  0.00  0.00    +0.000 OA
ATOM     26  O   UNL     1       1.901   4.409  18.414  0.00  0.00    +0.000 OA
BRANCH  24  27
ATOM     27  C   UNL     1       4.469   4.426  18.267  0.00  0.00    +0.000 A 
ATOM     28  C   UNL     1       4.385   4.214  16.913  0.00  0.00    +0.000 A 
ATOM     29  N   UNL     1       5.472   4.217  16.107  0.00  0.00    +0.000 NA
ATOM     30  C   UNL     1       6.642   4.413  16.723  0.00  0.00    +0.000 A 
ATOM     31  N   UNL     1       6.841   4.634  18.023  0.00  0.00    +0.000 NA
ATOM     32  C   UNL     1       5.728   4.631  18.763  0.00  0.00    +0.000 A 
BRANCH  30  33
ATOM     33  O   UNL     1       7.733   4.388  15.917  0.00  0.00    +0.000 OA
ATOM     34  H   UNL     1       7.595   3.535  15.474  0.00  0.00    +0.000 HD
ENDBRANCH  30  33
BRANCH  32  35
ATOM     35  O   UNL     1       5.968   4.945  20.061  0.00  0.00    +0.000 OA
ATOM     36  H   UNL     1       6.887   5.279  19.998  0.00  0.00    +0.000 HD
ENDBRANCH  32  35
ENDBRANCH  24  27
ENDBRANCH  22  24
ENDBRANCH   5  22
TORSDOF 8
ENDMDL
MODEL 3
REMARK VINA RESULT:      -8.4      1.559      2.354
REMARK  Name = 
REMARK  8 active torsions:
REMARK  status: ('A' for Active; 'I' for Inactive)
REMARK    1  A    between atoms: C_2  and  C_25
REMARK    2  A    between atoms: N_3  and  N_4
REMARK    3  A    between atoms: C_5  and  C_7
REMARK    4  A    between atoms: C_11  and  N_12
REMARK    5  A    between atoms: N_12  and  S_13
REMARK    6  A    between atoms: S_13  and  C_16
REMARK    7  A    between atoms: C_19  and  O_20
REMARK    8  A    between atoms: C_22  and  O_23
REMARK                            x       y       z     vdW  Elec       q    Type
REMARK                         _______ _______ _______ _____ _____    ______ ____
ROOT
ATOM      1  C   UNL     1       2.324   5.691  19.977  0.00  0.00    +0.000 A 
ATOM      2  C   UNL     1       1.504   4.770  20.641  0.00  0.00    +0.000 A 
ATOM      3  C   UNL     1       1.760   3.404  20.537  0.00  0.00    +0.000 A 
ATOM      4  C   UNL     1       2.842   2.957  19.776  0.00  0.00    +0.000 A 
ATOM      5  C   UNL     1       3.686   3.874  19.150  0.00  0.00    +0.000 A 
ATOM      6  C   UNL     1       3.431   5.243  19.244  0.00  0.00    +0.000 A 
ENDROOT
BRANCH   1   8
ATOM      7  N   UNL     1       1.619   7.567  21.358  0.00  0.00    +0.000 N 
ATOM      8  C   UNL     1       2.016   7.136  20.109  0.00  0.00    +0.000 C 
ATOM      9  O   UNL     1       2.131   7.894  19.149  0.00  0.00    +0.000 OA
ATOM     10  H   UNL     1       1.639   7.010  22.210  0.00  0.00    +0.000 HD
BRANCH   7  13
ATOM     11  O   UNL     1      -0.764   8.391  22.365  0.00  0.00    +0.000 OA
ATOM     12  C   UNL     1       0.047   9.237  22.002  0.00  0.00    +0.000 C 
ATOM     13  N   UNL     1       1.292   8.914  21.509  0.00  0.00    +0.000 N 
ATOM     14  H   UNL     1       2.047   9.582  21.358  0.00  0.00    +0.000 HD
BRANCH  12  15
ATOM     15  C   UNL     1      -0.264  10.687  22.097  0.00  0.00    +0.000 A 
ATOM     16  C   UNL     1      -1.272  11.102  22.978  0.00  0.00    +0.000 A 
ATOM     17  C   UNL     1      -1.592  12.458  23.086  0.00  0.00    +0.000 A 
ATOM     18  C   UNL     1      -0.914  13.386  22.304  0.00  0.00    +0.000 A 
ATOM     19  F   UNL     1      -1.223  14.685  22.405  0.00  0.00    +0.000 F 
ATOM     20  C   UNL     1       0.077  12.987  21.412  0.00  0.00    +0.000 A 
ATOM     21  C   UNL     1       0.403  11.634  21.303  0.00  0.00    +0.000 A 
ENDBRANCH  12  15
ENDBRANCH   7  13
ENDBRANCH   1   8
BRANCH   5  22
ATOM     22  N   UNL     1       4.784   3.387  18.387  0.00  0.00    +0.000 N 
ATOM     23  H   UNL     1       5.624   3.110  18.903  0.00  0.00    +0.000 HD
BRANCH  22  24
ATOM     24  S   UNL     1       5.201   4.212  16.965  0.00  0.00    +0.000 S 
ATOM     25  O   UNL     1       5.959   3.299  16.138  0.00  0.00    +0.000 OA
ATOM     26  O   UNL     1       4.015   4.866  16.453  0.00  0.00    +0.000 OA
BRANCH  24  27
ATOM     27  C   UNL     1       6.291   5.455  17.499  0.00  0.00    +0.000 A 
ATOM     28  C   UNL     1       7.120   5.275  18.579  0.00  0.00    +0.000 A 
ATOM     29  N   UNL     1       7.983   6.228  19.002  0.00  0.00    +0.000 NA
ATOM     30  C   UNL     1       7.955   7.373  18.312  0.00  0.00    +0.000 A 
ATOM     31  N   UNL     1       7.201   7.655  17.249  0.00  0.00    +0.000 NA
ATOM     32  C   UNL     1       6.379   6.669  16.874  0.00  0.00    +0.000 A 
BRANCH  30  33
ATOM     33  O   UNL     1       8.801   8.337  18.754  0.00  0.00    +0.000 OA
ATOM     34  H   UNL     1       9.423   8.368  18.010  0.00  0.00    +0.000 HD
ENDBRANCH  30  33
BRANCH  32  35
ATOM     35  O   UNL     1       5.697   6.967  15.740  0.00  0.00    +0.000 OA
ATOM     36  H   UNL     1       6.026   6.264  15.143  0.00  0.00    +0.000 HD
ENDBRANCH  32  35
ENDBRANCH  24  27
ENDBRANCH  22  24
ENDBRANCH   5  22
TORSDOF 8
ENDMDL
MODEL 4
REMARK VINA RESULT:      -8.4      3.851      7.580
REMARK  Name = 
REMARK  8 active torsions:
REMARK  status: ('A' for Active; 'I' for Inactive)
REMARK    1  A    between atoms: C_2  and  C_25
REMARK    2  A    between atoms: N_3  and  N_4
REMARK    3  A    between atoms: C_5  and  C_7
REMARK    4  A    between atoms: C_11  and  N_12
REMARK    5  A    between atoms: N_12  and  S_13
REMARK    6  A    between atoms: S_13  and  C_16
REMARK    7  A    between atoms: C_19  and  O_20
REMARK    8  A    between atoms: C_22  and  O_23
REMARK                            x       y       z     vdW  Elec       q    Type
REMARK                         _______ _______ _______ _____ _____    ______ ____
ROOT
ATOM      1  C   UNL     1       6.653   5.482  17.540  0.00  0.00    +0.000 A 
ATOM      2  C   UNL     1       6.542   5.570  16.147  0.00  0.00    +0.000 A 
ATOM      3  C   UNL     1       5.682   4.715  15.459  0.00  0.00    +0.000 A 
ATOM      4  C   UNL     1       4.925   3.777  16.164  0.00  0.00    +0.000 A 
ATOM      5  C   UNL     1       5.002   3.718  17.555  0.00  0.00    +0.000 A 
ATOM      6  C   UNL     1       5.866   4.565  18.250  0.00  0.00    +0.000 A 
ENDROOT
BRANCH   1   8
ATOM      7  N   UNL     1       7.696   7.674  17.706  0.00  0.00    +0.000 N 
ATOM      8  C   UNL     1       7.583   6.406  18.235  0.00  0.00    +0.000 C 
ATOM      9  O   UNL     1       8.196   6.045  19.236  0.00  0.00    +0.000 OA
ATOM     10  H   UNL     1       7.112   8.062  16.966  0.00  0.00    +0.000 HD
BRANCH   7  13
ATOM     11  O   UNL     1       7.609  10.357  17.292  0.00  0.00    +0.000 OA
ATOM     12  C   UNL     1       8.483   9.900  18.023  0.00  0.00    +0.000 C 
ATOM     13  N   UNL     1       8.585   8.558  18.316  0.00  0.00    +0.000 N 
ATOM     14  H   UNL     1       9.184   8.168  19.042  0.00  0.00    +0.000 HD
BRANCH  12  15
ATOM     15  C   UNL     1       9.486  10.789  18.665  0.00  0.00    +0.000 A 
ATOM     16  C   UNL     1       9.440  10.960  20.056  0.00  0.00    +0.000 A 
ATOM     17  C   UNL     1      10.365  11.794  20.689  0.00  0.00    +0.000 A 
ATOM     18  C   UNL     1      11.319  12.461  19.928  0.00  0.00    +0.000 A 
ATOM     19  F   UNL     1      12.203  13.263  20.534  0.00  0.00    +0.000 F 
ATOM     20  C   UNL     1      11.364  12.316  18.545  0.00  0.00    +0.000 A 
ATOM     21  C   UNL     1      10.444  11.481  17.908  0.00  0.00    +0.000 A 
ENDBRANCH  12  15
ENDBRANCH   7  13
ENDBRANCH   1   8
BRANCH   5  22
ATOM     22  N   UNL     1       4.213   2.754  18.246  0.00  0.00    +0.000 N 
ATOM     23  H   UNL     1       4.446   1.769  18.098  0.00  0.00    +0.000 HD
BRANCH  22  24
ATOM     24  S   UNL     1       2.531   2.973  18.280  0.00  0.00    +0.000 S 
ATOM     25  O   UNL     1       2.086   3.134  16.913  0.00  0.00    +0.000 OA
ATOM     26  O   UNL     1       1.956   1.953  19.131  0.00  0.00    +0.000 OA
BRANCH  24  27
ATOM     27  C   UNL     1       2.316   4.500  19.080  0.00  0.00    +0.000 A 
ATOM     28  C   UNL     1       2.389   5.690  18.397  0.00  0.00    +0.000 A 
ATOM     29  N   UNL     1       2.213   6.888  19.001  0.00  0.00    +0.000 NA
ATOM     30  C   UNL     1       1.992   6.838  20.319  0.00  0.00    +0.000 A 
ATOM     31  N   UNL     1       1.896   5.746  21.079  0.00  0.00    +0.000 NA
ATOM     32  C   UNL     1       2.066   4.595  20.421  0.00  0.00    +0.000 A 
BRANCH  30  33
ATOM     33  O   UNL     1       1.844   8.041  20.928  0.00  0.00    +0.000 OA
ATOM     34  H   UNL     1       1.403   8.535  20.218  0.00  0.00    +0.000 HD
ENDBRANCH  30  33
BRANCH  32  35
ATOM     35  O   UNL     1       1.874   3.512  21.215  0.00  0.00    +0.000 OA
ATOM     36  H   UNL     1       1.064   3.783  21.695  0.00  0.00    +0.000 HD
ENDBRANCH  32  35
ENDBRANCH  24  27
ENDBRANCH  22  24
ENDBRANCH   5  22
TORSDOF 8
ENDMDL
MODEL 5
REMARK VINA RESULT:      -8.3      1.931      2.985
REMARK  Name = 
REMARK  8 active torsions:
REMARK  status: ('A' for Active; 'I' for Inactive)
REMARK    1  A    between atoms: C_2  and  C_25
REMARK    2  A    between atoms: N_3  and  N_4
REMARK    3  A    between atoms: C_5  and  C_7
REMARK    4  A    between atoms: C_11  and  N_12
REMARK    5  A    between atoms: N_12  and  S_13
REMARK    6  A    between atoms: S_13  and  C_16
REMARK    7  A    between atoms: C_19  and  O_20
REMARK    8  A    between atoms: C_22  and  O_23
REMARK                            x       y       z     vdW  Elec       q    Type
REMARK                         _______ _______ _______ _____ _____    ______ ____
ROOT
ATOM      1  C   UNL     1       2.282   4.607  19.509  0.00  0.00    +0.000 A 
ATOM      2  C   UNL     1       1.562   3.659  18.772  0.00  0.00    +0.000 A 
ATOM      3  C   UNL     1       2.238   2.680  18.044  0.00  0.00    +0.000 A 
ATOM      4  C   UNL     1       3.633   2.642  18.061  0.00  0.00    +0.000 A 
ATOM      5  C   UNL     1       4.350   3.558  18.830  0.00  0.00    +0.000 A 
ATOM      6  C   UNL     1       3.681   4.545  19.554  0.00  0.00    +0.000 A 
ENDROOT
BRANCH   1   8
ATOM      7  N   UNL     1       2.107   6.884  20.350  0.00  0.00    +0.000 N 
ATOM      8  C   UNL     1       1.527   5.636  20.266  0.00  0.00    +0.000 C 
ATOM      9  O   UNL     1       0.437   5.373  20.768  0.00  0.00    +0.000 OA
ATOM     10  H   UNL     1       2.936   7.187  19.840  0.00  0.00    +0.000 HD
BRANCH   7  13
ATOM     11  O   UNL     1       1.171   9.167  19.217  0.00  0.00    +0.000 OA
ATOM     12  C   UNL     1       1.025   9.005  20.424  0.00  0.00    +0.000 C 
ATOM     13  N   UNL     1       1.439   7.866  21.079  0.00  0.00    +0.000 N 
ATOM     14  H   UNL     1       1.188   7.625  22.038  0.00  0.00    +0.000 HD
BRANCH  12  15
ATOM     15  C   UNL     1       0.361  10.038  21.262  0.00  0.00    +0.000 A 
ATOM     16  C   UNL     1      -0.398   9.622  22.365  0.00  0.00    +0.000 A 
ATOM     17  C   UNL     1      -1.040  10.568  23.168  0.00  0.00    +0.000 A 
ATOM     18  C   UNL     1      -0.931  11.919  22.856  0.00  0.00    +0.000 A 
ATOM     19  F   UNL     1      -1.549  12.825  23.624  0.00  0.00    +0.000 F 
ATOM     20  C   UNL     1      -0.197  12.345  21.754  0.00  0.00    +0.000 A 
ATOM     21  C   UNL     1       0.449  11.403  20.950  0.00  0.00    +0.000 A 
ENDBRANCH  12  15
ENDBRANCH   7  13
ENDBRANCH   1   8
BRANCH   5  22
ATOM     22  N   UNL     1       5.772   3.489  18.831  0.00  0.00    +0.000 N 
ATOM     23  H   UNL     1       6.218   3.069  19.651  0.00  0.00    +0.000 HD
BRANCH  22  24
ATOM     24  S   UNL     1       6.640   4.850  18.311  0.00  0.00    +0.000 S 
ATOM     25  O   UNL     1       5.839   6.017  18.608  0.00  0.00    +0.000 OA
ATOM     26  O   UNL     1       7.998   4.740  18.800  0.00  0.00    +0.000 OA
BRANCH  24  27
ATOM     27  C   UNL     1       6.695   4.685  16.582  0.00  0.00    +0.000 A 
ATOM     28  C   UNL     1       6.087   3.637  15.936  0.00  0.00    +0.000 A 
ATOM     29  N   UNL     1       6.110   3.498  14.591  0.00  0.00    +0.000 NA
ATOM     30  C   UNL     1       6.791   4.440  13.929  0.00  0.00    +0.000 A 
ATOM     31  N   UNL     1       7.412   5.500  14.449  0.00  0.00    +0.000 NA
ATOM     32  C   UNL     1       7.342   5.586  15.781  0.00  0.00    +0.000 A 
BRANCH  30  33
ATOM     33  O   UNL     1       6.837   4.284  12.582  0.00  0.00    +0.000 OA
ATOM     34  H   UNL     1       6.256   5.012  12.310  0.00  0.00    +0.000 HD
ENDBRANCH  30  33
BRANCH  32  35
ATOM     35  O   UNL     1       7.910   6.722  16.257  0.00  0.00    +0.000 OA
ATOM     36  H   UNL     1       8.859   6.482  16.207  0.00  0.00    +0.000 HD
ENDBRANCH  32  35
ENDBRANCH  24  27
ENDBRANCH  22  24
ENDBRANCH   5  22
TORSDOF 8
ENDMDL
MODEL 6
REMARK VINA RESULT:      -8.3      3.536      4.878
REMARK  Name = 
REMARK  8 active torsions:
REMARK  status: ('A' for Active; 'I' for Inactive)
REMARK    1  A    between atoms: C_2  and  C_25
REMARK    2  A    between atoms: N_3  and  N_4
REMARK    3  A    between atoms: C_5  and  C_7
REMARK    4  A    between atoms: C_11  and  N_12
REMARK    5  A    between atoms: N_12  and  S_13
REMARK    6  A    between atoms: S_13  and  C_16
REMARK    7  A    between atoms: C_19  and  O_20
REMARK    8  A    between atoms: C_22  and  O_23
REMARK                            x       y       z     vdW  Elec       q    Type
REMARK                         _______ _______ _______ _____ _____    ______ ____
ROOT
ATOM      1  C   UNL     1       1.869   8.393  19.232  0.00  0.00    +0.000 A 
ATOM      2  C   UNL     1       1.397   8.146  20.528  0.00  0.00    +0.000 A 
ATOM      3  C   UNL     1       1.483   6.865  21.070  0.00  0.00    +0.000 A 
ATOM      4  C   UNL     1       2.048   5.831  20.321  0.00  0.00    +0.000 A 
ATOM      5  C   UNL     1       2.558   6.084  19.048  0.00  0.00    +0.000 A 
ATOM      6  C   UNL     1       2.469   7.363  18.496  0.00  0.00    +0.000 A 
ENDROOT
BRANCH   1   8
ATOM      7  N   UNL     1       1.241  10.724  19.540  0.00  0.00    +0.000 N 
ATOM      8  C   UNL     1       1.755   9.769  18.689  0.00  0.00    +0.000 C 
ATOM      9  O   UNL     1       2.123  10.025  17.545  0.00  0.00    +0.000 OA
ATOM     10  H   UNL     1       1.052  10.592  20.533  0.00  0.00    +0.000 HD
BRANCH   7  13
ATOM     11  O   UNL     1       1.596  12.923  21.093  0.00  0.00    +0.000 OA
ATOM     12  C   UNL     1       1.263  13.075  19.921  0.00  0.00    +0.000 C 
ATOM     13  N   UNL     1       1.092  12.021  19.052  0.00  0.00    +0.000 N 
ATOM     14  H   UNL     1       0.982  12.114  18.043  0.00  0.00    +0.000 HD
BRANCH  12  15
ATOM     15  C   UNL     1       1.045  14.433  19.357  0.00  0.00    +0.000 A 
ATOM     16  C   UNL     1      -0.264  14.925  19.278  0.00  0.00    +0.000 A 
ATOM     17  C   UNL     1      -0.503  16.196  18.746  0.00  0.00    +0.000 A 
ATOM     18  C   UNL     1       0.565  16.957  18.285  0.00  0.00    +0.000 A 
ATOM     19  F   UNL     1       0.336  18.172  17.772  0.00  0.00    +0.000 F 
ATOM     20  C   UNL     1       1.869  16.473  18.340  0.00  0.00    +0.000 A 
ATOM     21  C   UNL     1       2.113  15.206  18.873  0.00  0.00    +0.000 A 
ENDBRANCH  12  15
ENDBRANCH   7  13
ENDBRANCH   1   8
BRANCH   5  22
ATOM     22  N   UNL     1       3.134   5.010  18.313  0.00  0.00    +0.000 N 
ATOM     23  H   UNL     1       2.536   4.201  18.126  0.00  0.00    +0.000 HD
BRANCH  22  24
ATOM     24  S   UNL     1       4.704   4.513  18.718  0.00  0.00    +0.000 S 
ATOM     25  O   UNL     1       5.216   5.446  19.698  0.00  0.00    +0.000 OA
ATOM     26  O   UNL     1       4.677   3.093  18.991  0.00  0.00    +0.000 OA
BRANCH  24  27
ATOM     27  C   UNL     1       5.614   4.745  17.256  0.00  0.00    +0.000 A 
ATOM     28  C   UNL     1       5.014   5.138  16.085  0.00  0.00    +0.000 A 
ATOM     29  N   UNL     1       5.708   5.334  14.940  0.00  0.00    +0.000 NA
ATOM     30  C   UNL     1       7.021   5.091  15.018  0.00  0.00    +0.000 A 
ATOM     31  N   UNL     1       7.708   4.714  16.097  0.00  0.00    +0.000 NA
ATOM     32  C   UNL     1       6.968   4.550  17.198  0.00  0.00    +0.000 A 
BRANCH  30  33
ATOM     33  O   UNL     1       7.711   5.261  13.863  0.00  0.00    +0.000 OA
ATOM     34  H   UNL     1       7.300   4.570  13.319  0.00  0.00    +0.000 HD
ENDBRANCH  30  33
BRANCH  32  35
ATOM     35  O   UNL     1       7.718   4.252  18.287  0.00  0.00    +0.000 OA
ATOM     36  H   UNL     1       7.903   5.151  18.629  0.00  0.00    +0.000 HD
ENDBRANCH  32  35
ENDBRANCH  24  27
ENDBRANCH  22  24
ENDBRANCH   5  22
TORSDOF 8
ENDMDL
MODEL 7
REMARK VINA RESULT:      -8.3      2.867      3.640
REMARK  Name = 
REMARK  8 active torsions:
REMARK  status: ('A' for Active; 'I' for Inactive)
REMARK    1  A    between atoms: C_2  and  C_25
REMARK    2  A    between atoms: N_3  and  N_4
REMARK    3  A    between atoms: C_5  and  C_7
REMARK    4  A    between atoms: C_11  and  N_12
REMARK    5  A    between atoms: N_12  and  S_13
REMARK    6  A    between atoms: S_13  and  C_16
REMARK    7  A    between atoms: C_19  and  O_20
REMARK    8  A    between atoms: C_22  and  O_23
REMARK                            x       y       z     vdW  Elec       q    Type
REMARK                         _______ _______ _______ _____ _____    ______ ____
ROOT
ATOM      1  C   UNL     1       2.489   5.163  20.301  0.00  0.00    +0.000 A 
ATOM      2  C   UNL     1       1.961   4.109  21.057  0.00  0.00    +0.000 A 
ATOM      3  C   UNL     1       2.563   2.852  21.019  0.00  0.00    +0.000 A 
ATOM      4  C   UNL     1       3.698   2.650  20.232  0.00  0.00    +0.000 A 
ATOM      5  C   UNL     1       4.251   3.709  19.513  0.00  0.00    +0.000 A 
ATOM      6  C   UNL     1       3.650   4.968  19.540  0.00  0.00    +0.000 A 
ENDROOT
BRANCH   1   8
ATOM      7  N   UNL     1       2.225   7.425  19.441  0.00  0.00    +0.000 N 
ATOM      8  C   UNL     1       1.817   6.485  20.364  0.00  0.00    +0.000 C 
ATOM      9  O   UNL     1       0.934   6.702  21.190  0.00  0.00    +0.000 OA
ATOM     10  H   UNL     1       2.850   7.251  18.656  0.00  0.00    +0.000 HD
BRANCH   7  13
ATOM     11  O   UNL     1       2.086   9.065  17.281  0.00  0.00    +0.000 OA
ATOM     12  C   UNL     1       1.638   9.461  18.353  0.00  0.00    +0.000 C 
ATOM     13  N   UNL     1       1.636   8.687  19.492  0.00  0.00    +0.000 N 
ATOM     14  H   UNL     1       1.128   8.915  20.346  0.00  0.00    +0.000 HD
BRANCH  12  15
ATOM     15  C   UNL     1       1.039  10.815  18.479  0.00  0.00    +0.000 A 
ATOM     16  C   UNL     1       1.888  11.930  18.462  0.00  0.00    +0.000 A 
ATOM     17  C   UNL     1       1.356  13.216  18.585  0.00  0.00    +0.000 A 
ATOM     18  C   UNL     1      -0.017  13.378  18.737  0.00  0.00    +0.000 A 
ATOM     19  F   UNL     1      -0.526  14.610  18.858  0.00  0.00    +0.000 F 
ATOM     20  C   UNL     1      -0.870  12.280  18.774  0.00  0.00    +0.000 A 
ATOM     21  C   UNL     1      -0.344  10.992  18.648  0.00  0.00    +0.000 A 
ENDBRANCH  12  15
ENDBRANCH   7  13
ENDBRANCH   1   8
BRANCH   5  22
ATOM     22  N   UNL     1       5.413   3.472  18.725  0.00  0.00    +0.000 N 
ATOM     23  H   UNL     1       6.006   2.683  18.995  0.00  0.00    +0.000 HD
BRANCH  22  24
ATOM     24  S   UNL     1       6.360   4.804  18.273  0.00  0.00    +0.000 S 
ATOM     25  O   UNL     1       5.586   5.998  18.538  0.00  0.00    +0.000 OA
ATOM     26  O   UNL     1       7.681   4.638  18.839  0.00  0.00    +0.000 OA
BRANCH  24  27
ATOM     27  C   UNL     1       6.509   4.656  16.549  0.00  0.00    +0.000 A 
ATOM     28  C   UNL     1       5.918   3.626  15.858  0.00  0.00    +0.000 A 
ATOM     29  N   UNL     1       6.015   3.501  14.514  0.00  0.00    +0.000 NA
ATOM     30  C   UNL     1       6.751   4.435  13.903  0.00  0.00    +0.000 A 
ATOM     31  N   UNL     1       7.362   5.477  14.469  0.00  0.00    +0.000 NA
ATOM     32  C   UNL     1       7.218   5.551  15.796  0.00  0.00    +0.000 A 
BRANCH  30  33
ATOM     33  O   UNL     1       6.871   4.292  12.560  0.00  0.00    +0.000 OA
ATOM     34  H   UNL     1       6.814   5.222  12.286  0.00  0.00    +0.000 HD
ENDBRANCH  30  33
BRANCH  32  35
ATOM     35  O   UNL     1       7.781   6.671  16.316  0.00  0.00    +0.000 OA
ATOM     36  H   UNL     1       7.091   6.936  16.959  0.00  0.00    +0.000 HD
ENDBRANCH  32  35
ENDBRANCH  24  27
ENDBRANCH  22  24
ENDBRANCH   5  22
TORSDOF 8
ENDMDL
MODEL 8
REMARK VINA RESULT:      -8.2      2.658      4.787
REMARK  Name = 
REMARK  8 active torsions:
REMARK  status: ('A' for Active; 'I' for Inactive)
REMARK    1  A    between atoms: C_2  and  C_25
REMARK    2  A    between atoms: N_3  and  N_4
REMARK    3  A    between atoms: C_5  and  C_7
REMARK    4  A    between atoms: C_11  and  N_12
REMARK    5  A    between atoms: N_12  and  S_13
REMARK    6  A    between atoms: S_13  and  C_16
REMARK    7  A    between atoms: C_19  and  O_20
REMARK    8  A    between atoms: C_22  and  O_23
REMARK                            x       y       z     vdW  Elec       q    Type
REMARK                         _______ _______ _______ _____ _____    ______ ____
ROOT
ATOM      1  C   UNL     1       1.408   9.326  19.511  0.00  0.00    +0.000 A 
ATOM      2  C   UNL     1       1.697   9.392  18.143  0.00  0.00    +0.000 A 
ATOM      3  C   UNL     1       2.365   8.339  17.519  0.00  0.00    +0.000 A 
ATOM      4  C   UNL     1       2.737   7.216  18.260  0.00  0.00    +0.000 A 
ATOM      5  C   UNL     1       2.410   7.130  19.613  0.00  0.00    +0.000 A 
ATOM      6  C   UNL     1       1.748   8.182  20.246  0.00  0.00    +0.000 A 
ENDROOT
BRANCH   1   8
ATOM      7  N   UNL     1      -0.474  10.174  20.801  0.00  0.00    +0.000 N 
ATOM      8  C   UNL     1       0.700  10.468  20.140  0.00  0.00    +0.000 C 
ATOM      9  O   UNL     1       1.162  11.605  20.078  0.00  0.00    +0.000 OA
ATOM     10  H   UNL     1      -0.825   9.238  20.995  0.00  0.00    +0.000 HD
BRANCH   7  13
ATOM     11  O   UNL     1      -0.485  10.642  23.476  0.00  0.00    +0.000 OA
ATOM     12  C   UNL     1      -1.151  11.370  22.746  0.00  0.00    +0.000 C 
ATOM     13  N   UNL     1      -1.181  11.229  21.377  0.00  0.00    +0.000 N 
ATOM     14  H   UNL     1      -1.582  11.909  20.732  0.00  0.00    +0.000 HD
BRANCH  12  15
ATOM     15  C   UNL     1      -1.960  12.483  23.308  0.00  0.00    +0.000 A 
ATOM     16  C   UNL     1      -1.352  13.733  23.485  0.00  0.00    +0.000 A 
ATOM     17  C   UNL     1      -2.085  14.798  24.016  0.00  0.00    +0.000 A 
ATOM     18  C   UNL     1      -3.412  14.603  24.379  0.00  0.00    +0.000 A 
ATOM     19  F   UNL     1      -4.113  15.622  24.892  0.00  0.00    +0.000 F 
ATOM     20  C   UNL     1      -4.024  13.362  24.227  0.00  0.00    +0.000 A 
ATOM     21  C   UNL     1      -3.297  12.296  23.693  0.00  0.00    +0.000 A 
ENDBRANCH  12  15
ENDBRANCH   7  13
ENDBRANCH   1   8
BRANCH   5  22
ATOM     22  N   UNL     1       2.797   5.968  20.340  0.00  0.00    +0.000 N 
ATOM     23  H   UNL     1       3.607   6.055  20.959  0.00  0.00    +0.000 HD
BRANCH  22  24
ATOM     24  S   UNL     1       2.828   4.484  19.520  0.00  0.00    +0.000 S 
ATOM     25  O   UNL     1       2.857   3.437  20.518  0.00  0.00    +0.000 OA
ATOM     26  O   UNL     1       1.802   4.505  18.500  0.00  0.00    +0.000 OA
BRANCH  24  27
ATOM     27  C   UNL     1       4.366   4.474  18.713  0.00  0.00    +0.000 A 
ATOM     28  C   UNL     1       5.512   4.904  19.337  0.00  0.00    +0.000 A 
ATOM     29  N   UNL     1       6.720   4.893  18.727  0.00  0.00    +0.000 NA
ATOM     30  C   UNL     1       6.720   4.461  17.462  0.00  0.00    +0.000 A 
ATOM     31  N   UNL     1       5.675   4.017  16.762  0.00  0.00    +0.000 NA
ATOM     32  C   UNL     1       4.514   4.041  17.424  0.00  0.00    +0.000 A 
BRANCH  30  33
ATOM     33  O   UNL     1       7.927   4.478  16.843  0.00  0.00    +0.000 OA
ATOM     34  H   UNL     1       8.488   4.140  17.560  0.00  0.00    +0.000 HD
ENDBRANCH  30  33
BRANCH  32  35
ATOM     35  O   UNL     1       3.497   3.501  16.706  0.00  0.00    +0.000 OA
ATOM     36  H   UNL     1       3.956   2.742  16.289  0.00  0.00    +0.000 HD
ENDBRANCH  32  35
ENDBRANCH  24  27
ENDBRANCH  22  24
ENDBRANCH   5  22
TORSDOF 8
ENDMDL
MODEL 9
REMARK VINA RESULT:      -8.2      2.350      2.848
REMARK  Name = 
REMARK  8 active torsions:
REMARK  status: ('A' for Active; 'I' for Inactive)
REMARK    1  A    between atoms: C_2  and  C_25
REMARK    2  A    between atoms: N_3  and  N_4
REMARK    3  A    between atoms: C_5  and  C_7
REMARK    4  A    between atoms: C_11  and  N_12
REMARK    5  A    between atoms: N_12  and  S_13
REMARK    6  A    between atoms: S_13  and  C_16
REMARK    7  A    between atoms: C_19  and  O_20
REMARK    8  A    between atoms: C_22  and  O_23
REMARK                            x       y       z     vdW  Elec       q    Type
REMARK                         _______ _______ _______ _____ _____    ______ ____
ROOT
ATOM      1  C   UNL     1       2.470   5.061  20.293  0.00  0.00    +0.000 A 
ATOM      2  C   UNL     1       2.140   4.122  21.279  0.00  0.00    +0.000 A 
ATOM      3  C   UNL     1       2.733   2.860  21.267  0.00  0.00    +0.000 A 
ATOM      4  C   UNL     1       3.662   2.539  20.276  0.00  0.00    +0.000 A 
ATOM      5  C   UNL     1       4.024   3.488  19.320  0.00  0.00    +0.000 A 
ATOM      6  C   UNL     1       3.430   4.750  19.321  0.00  0.00    +0.000 A 
ENDROOT
BRANCH   1   8
ATOM      7  N   UNL     1       2.318   7.352  19.487  0.00  0.00    +0.000 N 
ATOM      8  C   UNL     1       1.813   6.391  20.337  0.00  0.00    +0.000 C 
ATOM      9  O   UNL     1       0.861   6.597  21.085  0.00  0.00    +0.000 OA
ATOM     10  H   UNL     1       3.011   7.192  18.757  0.00  0.00    +0.000 HD
BRANCH   7  13
ATOM     11  O   UNL     1       2.099   8.924  17.284  0.00  0.00    +0.000 OA
ATOM     12  C   UNL     1       1.703   9.359  18.361  0.00  0.00    +0.000 C 
ATOM     13  N   UNL     1       1.745   8.622  19.524  0.00  0.00    +0.000 N 
ATOM     14  H   UNL     1       1.278   8.882  20.392  0.00  0.00    +0.000 HD
BRANCH  12  15
ATOM     15  C   UNL     1       1.124  10.723  18.471  0.00  0.00    +0.000 A 
ATOM     16  C   UNL     1      -0.267  10.856  18.585  0.00  0.00    +0.000 A 
ATOM     17  C   UNL     1      -0.843  12.125  18.683  0.00  0.00    +0.000 A 
ATOM     18  C   UNL     1      -0.028  13.251  18.654  0.00  0.00    +0.000 A 
ATOM     19  F   UNL     1      -0.580  14.468  18.744  0.00  0.00    +0.000 F 
ATOM     20  C   UNL     1       1.352  13.136  18.522  0.00  0.00    +0.000 A 
ATOM     21  C   UNL     1       1.933  11.869  18.427  0.00  0.00    +0.000 A 
ENDBRANCH  12  15
ENDBRANCH   7  13
ENDBRANCH   1   8
BRANCH   5  22
ATOM     22  N   UNL     1       4.980   3.131  18.327  0.00  0.00    +0.000 N 
ATOM     23  H   UNL     1       5.900   2.826  18.654  0.00  0.00    +0.000 HD
BRANCH  22  24
ATOM     24  S   UNL     1       5.130   4.131  16.965  0.00  0.00    +0.000 S 
ATOM     25  O   UNL     1       5.802   3.367  15.936  0.00  0.00    +0.000 OA
ATOM     26  O   UNL     1       3.846   4.749  16.709  0.00  0.00    +0.000 OA
BRANCH  24  27
ATOM     27  C   UNL     1       6.219   5.385  17.475  0.00  0.00    +0.000 A 
ATOM     28  C   UNL     1       7.095   5.201  18.516  0.00  0.00    +0.000 A 
ATOM     29  N   UNL     1       7.958   6.162  18.920  0.00  0.00    +0.000 NA
ATOM     30  C   UNL     1       7.881   7.319  18.252  0.00  0.00    +0.000 A 
ATOM     31  N   UNL     1       7.077   7.604  17.227  0.00  0.00    +0.000 NA
ATOM     32  C   UNL     1       6.259   6.611  16.868  0.00  0.00    +0.000 A 
BRANCH  30  33
ATOM     33  O   UNL     1       8.727   8.290  18.676  0.00  0.00    +0.000 OA
ATOM     34  H   UNL     1       9.532   7.765  18.810  0.00  0.00    +0.000 HD
ENDBRANCH  30  33
BRANCH  32  35
ATOM     35  O   UNL     1       5.524   6.915  15.770  0.00  0.00    +0.000 OA
ATOM     36  H   UNL     1       5.379   6.021  15.398  0.00  0.00    +0.000 HD
ENDBRANCH  32  35
ENDBRANCH  24  27
ENDBRANCH  22  24
ENDBRANCH   5  22
TORSDOF 8
ENDMDL
