MODEL 1
REMARK VINA RESULT:      -8.3      0.000      0.000
REMARK  Name = 
REMARK  5 active torsions:
REMARK  status: ('A' for Active; 'I' for Inactive)
REMARK    1  A    between atoms: C_6  and  C_7
REMARK    2  A    between atoms: C_7  and  C_8
REMARK    3  A    between atoms: C_11  and  O_12
REMARK    4  A    between atoms: O_12  and  C_13
REMARK    5  A    between atoms: C_22  and  C_23
REMARK                            x       y       z     vdW  Elec       q    Type
REMARK                         _______ _______ _______ _____ _____    ______ ____
ROOT
ATOM      1  C   UNL     1       2.933   7.072  18.203  0.00  0.00    +0.000 A 
ATOM      2  C   UNL     1       3.000   8.353  17.613  0.00  0.00    +0.000 A 
ATOM      3  C   UNL     1       2.231   9.417  18.089  0.00  0.00    +0.000 A 
ATOM      4  C   UNL     1       1.356   9.219  19.148  0.00  0.00    +0.000 A 
ATOM      5  C   UNL     1       1.335   7.983  19.795  0.00  0.00    +0.000 A 
ATOM      6  C   UNL     1       2.121   6.898  19.346  0.00  0.00    +0.000 A 
ENDROOT
BRANCH   6   7
ATOM      7  C   UNL     1       2.023   5.625  20.162  0.00  0.00    +0.000 C 
ATOM      8  F   UNL     1       3.182   5.237  20.754  0.00  0.00    +0.000 F 
ATOM      9  F   UNL     1       1.116   5.735  21.174  0.00  0.00    +0.000 F 
ATOM     10  F   UNL     1       1.616   4.565  19.412  0.00  0.00    +0.000 F 
ENDBRANCH   6   7
BRANCH   1  11
ATOM     11  C   UNL     1       3.774   5.970  17.581  0.00  0.00    +0.000 C 
BRANCH  11  17
ATOM     12  O   UNL     1       7.805   4.663  15.642  0.00  0.00    +0.000 OA
ATOM     13  C   UNL     1       6.987   4.882  16.522  0.00  0.00    +0.000 C 
ATOM     14  N   UNL     1       6.432   3.949  17.328  0.00  0.00    +0.000 N 
ATOM     15  C   UNL     1       5.590   4.363  18.313  0.00  0.00    +0.000 C 
ATOM     16  O   UNL     1       5.204   3.629  19.215  0.00  0.00    +0.000 OA
ATOM     17  C   UNL     1       5.192   5.815  18.152  0.00  0.00    +0.000 C 
ATOM     18  S   UNL     1       6.393   6.469  16.931  0.00  0.00    +0.000 S 
ATOM     19  H   UNL     1       6.771   3.000  17.302  0.00  0.00    +0.000 HD
ENDBRANCH  11  17
ENDBRANCH   1  11
BRANCH   4  20
ATOM     20  O   UNL     1       0.590  10.298  19.532  0.00  0.00    +0.000 OA
BRANCH  20  21
ATOM     21  C   UNL     1      -0.599  10.535  18.873  0.00  0.00    +0.000 A 
ATOM     22  C   UNL     1      -0.941   9.871  17.687  0.00  0.00    +0.000 A 
ATOM     23  C   UNL     1      -2.180  10.096  17.087  0.00  0.00    +0.000 A 
ATOM     24  C   UNL     1      -3.057  11.026  17.639  0.00  0.00    +0.000 A 
ATOM     25 CL   UNL     1      -4.592  11.285  16.906  0.00  0.00    +0.000 Cl
ATOM     26  C   UNL     1      -2.701  11.750  18.775  0.00  0.00    +0.000 A 
ATOM     27  C   UNL     1      -1.469  11.507  19.389  0.00  0.00    +0.000 A 
ATOM     28 CL   UNL     1      -1.058  12.429  20.791  0.00  0.00    +0.000 Cl
ENDBRANCH  20  21
ENDBRANCH   4  20
TORSDOF 5
ENDMDL
MODEL 2
REMARK VINA RESULT:      -8.1      5.662      8.276
REMARK  Name = 
REMARK  5 active torsions:
REMARK  status: ('A' for Active; 'I' for Inactive)
REMARK    1  A    between atoms: C_6  and  C_7
REMARK    2  A    between atoms: C_7  and  C_8
REMARK    3  A    between atoms: C_11  and  O_12
REMARK    4  A    between atoms: O_12  and  C_13
REMARK    5  A    between atoms: C_22  and  C_23
REMARK                            x       y       z     vdW  Elec       q    Type
REMARK                         _______ _______ _______ _____ _____    ______ ____
ROOT
ATOM      1  C   UNL     1       4.624   5.022  18.574  0.00  0.00    +0.000 A 
ATOM      2  C   UNL     1       5.836   4.399  18.204  0.00  0.00    +0.000 A 
ATOM      3  C   UNL     1       6.483   4.714  17.007  0.00  0.00    +0.000 A 
ATOM      4  C   UNL     1       5.919   5.638  16.138  0.00  0.00    +0.000 A 
ATOM      5  C   UNL     1       4.765   6.322  16.523  0.00  0.00    +0.000 A 
ATOM      6  C   UNL     1       4.105   6.036  17.739  0.00  0.00    +0.000 A 
ENDROOT
BRANCH   6   7
ATOM      7  C   UNL     1       2.882   6.877  18.044  0.00  0.00    +0.000 C 
ATOM      8  F   UNL     1       2.826   7.364  19.311  0.00  0.00    +0.000 F 
ATOM      9  F   UNL     1       2.796   7.968  17.231  0.00  0.00    +0.000 F 
ATOM     10  F   UNL     1       1.725   6.184  17.861  0.00  0.00    +0.000 F 
ENDBRANCH   6   7
BRANCH   1  11
ATOM     11  C   UNL     1       3.976   4.574  19.873  0.00  0.00    +0.000 C 
BRANCH  11  17
ATOM     12  O   UNL     1       0.209   2.245  18.425  0.00  0.00    +0.000 OA
ATOM     13  C   UNL     1       1.224   2.478  19.063  0.00  0.00    +0.000 C 
ATOM     14  N   UNL     1       1.288   2.649  20.402  0.00  0.00    +0.000 N 
ATOM     15  C   UNL     1       2.510   2.828  20.974  0.00  0.00    +0.000 C 
ATOM     16  O   UNL     1       2.694   2.784  22.185  0.00  0.00    +0.000 OA
ATOM     17  C   UNL     1       3.590   3.089  19.946  0.00  0.00    +0.000 C 
ATOM     18  S   UNL     1       2.813   2.605  18.357  0.00  0.00    +0.000 S 
ATOM     19  H   UNL     1       0.472   2.476  20.969  0.00  0.00    +0.000 HD
ENDBRANCH  11  17
ENDBRANCH   1  11
BRANCH   4  20
ATOM     20  O   UNL     1       6.583   5.862  14.952  0.00  0.00    +0.000 OA
BRANCH  20  21
ATOM     21  C   UNL     1       6.550   4.885  13.978  0.00  0.00    +0.000 A 
ATOM     22  C   UNL     1       5.591   3.863  13.980  0.00  0.00    +0.000 A 
ATOM     23  C   UNL     1       5.557   2.929  12.943  0.00  0.00    +0.000 A 
ATOM     24  C   UNL     1       6.514   2.982  11.932  0.00  0.00    +0.000 A 
ATOM     25 CL   UNL     1       6.455   1.842  10.646  0.00  0.00    +0.000 Cl
ATOM     26  C   UNL     1       7.519   3.947  11.958  0.00  0.00    +0.000 A 
ATOM     27  C   UNL     1       7.540   4.895  12.985  0.00  0.00    +0.000 A 
ATOM     28 CL   UNL     1       8.806   6.070  12.987  0.00  0.00    +0.000 Cl
ENDBRANCH  20  21
ENDBRANCH   4  20
TORSDOF 5
ENDMDL
MODEL 3
REMARK VINA RESULT:      -8.1      4.748      8.153
REMARK  Name = 
REMARK  5 active torsions:
REMARK  status: ('A' for Active; 'I' for Inactive)
REMARK    1  A    between atoms: C_6  and  C_7
REMARK    2  A    between atoms: C_7  and  C_8
REMARK    3  A    between atoms: C_11  and  O_12
REMARK    4  A    between atoms: O_12  and  C_13
REMARK    5  A    between atoms: C_22  and  C_23
REMARK                            x       y       z     vdW  Elec       q    Type
REMARK                         _______ _______ _______ _____ _____    ______ ____
ROOT
ATOM      1  C   UNL     1       1.039   9.365  18.925  0.00  0.00    +0.000 A 
ATOM      2  C   UNL     1       1.657   8.788  17.794  0.00  0.00    +0.000 A 
ATOM      3  C   UNL     1       2.456   7.648  17.902  0.00  0.00    +0.000 A 
ATOM      4  C   UNL     1       2.678   7.073  19.145  0.00  0.00    +0.000 A 
ATOM      5  C   UNL     1       2.013   7.581  20.262  0.00  0.00    +0.000 A 
ATOM      6  C   UNL     1       1.182   8.721  20.174  0.00  0.00    +0.000 A 
ENDROOT
BRANCH   6   7
ATOM      7  C   UNL     1       0.497   9.143  21.457  0.00  0.00    +0.000 C 
ATOM      8  F   UNL     1       0.354  10.484  21.613  0.00  0.00    +0.000 F 
ATOM      9  F   UNL     1      -0.762   8.629  21.558  0.00  0.00    +0.000 F 
ATOM     10  F   UNL     1       1.164   8.710  22.561  0.00  0.00    +0.000 F 
ENDBRANCH   6   7
BRANCH   1  11
ATOM     11  C   UNL     1       0.229  10.633  18.709  0.00  0.00    +0.000 C 
BRANCH  11  17
ATOM     12  O   UNL     1      -3.084  11.295  15.499  0.00  0.00    +0.000 OA
ATOM     13  C   UNL     1      -2.586  11.164  16.606  0.00  0.00    +0.000 C 
ATOM     14  N   UNL     1      -2.549  12.114  17.568  0.00  0.00    +0.000 N 
ATOM     15  C   UNL     1      -2.024  11.788  18.780  0.00  0.00    +0.000 C 
ATOM     16  O   UNL     1      -2.132  12.502  19.769  0.00  0.00    +0.000 OA
ATOM     17  C   UNL     1      -1.298  10.459  18.749  0.00  0.00    +0.000 C 
ATOM     18  S   UNL     1      -1.845   9.693  17.176  0.00  0.00    +0.000 S 
ATOM     19  H   UNL     1      -3.052  12.978  17.437  0.00  0.00    +0.000 HD
ENDBRANCH  11  17
ENDBRANCH   1  11
BRANCH   4  20
ATOM     20  O   UNL     1       3.519   5.982  19.185  0.00  0.00    +0.000 OA
BRANCH  20  21
ATOM     21  C   UNL     1       4.303   5.708  18.083  0.00  0.00    +0.000 A 
ATOM     22  C   UNL     1       5.438   6.468  17.769  0.00  0.00    +0.000 A 
ATOM     23  C   UNL     1       6.238   6.119  16.679  0.00  0.00    +0.000 A 
ATOM     24  C   UNL     1       5.874   5.046  15.869  0.00  0.00    +0.000 A 
ATOM     25 CL   UNL     1       6.874   4.608  14.540  0.00  0.00    +0.000 Cl
ATOM     26  C   UNL     1       4.707   4.328  16.126  0.00  0.00    +0.000 A 
ATOM     27  C   UNL     1       3.919   4.664  17.230  0.00  0.00    +0.000 A 
ATOM     28 CL   UNL     1       2.476   3.757  17.510  0.00  0.00    +0.000 Cl
ENDBRANCH  20  21
ENDBRANCH   4  20
TORSDOF 5
ENDMDL
MODEL 4
REMARK VINA RESULT:      -8.1      2.161      2.917
REMARK  Name = 
REMARK  5 active torsions:
REMARK  status: ('A' for Active; 'I' for Inactive)
REMARK    1  A    between atoms: C_6  and  C_7
REMARK    2  A    between atoms: C_7  and  C_8
REMARK    3  A    between atoms: C_11  and  O_12
REMARK    4  A    between atoms: O_12  and  C_13
REMARK    5  A    between atoms: C_22  and  C_23
REMARK                            x       y       z     vdW  Elec       q    Type
REMARK                         _______ _______ _______ _____ _____    ______ ____
ROOT
ATOM      1  C   UNL     1       2.373   4.917  18.549  0.00  0.00    +0.000 A 
ATOM      2  C   UNL     1       2.830   6.239  18.355  0.00  0.00    +0.000 A 
ATOM      3  C   UNL     1       2.558   7.248  19.282  0.00  0.00    +0.000 A 
ATOM      4  C   UNL     1       1.800   6.966  20.410  0.00  0.00    +0.000 A 
ATOM      5  C   UNL     1       1.409   5.649  20.659  0.00  0.00    +0.000 A 
ATOM      6  C   UNL     1       1.691   4.608  19.747  0.00  0.00    +0.000 A 
ENDROOT
BRANCH   6   7
ATOM      7  C   UNL     1       1.235   3.223  20.159  0.00  0.00    +0.000 C 
ATOM      8  F   UNL     1       2.185   2.257  20.061  0.00  0.00    +0.000 F 
ATOM      9  F   UNL     1       0.813   3.188  21.455  0.00  0.00    +0.000 F 
ATOM     10  F   UNL     1       0.184   2.786  19.414  0.00  0.00    +0.000 F 
ENDBRANCH   6   7
BRANCH   1  11
ATOM     11  C   UNL     1       2.681   3.904  17.459  0.00  0.00    +0.000 C 
BRANCH  11  17
ATOM     12  O   UNL     1       6.588   5.262  19.605  0.00  0.00    +0.000 OA
ATOM     13  C   UNL     1       5.881   4.696  18.787  0.00  0.00    +0.000 C 
ATOM     14  N   UNL     1       5.864   4.944  17.458  0.00  0.00    +0.000 N 
ATOM     15  C   UNL     1       5.071   4.173  16.665  0.00  0.00    +0.000 C 
ATOM     16  O   UNL     1       5.141   4.179  15.443  0.00  0.00    +0.000 OA
ATOM     17  C   UNL     1       4.106   3.329  17.471  0.00  0.00    +0.000 C 
ATOM     18  S   UNL     1       4.762   3.418  19.181  0.00  0.00    +0.000 S 
ATOM     19  H   UNL     1       6.548   5.566  17.056  0.00  0.00    +0.000 HD
ENDBRANCH  11  17
ENDBRANCH   1  11
BRANCH   4  20
ATOM     20  O   UNL     1       1.526   8.019  21.254  0.00  0.00    +0.000 OA
BRANCH  20  21
ATOM     21  C   UNL     1       0.762   9.067  20.782  0.00  0.00    +0.000 A 
ATOM     22  C   UNL     1       0.761   9.439  19.431  0.00  0.00    +0.000 A 
ATOM     23  C   UNL     1      -0.073  10.466  18.985  0.00  0.00    +0.000 A 
ATOM     24  C   UNL     1      -0.866  11.159  19.898  0.00  0.00    +0.000 A 
ATOM     25 CL   UNL     1      -1.906  12.410  19.340  0.00  0.00    +0.000 Cl
ATOM     26  C   UNL     1      -0.819  10.849  21.256  0.00  0.00    +0.000 A 
ATOM     27  C   UNL     1      -0.001   9.806  21.698  0.00  0.00    +0.000 A 
ATOM     28 CL   UNL     1       0.037   9.458  23.389  0.00  0.00    +0.000 Cl
ENDBRANCH  20  21
ENDBRANCH   4  20
TORSDOF 5
ENDMDL
MODEL 5
REMARK VINA RESULT:      -7.9      2.674      3.286
REMARK  Name = 
REMARK  5 active torsions:
REMARK  status: ('A' for Active; 'I' for Inactive)
REMARK    1  A    between atoms: C_6  and  C_7
REMARK    2  A    between atoms: C_7  and  C_8
REMARK    3  A    between atoms: C_11  and  O_12
REMARK    4  A    between atoms: O_12  and  C_13
REMARK    5  A    between atoms: C_22  and  C_23
REMARK                            x       y       z     vdW  Elec       q    Type
REMARK                         _______ _______ _______ _____ _____    ______ ____
ROOT
ATOM      1  C   UNL     1       2.813   6.632  19.283  0.00  0.00    +0.000 A 
ATOM      2  C   UNL     1       1.802   7.217  20.075  0.00  0.00    +0.000 A 
ATOM      3  C   UNL     1       1.262   8.467  19.765  0.00  0.00    +0.000 A 
ATOM      4  C   UNL     1       1.740   9.174  18.671  0.00  0.00    +0.000 A 
ATOM      5  C   UNL     1       2.681   8.579  17.830  0.00  0.00    +0.000 A 
ATOM      6  C   UNL     1       3.226   7.305  18.112  0.00  0.00    +0.000 A 
ENDROOT
BRANCH   6   7
ATOM      7  C   UNL     1       4.214   6.767  17.097  0.00  0.00    +0.000 C 
ATOM      8  F   UNL     1       4.269   7.462  15.931  0.00  0.00    +0.000 F 
ATOM      9  F   UNL     1       5.489   6.762  17.578  0.00  0.00    +0.000 F 
ATOM     10  F   UNL     1       3.942   5.480  16.750  0.00  0.00    +0.000 F 
ENDBRANCH   6   7
BRANCH   1  11
ATOM     11  C   UNL     1       3.367   5.290  19.733  0.00  0.00    +0.000 C 
BRANCH  11  17
ATOM     12  O   UNL     1       3.866   0.826  18.494  0.00  0.00    +0.000 OA
ATOM     13  C   UNL     1       3.300   1.881  18.732  0.00  0.00    +0.000 C 
ATOM     14  N   UNL     1       2.632   2.635  17.830  0.00  0.00    +0.000 N 
ATOM     15  C   UNL     1       1.988   3.750  18.269  0.00  0.00    +0.000 C 
ATOM     16  O   UNL     1       1.193   4.378  17.580  0.00  0.00    +0.000 OA
ATOM     17  C   UNL     1       2.378   4.115  19.686  0.00  0.00    +0.000 C 
ATOM     18  S   UNL     1       3.221   2.612  20.313  0.00  0.00    +0.000 S 
ATOM     19  H   UNL     1       2.477   2.281  16.899  0.00  0.00    +0.000 HD
ENDBRANCH  11  17
ENDBRANCH   1  11
BRANCH   4  20
ATOM     20  O   UNL     1       1.200  10.423  18.454  0.00  0.00    +0.000 OA
BRANCH  20  21
ATOM     21  C   UNL     1      -0.168  10.539  18.315  0.00  0.00    +0.000 A 
ATOM     22  C   UNL     1      -0.890   9.781  17.383  0.00  0.00    +0.000 A 
ATOM     23  C   UNL     1      -2.280   9.886  17.318  0.00  0.00    +0.000 A 
ATOM     24  C   UNL     1      -2.946  10.789  18.144  0.00  0.00    +0.000 A 
ATOM     25 CL   UNL     1      -4.661  10.899  18.072  0.00  0.00    +0.000 Cl
ATOM     26  C   UNL     1      -2.234  11.603  19.022  0.00  0.00    +0.000 A 
ATOM     27  C   UNL     1      -0.844  11.481  19.103  0.00  0.00    +0.000 A 
ATOM     28 CL   UNL     1       0.004  12.514  20.197  0.00  0.00    +0.000 Cl
ENDBRANCH  20  21
ENDBRANCH   4  20
TORSDOF 5
ENDMDL
MODEL 6
REMARK VINA RESULT:      -7.8      2.123      2.993
REMARK  Name = 
REMARK  5 active torsions:
REMARK  status: ('A' for Active; 'I' for Inactive)
REMARK    1  A    between atoms: C_6  and  C_7
REMARK    2  A    between atoms: C_7  and  C_8
REMARK    3  A    between atoms: C_11  and  O_12
REMARK    4  A    between atoms: O_12  and  C_13
REMARK    5  A    between atoms: C_22  and  C_23
REMARK                            x       y       z     vdW  Elec       q    Type
REMARK                         _______ _______ _______ _____ _____    ______ ____
ROOT
ATOM      1  C   UNL     1       3.902   5.285  17.291  0.00  0.00    +0.000 A 
ATOM      2  C   UNL     1       4.094   6.682  17.367  0.00  0.00    +0.000 A 
ATOM      3  C   UNL     1       3.474   7.452  18.353  0.00  0.00    +0.000 A 
ATOM      4  C   UNL     1       2.624   6.849  19.269  0.00  0.00    +0.000 A 
ATOM      5  C   UNL     1       2.485   5.460  19.260  0.00  0.00    +0.000 A 
ATOM      6  C   UNL     1       3.120   4.658  18.286  0.00  0.00    +0.000 A 
ENDROOT
BRANCH   6   7
ATOM      7  C   UNL     1       2.907   3.164  18.415  0.00  0.00    +0.000 C 
ATOM      8  F   UNL     1       4.042   2.439  18.595  0.00  0.00    +0.000 F 
ATOM      9  F   UNL     1       2.105   2.851  19.473  0.00  0.00    +0.000 F 
ATOM     10  F   UNL     1       2.299   2.636  17.319  0.00  0.00    +0.000 F 
ENDBRANCH   6   7
BRANCH   1  11
ATOM     11  C   UNL     1       4.584   4.546  16.152  0.00  0.00    +0.000 C 
BRANCH  11  17
ATOM     12  O   UNL     1       7.923   6.900  18.394  0.00  0.00    +0.000 OA
ATOM     13  C   UNL     1       7.423   6.116  17.602  0.00  0.00    +0.000 C 
ATOM     14  N   UNL     1       7.485   6.214  16.255  0.00  0.00    +0.000 N 
ATOM     15  C   UNL     1       6.939   5.217  15.507  0.00  0.00    +0.000 C 
ATOM     16  O   UNL     1       7.124   5.108  14.301  0.00  0.00    +0.000 OA
ATOM     17  C   UNL     1       6.086   4.282  16.338  0.00  0.00    +0.000 C 
ATOM     18  S   UNL     1       6.545   4.684  18.067  0.00  0.00    +0.000 S 
ATOM     19  H   UNL     1       8.069   6.918  15.831  0.00  0.00    +0.000 HD
ENDBRANCH  11  17
ENDBRANCH   1  11
BRANCH   4  20
ATOM     20  O   UNL     1       2.005   7.675  20.181  0.00  0.00    +0.000 OA
BRANCH  20  21
ATOM     21  C   UNL     1       1.190   8.686  19.713  0.00  0.00    +0.000 A 
ATOM     22  C   UNL     1       1.139   9.036  18.357  0.00  0.00    +0.000 A 
ATOM     23  C   UNL     1       0.255  10.023  17.919  0.00  0.00    +0.000 A 
ATOM     24  C   UNL     1      -0.537  10.702  18.842  0.00  0.00    +0.000 A 
ATOM     25 CL   UNL     1      -1.638  11.904  18.293  0.00  0.00    +0.000 Cl
ATOM     26  C   UNL     1      -0.442  10.417  20.202  0.00  0.00    +0.000 A 
ATOM     27  C   UNL     1       0.426   9.412  20.638  0.00  0.00    +0.000 A 
ATOM     28 CL   UNL     1       0.522   9.094  22.333  0.00  0.00    +0.000 Cl
ENDBRANCH  20  21
ENDBRANCH   4  20
TORSDOF 5
ENDMDL
MODEL 7
REMARK VINA RESULT:      -7.8      2.681      3.703
REMARK  Name = 
REMARK  5 active torsions:
REMARK  status: ('A' for Active; 'I' for Inactive)
REMARK    1  A    between atoms: C_6  and  C_7
REMARK    2  A    between atoms: C_7  and  C_8
REMARK    3  A    between atoms: C_11  and  O_12
REMARK    4  A    between atoms: O_12  and  C_13
REMARK    5  A    between atoms: C_22  and  C_23
REMARK                            x       y       z     vdW  Elec       q    Type
REMARK                         _______ _______ _______ _____ _____    ______ ____
ROOT
ATOM      1  C   UNL     1       2.782   6.787  19.452  0.00  0.00    +0.000 A 
ATOM      2  C   UNL     1       1.796   7.450  20.216  0.00  0.00    +0.000 A 
ATOM      3  C   UNL     1       1.223   8.648  19.787  0.00  0.00    +0.000 A 
ATOM      4  C   UNL     1       1.641   9.228  18.597  0.00  0.00    +0.000 A 
ATOM      5  C   UNL     1       2.555   8.549  17.790  0.00  0.00    +0.000 A 
ATOM      6  C   UNL     1       3.132   7.324  18.193  0.00  0.00    +0.000 A 
ENDROOT
BRANCH   6   7
ATOM      7  C   UNL     1       4.083   6.682  17.205  0.00  0.00    +0.000 C 
ATOM      8  F   UNL     1       5.382   6.649  17.603  0.00  0.00    +0.000 F 
ATOM      9  F   UNL     1       3.751   5.386  16.942  0.00  0.00    +0.000 F 
ATOM     10  F   UNL     1       4.080   7.318  16.002  0.00  0.00    +0.000 F 
ENDBRANCH   6   7
BRANCH   1  11
ATOM     11  C   UNL     1       3.376   5.514  20.030  0.00  0.00    +0.000 C 
BRANCH  11  17
ATOM     12  O   UNL     1       1.109   2.237  22.446  0.00  0.00    +0.000 OA
ATOM     13  C   UNL     1       1.728   2.742  21.522  0.00  0.00    +0.000 C 
ATOM     14  N   UNL     1       2.959   2.370  21.104  0.00  0.00    +0.000 N 
ATOM     15  C   UNL     1       3.483   2.984  20.009  0.00  0.00    +0.000 C 
ATOM     16  O   UNL     1       4.487   2.581  19.434  0.00  0.00    +0.000 OA
ATOM     17  C   UNL     1       2.689   4.208  19.604  0.00  0.00    +0.000 C 
ATOM     18  S   UNL     1       1.116   4.040  20.532  0.00  0.00    +0.000 S 
ATOM     19  H   UNL     1       3.392   1.547  21.493  0.00  0.00    +0.000 HD
ENDBRANCH  11  17
ENDBRANCH   1  11
BRANCH   4  20
ATOM     20  O   UNL     1       1.071  10.437  18.261  0.00  0.00    +0.000 OA
BRANCH  20  21
ATOM     21  C   UNL     1      -0.304  10.525  18.187  0.00  0.00    +0.000 A 
ATOM     22  C   UNL     1      -1.056   9.731  17.310  0.00  0.00    +0.000 A 
ATOM     23  C   UNL     1      -2.449   9.808  17.310  0.00  0.00    +0.000 A 
ATOM     24  C   UNL     1      -3.091  10.719  18.146  0.00  0.00    +0.000 A 
ATOM     25 CL   UNL     1      -4.809  10.797  18.157  0.00  0.00    +0.000 Cl
ATOM     26  C   UNL     1      -2.353  11.568  18.969  0.00  0.00    +0.000 A 
ATOM     27  C   UNL     1      -0.959  11.474  18.985  0.00  0.00    +0.000 A 
ATOM     28 CL   UNL     1      -0.078  12.549  20.010  0.00  0.00    +0.000 Cl
ENDBRANCH  20  21
ENDBRANCH   4  20
TORSDOF 5
ENDMDL
MODEL 8
REMARK VINA RESULT:      -7.8      2.888      4.213
REMARK  Name = 
REMARK  5 active torsions:
REMARK  status: ('A' for Active; 'I' for Inactive)
REMARK    1  A    between atoms: C_6  and  C_7
REMARK    2  A    between atoms: C_7  and  C_8
REMARK    3  A    between atoms: C_11  and  O_12
REMARK    4  A    between atoms: O_12  and  C_13
REMARK    5  A    between atoms: C_22  and  C_23
REMARK                            x       y       z     vdW  Elec       q    Type
REMARK                         _______ _______ _______ _____ _____    ______ ____
ROOT
ATOM      1  C   UNL     1       3.167   6.457  19.201  0.00  0.00    +0.000 A 
ATOM      2  C   UNL     1       2.150   7.122  19.919  0.00  0.00    +0.000 A 
ATOM      3  C   UNL     1       1.549   8.283  19.427  0.00  0.00    +0.000 A 
ATOM      4  C   UNL     1       1.970   8.822  18.220  0.00  0.00    +0.000 A 
ATOM      5  C   UNL     1       2.917   8.136  17.459  0.00  0.00    +0.000 A 
ATOM      6  C   UNL     1       3.523   6.948  17.925  0.00  0.00    +0.000 A 
ENDROOT
BRANCH   6   7
ATOM      7  C   UNL     1       4.509   6.292  16.981  0.00  0.00    +0.000 C 
ATOM      8  F   UNL     1       4.708   6.954  15.812  0.00  0.00    +0.000 F 
ATOM      9  F   UNL     1       5.746   6.165  17.541  0.00  0.00    +0.000 F 
ATOM     10  F   UNL     1       4.128   5.032  16.634  0.00  0.00    +0.000 F 
ENDBRANCH   6   7
BRANCH   1  11
ATOM     11  C   UNL     1       3.789   5.229  19.844  0.00  0.00    +0.000 C 
BRANCH  11  17
ATOM     12  O   UNL     1       1.133   2.425  22.451  0.00  0.00    +0.000 OA
ATOM     13  C   UNL     1       1.867   2.766  21.537  0.00  0.00    +0.000 C 
ATOM     14  N   UNL     1       3.116   2.297  21.315  0.00  0.00    +0.000 N 
ATOM     15  C   UNL     1       3.779   2.722  20.206  0.00  0.00    +0.000 C 
ATOM     16  O   UNL     1       4.817   2.207  19.810  0.00  0.00    +0.000 OA
ATOM     17  C   UNL     1       3.089   3.895  19.542  0.00  0.00    +0.000 C 
ATOM     18  S   UNL     1       1.423   3.918  20.306  0.00  0.00    +0.000 S 
ATOM     19  H   UNL     1       3.467   1.529  21.866  0.00  0.00    +0.000 HD
ENDBRANCH  11  17
ENDBRANCH   1  11
BRANCH   4  20
ATOM     20  O   UNL     1       1.371   9.997  17.821  0.00  0.00    +0.000 OA
BRANCH  20  21
ATOM     21  C   UNL     1       0.585  10.682  18.726  0.00  0.00    +0.000 A 
ATOM     22  C   UNL     1       1.128  11.331  19.843  0.00  0.00    +0.000 A 
ATOM     23  C   UNL     1       0.304  12.063  20.699  0.00  0.00    +0.000 A 
ATOM     24  C   UNL     1      -1.070  12.102  20.472  0.00  0.00    +0.000 A 
ATOM     25 CL   UNL     1      -2.077  13.022  21.520  0.00  0.00    +0.000 Cl
ATOM     26  C   UNL     1      -1.632  11.400  19.408  0.00  0.00    +0.000 A 
ATOM     27  C   UNL     1      -0.804  10.686  18.538  0.00  0.00    +0.000 A 
ATOM     28 CL   UNL     1      -1.539   9.821  17.236  0.00  0.00    +0.000 Cl
ENDBRANCH  20  21
ENDBRANCH   4  20
TORSDOF 5
ENDMDL
MODEL 9
REMARK VINA RESULT:      -7.8      3.379      4.370
REMARK  Name = 
REMARK  5 active torsions:
REMARK  status: ('A' for Active; 'I' for Inactive)
REMARK    1  A    between atoms: C_6  and  C_7
REMARK    2  A    between atoms: C_7  and  C_8
REMARK    3  A    between atoms: C_11  and  O_12
REMARK    4  A    between atoms: O_12  and  C_13
REMARK    5  A    between atoms: C_22  and  C_23
REMARK                            x       y       z     vdW  Elec       q    Type
REMARK                         _______ _______ _______ _____ _____    ______ ____
ROOT
ATOM      1  C   UNL     1       3.841   6.065  18.738  0.00  0.00    +0.000 A 
ATOM      2  C   UNL     1       2.773   6.338  19.621  0.00  0.00    +0.000 A 
ATOM      3  C   UNL     1       1.863   7.367  19.369  0.00  0.00    +0.000 A 
ATOM      4  C   UNL     1       2.014   8.164  18.243  0.00  0.00    +0.000 A 
ATOM      5  C   UNL     1       3.014   7.859  17.319  0.00  0.00    +0.000 A 
ATOM      6  C   UNL     1       3.933   6.809  17.541  0.00  0.00    +0.000 A 
ENDROOT
BRANCH   6   7
ATOM      7  C   UNL     1       4.945   6.569  16.440  0.00  0.00    +0.000 C 
ATOM      8  F   UNL     1       4.748   7.303  15.315  0.00  0.00    +0.000 F 
ATOM      9  F   UNL     1       6.216   6.855  16.842  0.00  0.00    +0.000 F 
ATOM     10  F   UNL     1       4.966   5.270  16.037  0.00  0.00    +0.000 F 
ENDBRANCH   6   7
BRANCH   1  11
ATOM     11  C   UNL     1       4.804   4.956  19.127  0.00  0.00    +0.000 C 
BRANCH  11  17
ATOM     12  O   UNL     1       0.766   2.630  19.163  0.00  0.00    +0.000 OA
ATOM     13  C   UNL     1       1.973   2.808  19.117  0.00  0.00    +0.000 C 
ATOM     14  N   UNL     1       2.865   2.383  20.040  0.00  0.00    +0.000 N 
ATOM     15  C   UNL     1       4.189   2.595  19.807  0.00  0.00    +0.000 C 
ATOM     16  O   UNL     1       5.076   2.072  20.469  0.00  0.00    +0.000 OA
ATOM     17  C   UNL     1       4.420   3.546  18.651  0.00  0.00    +0.000 C 
ATOM     18  S   UNL     1       2.790   3.631  17.816  0.00  0.00    +0.000 S 
ATOM     19  H   UNL     1       2.562   1.778  20.788  0.00  0.00    +0.000 HD
ENDBRANCH  11  17
ENDBRANCH   1  11
BRANCH   4  20
ATOM     20  O   UNL     1       1.111   9.193  18.084  0.00  0.00    +0.000 OA
BRANCH  20  21
ATOM     21  C   UNL     1       1.438  10.443  18.569  0.00  0.00    +0.000 A 
ATOM     22  C   UNL     1       2.339  11.287  17.906  0.00  0.00    +0.000 A 
ATOM     23  C   UNL     1       2.595  12.568  18.399  0.00  0.00    +0.000 A 
ATOM     24  C   UNL     1       1.994  12.986  19.584  0.00  0.00    +0.000 A 
ATOM     25 CL   UNL     1       2.298  14.572  20.176  0.00  0.00    +0.000 Cl
ATOM     26  C   UNL     1       1.154  12.130  20.293  0.00  0.00    +0.000 A 
ATOM     27  C   UNL     1       0.880  10.856  19.787  0.00  0.00    +0.000 A 
ATOM     28 CL   UNL     1      -0.159   9.820  20.699  0.00  0.00    +0.000 Cl
ENDBRANCH  20  21
ENDBRANCH   4  20
TORSDOF 5
ENDMDL
