MODEL 1
REMARK VINA RESULT:      -7.8      0.000      0.000
REMARK  Name = 
REMARK  4 active torsions:
REMARK  status: ('A' for Active; 'I' for Inactive)
REMARK    1  A    between atoms: C_1  and  N_2
REMARK    2  A    between atoms: C_6  and  C_7
REMARK    3  A    between atoms: C_7  and  N_8
REMARK    4  A    between atoms: N_16  and  C_17
REMARK                            x       y       z     vdW  Elec       q    Type
REMARK                         _______ _______ _______ _____ _____    ______ ____
ROOT
ATOM      1  N   UNL     1       6.408   5.550  16.404  0.00  0.00    +0.000 NA
ATOM      2  C   UNL     1       5.072   5.782  15.882  0.00  0.00    +0.000 C 
ATOM      3  C   UNL     1       3.895   5.187  16.668  0.00  0.00    +0.000 C 
ATOM      4  C   UNL     1       3.957   5.423  18.180  0.00  0.00    +0.000 C 
ATOM      5  C   UNL     1       5.371   5.248  18.759  0.00  0.00    +0.000 C 
ATOM      6  C   UNL     1       6.565   5.570  17.848  0.00  0.00    +0.000 C 
ATOM      7  C   UNL     1       3.441   6.851  18.513  0.00  0.00    +0.000 C 
ATOM      8  O   UNL     1       3.780   7.872  17.930  0.00  0.00    +0.000 OA
ATOM      9  N   UNL     1       2.577   6.736  19.615  0.00  0.00    +0.000 N 
ATOM     10  C   UNL     1       2.221   5.405  19.858  0.00  0.00    +0.000 A 
ATOM     11  C   UNL     1       1.253   4.878  20.704  0.00  0.00    +0.000 A 
ATOM     12  C   UNL     1       1.019   3.508  20.701  0.00  0.00    +0.000 A 
ATOM     13  C   UNL     1       1.749   2.678  19.835  0.00  0.00    +0.000 A 
ATOM     14  C   UNL     1       2.726   3.209  18.980  0.00  0.00    +0.000 A 
ATOM     15  C   UNL     1       2.963   4.581  18.995  0.00  0.00    +0.000 A 
ENDROOT
BRANCH   9  16
ATOM     16  C   UNL     1       1.836   7.800  20.075  0.00  0.00    +0.000 A 
ATOM     17  C   UNL     1       1.334   8.032  21.334  0.00  0.00    +0.000 A 
ATOM     18  C   UNL     1       0.467   9.161  21.362  0.00  0.00    +0.000 A 
ATOM     19  C   UNL     1       0.326   9.733  20.116  0.00  0.00    +0.000 A 
ATOM     20  S   UNL     1       1.294   8.952  18.938  0.00  0.00    +0.000 S 
ENDBRANCH   9  16
BRANCH   1  21
ATOM     21  C   UNL     1       7.208   4.563  15.672  0.00  0.00    +0.000 C 
BRANCH  21  27
ATOM     22  C   UNL     1       5.613   3.387  13.221  0.00  0.00    +0.000 C 
ATOM     23  N   UNL     1       6.752   4.268  13.159  0.00  0.00    +0.000 N 
ATOM     24  C   UNL     1       7.332   4.693  11.991  0.00  0.00    +0.000 A 
ATOM     25  C   UNL     1       8.258   5.630  12.373  0.00  0.00    +0.000 A 
ATOM     26  N   UNL     1       8.313   5.726  13.737  0.00  0.00    +0.000 NA
ATOM     27  C   UNL     1       7.420   4.870  14.206  0.00  0.00    +0.000 A 
ENDBRANCH  21  27
ENDBRANCH   1  21
TORSDOF 3
ENDMDL
MODEL 2
REMARK VINA RESULT:      -7.5      0.468      1.196
REMARK  Name = 
REMARK  4 active torsions:
REMARK  status: ('A' for Active; 'I' for Inactive)
REMARK    1  A    between atoms: C_1  and  N_2
REMARK    2  A    between atoms: C_6  and  C_7
REMARK    3  A    between atoms: C_7  and  N_8
REMARK    4  A    between atoms: N_16  and  C_17
REMARK                            x       y       z     vdW  Elec       q    Type
REMARK                         _______ _______ _______ _____ _____    ______ ____
ROOT
ATOM      1  N   UNL     1       6.571   5.743  16.413  0.00  0.00    +0.000 NA
ATOM      2  C   UNL     1       5.232   5.871  15.863  0.00  0.00    +0.000 C 
ATOM      3  C   UNL     1       4.079   5.245  16.661  0.00  0.00    +0.000 C 
ATOM      4  C   UNL     1       4.103   5.555  18.160  0.00  0.00    +0.000 C 
ATOM      5  C   UNL     1       5.515   5.492  18.766  0.00  0.00    +0.000 C 
ATOM      6  C   UNL     1       6.703   5.841  17.857  0.00  0.00    +0.000 C 
ATOM      7  C   UNL     1       3.499   6.965  18.418  0.00  0.00    +0.000 C 
ATOM      8  O   UNL     1       3.787   7.975  17.791  0.00  0.00    +0.000 OA
ATOM      9  N   UNL     1       2.625   6.850  19.513  0.00  0.00    +0.000 N 
ATOM     10  C   UNL     1       2.344   5.514  19.813  0.00  0.00    +0.000 A 
ATOM     11  C   UNL     1       1.395   4.970  20.671  0.00  0.00    +0.000 A 
ATOM     12  C   UNL     1       1.241   3.590  20.730  0.00  0.00    +0.000 A 
ATOM     13  C   UNL     1       2.033   2.765  19.915  0.00  0.00    +0.000 A 
ATOM     14  C   UNL     1       2.991   3.312  19.049  0.00  0.00    +0.000 A 
ATOM     15  C   UNL     1       3.147   4.695  19.001  0.00  0.00    +0.000 A 
ENDROOT
BRANCH   9  16
ATOM     16  C   UNL     1       1.817   7.889  19.911  0.00  0.00    +0.000 A 
ATOM     17  C   UNL     1       1.221   8.111  21.130  0.00  0.00    +0.000 A 
ATOM     18  C   UNL     1       0.314   9.207  21.089  0.00  0.00    +0.000 A 
ATOM     19  C   UNL     1       0.236   9.764  19.831  0.00  0.00    +0.000 A 
ATOM     20  S   UNL     1       1.311   9.012  18.729  0.00  0.00    +0.000 S 
ENDBRANCH   9  16
BRANCH   1  21
ATOM     21  C   UNL     1       7.439   4.773  15.740  0.00  0.00    +0.000 C 
BRANCH  21  27
ATOM     22  C   UNL     1       8.544   5.803  12.974  0.00  0.00    +0.000 C 
ATOM     23  N   UNL     1       7.441   4.896  13.172  0.00  0.00    +0.000 N 
ATOM     24  C   UNL     1       6.682   4.377  12.155  0.00  0.00    +0.000 A 
ATOM     25  C   UNL     1       5.868   3.450  12.756  0.00  0.00    +0.000 A 
ATOM     26  N   UNL     1       6.054   3.451  14.112  0.00  0.00    +0.000 NA
ATOM     27  C   UNL     1       6.987   4.358  14.358  0.00  0.00    +0.000 A 
ENDBRANCH  21  27
ENDBRANCH   1  21
TORSDOF 3
ENDMDL
MODEL 3
REMARK VINA RESULT:      -7.4      3.518      6.641
REMARK  Name = 
REMARK  4 active torsions:
REMARK  status: ('A' for Active; 'I' for Inactive)
REMARK    1  A    between atoms: C_1  and  N_2
REMARK    2  A    between atoms: C_6  and  C_7
REMARK    3  A    between atoms: C_7  and  N_8
REMARK    4  A    between atoms: N_16  and  C_17
REMARK                            x       y       z     vdW  Elec       q    Type
REMARK                         _______ _______ _______ _____ _____    ______ ____
ROOT
ATOM      1  N   UNL     1       2.351   7.990  18.934  0.00  0.00    +0.000 NA
ATOM      2  C   UNL     1       2.289   8.977  17.871  0.00  0.00    +0.000 C 
ATOM      3  C   UNL     1       0.923   9.613  17.577  0.00  0.00    +0.000 C 
ATOM      4  C   UNL     1       0.158  10.077  18.820  0.00  0.00    +0.000 C 
ATOM      5  C   UNL     1       0.254   9.085  19.991  0.00  0.00    +0.000 C 
ATOM      6  C   UNL     1       1.523   8.228  20.105  0.00  0.00    +0.000 C 
ATOM      7  C   UNL     1       0.690  11.463  19.281  0.00  0.00    +0.000 C 
ATOM      8  O   UNL     1       1.872  11.755  19.401  0.00  0.00    +0.000 OA
ATOM      9  N   UNL     1      -0.428  12.265  19.570  0.00  0.00    +0.000 N 
ATOM     10  C   UNL     1      -1.609  11.701  19.077  0.00  0.00    +0.000 A 
ATOM     11  C   UNL     1      -2.884  12.246  18.971  0.00  0.00    +0.000 A 
ATOM     12  C   UNL     1      -3.888  11.513  18.351  0.00  0.00    +0.000 A 
ATOM     13  C   UNL     1      -3.602  10.241  17.828  0.00  0.00    +0.000 A 
ATOM     14  C   UNL     1      -2.316   9.690  17.934  0.00  0.00    +0.000 A 
ATOM     15  C   UNL     1      -1.316  10.426  18.564  0.00  0.00    +0.000 A 
ENDROOT
BRANCH   9  16
ATOM     16  C   UNL     1      -0.308  13.602  19.869  0.00  0.00    +0.000 A 
ATOM     17  C   UNL     1      -0.155  14.673  19.019  0.00  0.00    +0.000 A 
ATOM     18  C   UNL     1       0.113  15.879  19.727  0.00  0.00    +0.000 A 
ATOM     19  C   UNL     1       0.177  15.675  21.088  0.00  0.00    +0.000 A 
ATOM     20  S   UNL     1      -0.161  14.048  21.509  0.00  0.00    +0.000 S 
ENDBRANCH   9  16
BRANCH   1  21
ATOM     21  C   UNL     1       2.478   6.597  18.495  0.00  0.00    +0.000 C 
BRANCH  21  27
ATOM     22  C   UNL     1       4.788   6.771  16.358  0.00  0.00    +0.000 C 
ATOM     23  N   UNL     1       4.825   6.045  17.603  0.00  0.00    +0.000 N 
ATOM     24  C   UNL     1       5.888   5.282  18.015  0.00  0.00    +0.000 A 
ATOM     25  C   UNL     1       5.583   4.913  19.301  0.00  0.00    +0.000 A 
ATOM     26  N   UNL     1       4.336   5.360  19.649  0.00  0.00    +0.000 NA
ATOM     27  C   UNL     1       3.871   6.016  18.598  0.00  0.00    +0.000 A 
ENDBRANCH  21  27
ENDBRANCH   1  21
TORSDOF 3
ENDMDL
MODEL 4
REMARK VINA RESULT:      -7.3      3.562      6.714
REMARK  Name = 
REMARK  4 active torsions:
REMARK  status: ('A' for Active; 'I' for Inactive)
REMARK    1  A    between atoms: C_1  and  N_2
REMARK    2  A    between atoms: C_6  and  C_7
REMARK    3  A    between atoms: C_7  and  N_8
REMARK    4  A    between atoms: N_16  and  C_17
REMARK                            x       y       z     vdW  Elec       q    Type
REMARK                         _______ _______ _______ _____ _____    ______ ____
ROOT
ATOM      1  N   UNL     1       2.297   7.979  19.031  0.00  0.00    +0.000 NA
ATOM      2  C   UNL     1       2.239   8.913  17.920  0.00  0.00    +0.000 C 
ATOM      3  C   UNL     1       0.879   9.554  17.607  0.00  0.00    +0.000 C 
ATOM      4  C   UNL     1       0.132  10.089  18.832  0.00  0.00    +0.000 C 
ATOM      5  C   UNL     1       0.225   9.155  20.050  0.00  0.00    +0.000 C 
ATOM      6  C   UNL     1       1.483   8.287  20.195  0.00  0.00    +0.000 C 
ATOM      7  C   UNL     1       0.688  11.489  19.219  0.00  0.00    +0.000 C 
ATOM      8  O   UNL     1       1.875  11.769  19.314  0.00  0.00    +0.000 OA
ATOM      9  N   UNL     1      -0.416  12.320  19.477  0.00  0.00    +0.000 N 
ATOM     10  C   UNL     1      -1.610  11.750  19.023  0.00  0.00    +0.000 A 
ATOM     11  C   UNL     1      -2.877  12.307  18.900  0.00  0.00    +0.000 A 
ATOM     12  C   UNL     1      -3.898  11.558  18.326  0.00  0.00    +0.000 A 
ATOM     13  C   UNL     1      -3.634  10.258  17.864  0.00  0.00    +0.000 A 
ATOM     14  C   UNL     1      -2.355   9.695  17.987  0.00  0.00    +0.000 A 
ATOM     15  C   UNL     1      -1.339  10.447  18.571  0.00  0.00    +0.000 A 
ENDROOT
BRANCH   9  16
ATOM     16  C   UNL     1      -0.275  13.668  19.708  0.00  0.00    +0.000 A 
ATOM     17  C   UNL     1      -0.066  14.687  18.808  0.00  0.00    +0.000 A 
ATOM     18  C   UNL     1       0.206  15.924  19.459  0.00  0.00    +0.000 A 
ATOM     19  C   UNL     1       0.216  15.793  20.831  0.00  0.00    +0.000 A 
ATOM     20  S   UNL     1      -0.175  14.200  21.326  0.00  0.00    +0.000 S 
ENDBRANCH   9  16
BRANCH   1  21
ATOM     21  C   UNL     1       2.400   6.564  18.660  0.00  0.00    +0.000 C 
BRANCH  21  27
ATOM     22  C   UNL     1       3.634   3.930  19.875  0.00  0.00    +0.000 C 
ATOM     23  N   UNL     1       4.334   4.931  19.109  0.00  0.00    +0.000 N 
ATOM     24  C   UNL     1       5.677   4.885  18.832  0.00  0.00    +0.000 A 
ATOM     25  C   UNL     1       5.895   5.919  17.955  0.00  0.00    +0.000 A 
ATOM     26  N   UNL     1       4.745   6.635  17.758  0.00  0.00    +0.000 NA
ATOM     27  C   UNL     1       3.811   6.048  18.490  0.00  0.00    +0.000 A 
ENDBRANCH  21  27
ENDBRANCH   1  21
TORSDOF 3
ENDMDL
MODEL 5
REMARK VINA RESULT:      -7.3      2.792      7.483
REMARK  Name = 
REMARK  4 active torsions:
REMARK  status: ('A' for Active; 'I' for Inactive)
REMARK    1  A    between atoms: C_1  and  N_2
REMARK    2  A    between atoms: C_6  and  C_7
REMARK    3  A    between atoms: C_7  and  N_8
REMARK    4  A    between atoms: N_16  and  C_17
REMARK                            x       y       z     vdW  Elec       q    Type
REMARK                         _______ _______ _______ _____ _____    ______ ____
ROOT
ATOM      1  N   UNL     1       1.267   9.093  19.162  0.00  0.00    +0.000 NA
ATOM      2  C   UNL     1       2.229   8.429  20.026  0.00  0.00    +0.000 C 
ATOM      3  C   UNL     1       2.305   6.897  19.950  0.00  0.00    +0.000 C 
ATOM      4  C   UNL     1       2.343   6.333  18.527  0.00  0.00    +0.000 C 
ATOM      5  C   UNL     1       1.381   7.054  17.567  0.00  0.00    +0.000 C 
ATOM      6  C   UNL     1       1.079   8.536  17.833  0.00  0.00    +0.000 C 
ATOM      7  C   UNL     1       3.789   6.419  17.963  0.00  0.00    +0.000 C 
ATOM      8  O   UNL     1       4.507   7.408  18.024  0.00  0.00    +0.000 OA
ATOM      9  N   UNL     1       4.070   5.189  17.344  0.00  0.00    +0.000 N 
ATOM     10  C   UNL     1       3.130   4.211  17.686  0.00  0.00    +0.000 A 
ATOM     11  C   UNL     1       3.144   2.839  17.462  0.00  0.00    +0.000 A 
ATOM     12  C   UNL     1       2.126   2.053  17.987  0.00  0.00    +0.000 A 
ATOM     13  C   UNL     1       1.108   2.648  18.750  0.00  0.00    +0.000 A 
ATOM     14  C   UNL     1       1.093   4.032  18.978  0.00  0.00    +0.000 A 
ATOM     15  C   UNL     1       2.110   4.816  18.440  0.00  0.00    +0.000 A 
ENDROOT
BRANCH   9  16
ATOM     16  C   UNL     1       5.322   4.883  16.866  0.00  0.00    +0.000 A 
ATOM     17  C   UNL     1       6.473   4.597  17.563  0.00  0.00    +0.000 A 
ATOM     18  C   UNL     1       7.607   4.510  16.705  0.00  0.00    +0.000 A 
ATOM     19  C   UNL     1       7.278   4.755  15.390  0.00  0.00    +0.000 A 
ATOM     20  S   UNL     1       5.596   5.016  15.187  0.00  0.00    +0.000 S 
ENDBRANCH   9  16
BRANCH   1  21
ATOM     21  C   UNL     1       0.069   9.608  19.832  0.00  0.00    +0.000 C 
BRANCH  21  27
ATOM     22  C   UNL     1      -2.379   9.966  17.880  0.00  0.00    +0.000 C 
ATOM     23  N   UNL     1      -1.498  11.006  18.350  0.00  0.00    +0.000 N 
ATOM     24  C   UNL     1      -1.589  12.320  17.968  0.00  0.00    +0.000 A 
ATOM     25  C   UNL     1      -0.688  12.985  18.761  0.00  0.00    +0.000 A 
ATOM     26  N   UNL     1       0.001  12.104  19.551  0.00  0.00    +0.000 NA
ATOM     27  C   UNL     1      -0.474  10.902  19.268  0.00  0.00    +0.000 A 
ENDBRANCH  21  27
ENDBRANCH   1  21
TORSDOF 3
ENDMDL
MODEL 6
REMARK VINA RESULT:      -7.2      2.771      7.543
REMARK  Name = 
REMARK  4 active torsions:
REMARK  status: ('A' for Active; 'I' for Inactive)
REMARK    1  A    between atoms: C_1  and  N_2
REMARK    2  A    between atoms: C_6  and  C_7
REMARK    3  A    between atoms: C_7  and  N_8
REMARK    4  A    between atoms: N_16  and  C_17
REMARK                            x       y       z     vdW  Elec       q    Type
REMARK                         _______ _______ _______ _____ _____    ______ ____
ROOT
ATOM      1  N   UNL     1       1.321   9.108  19.172  0.00  0.00    +0.000 NA
ATOM      2  C   UNL     1       2.282   8.433  20.028  0.00  0.00    +0.000 C 
ATOM      3  C   UNL     1       2.344   6.901  19.946  0.00  0.00    +0.000 C 
ATOM      4  C   UNL     1       2.369   6.341  18.521  0.00  0.00    +0.000 C 
ATOM      5  C   UNL     1       1.409   7.074  17.569  0.00  0.00    +0.000 C 
ATOM      6  C   UNL     1       1.121   8.558  17.842  0.00  0.00    +0.000 C 
ATOM      7  C   UNL     1       3.813   6.417  17.949  0.00  0.00    +0.000 C 
ATOM      8  O   UNL     1       4.540   7.399  18.011  0.00  0.00    +0.000 OA
ATOM      9  N   UNL     1       4.080   5.187  17.325  0.00  0.00    +0.000 N 
ATOM     10  C   UNL     1       3.134   4.216  17.668  0.00  0.00    +0.000 A 
ATOM     11  C   UNL     1       3.134   2.845  17.439  0.00  0.00    +0.000 A 
ATOM     12  C   UNL     1       2.112   2.066  17.966  0.00  0.00    +0.000 A 
ATOM     13  C   UNL     1       1.103   2.667  18.736  0.00  0.00    +0.000 A 
ATOM     14  C   UNL     1       1.101   4.050  18.969  0.00  0.00    +0.000 A 
ATOM     15  C   UNL     1       2.123   4.827  18.430  0.00  0.00    +0.000 A 
ENDROOT
BRANCH   9  16
ATOM     16  C   UNL     1       5.328   4.872  16.839  0.00  0.00    +0.000 A 
ATOM     17  C   UNL     1       6.482   4.582  17.529  0.00  0.00    +0.000 A 
ATOM     18  C   UNL     1       7.608   4.484  16.664  0.00  0.00    +0.000 A 
ATOM     19  C   UNL     1       7.272   4.728  15.350  0.00  0.00    +0.000 A 
ATOM     20  S   UNL     1       5.590   4.998  15.158  0.00  0.00    +0.000 S 
ENDBRANCH   9  16
BRANCH   1  21
ATOM     21  C   UNL     1       0.131   9.632  19.850  0.00  0.00    +0.000 C 
BRANCH  21  27
ATOM     22  C   UNL     1       0.970  12.604  19.222  0.00  0.00    +0.000 C 
ATOM     23  N   UNL     1      -0.285  11.978  18.886  0.00  0.00    +0.000 N 
ATOM     24  C   UNL     1      -1.323  12.624  18.263  0.00  0.00    +0.000 A 
ATOM     25  C   UNL     1      -2.239  11.640  17.986  0.00  0.00    +0.000 A 
ATOM     26  N   UNL     1      -1.824  10.438  18.492  0.00  0.00    +0.000 NA
ATOM     27  C   UNL     1      -0.652  10.661  19.067  0.00  0.00    +0.000 A 
ENDBRANCH  21  27
ENDBRANCH   1  21
TORSDOF 3
ENDMDL
MODEL 7
REMARK VINA RESULT:      -7.2      2.695      7.947
REMARK  Name = 
REMARK  4 active torsions:
REMARK  status: ('A' for Active; 'I' for Inactive)
REMARK    1  A    between atoms: C_1  and  N_2
REMARK    2  A    between atoms: C_6  and  C_7
REMARK    3  A    between atoms: C_7  and  N_8
REMARK    4  A    between atoms: N_16  and  C_17
REMARK                            x       y       z     vdW  Elec       q    Type
REMARK                         _______ _______ _______ _____ _____    ______ ____
ROOT
ATOM      1  N   UNL     1       1.137   9.226  19.297  0.00  0.00    +0.000 NA
ATOM      2  C   UNL     1       2.154   8.570  20.101  0.00  0.00    +0.000 C 
ATOM      3  C   UNL     1       2.284   7.046  19.968  0.00  0.00    +0.000 C 
ATOM      4  C   UNL     1       2.290   6.532  18.526  0.00  0.00    +0.000 C 
ATOM      5  C   UNL     1       1.269   7.249  17.626  0.00  0.00    +0.000 C 
ATOM      6  C   UNL     1       0.921   8.708  17.956  0.00  0.00    +0.000 C 
ATOM      7  C   UNL     1       3.711   6.694  17.914  0.00  0.00    +0.000 C 
ATOM      8  O   UNL     1       4.393   7.706  17.986  0.00  0.00    +0.000 OA
ATOM      9  N   UNL     1       4.014   5.497  17.242  0.00  0.00    +0.000 N 
ATOM     10  C   UNL     1       3.124   4.473  17.582  0.00  0.00    +0.000 A 
ATOM     11  C   UNL     1       3.181   3.111  17.308  0.00  0.00    +0.000 A 
ATOM     12  C   UNL     1       2.212   2.269  17.840  0.00  0.00    +0.000 A 
ATOM     13  C   UNL     1       1.201   2.798  18.659  0.00  0.00    +0.000 A 
ATOM     14  C   UNL     1       1.143   4.172  18.937  0.00  0.00    +0.000 A 
ATOM     15  C   UNL     1       2.111   5.012  18.393  0.00  0.00    +0.000 A 
ENDROOT
BRANCH   9  16
ATOM     16  C   UNL     1       5.259   5.256  16.710  0.00  0.00    +0.000 A 
ATOM     17  C   UNL     1       5.642   5.180  15.391  0.00  0.00    +0.000 A 
ATOM     18  C   UNL     1       6.987   4.735  15.252  0.00  0.00    +0.000 A 
ATOM     19  C   UNL     1       7.570   4.467  16.472  0.00  0.00    +0.000 A 
ATOM     20  S   UNL     1       6.518   4.824  17.777  0.00  0.00    +0.000 S 
ENDBRANCH   9  16
BRANCH   1  21
ATOM     21  C   UNL     1      -0.054   9.671  20.027  0.00  0.00    +0.000 C 
BRANCH  21  27
ATOM     22  C   UNL     1      -0.863  10.564  22.939  0.00  0.00    +0.000 C 
ATOM     23  N   UNL     1      -0.403  11.422  21.876  0.00  0.00    +0.000 N 
ATOM     24  C   UNL     1      -0.289  12.785  21.985  0.00  0.00    +0.000 A 
ATOM     25  C   UNL     1       0.331  13.184  20.827  0.00  0.00    +0.000 A 
ATOM     26  N   UNL     1       0.522  12.117  19.990  0.00  0.00    +0.000 NA
ATOM     27  C   UNL     1       0.041  11.058  20.622  0.00  0.00    +0.000 A 
ENDBRANCH  21  27
ENDBRANCH   1  21
TORSDOF 3
ENDMDL
MODEL 8
REMARK VINA RESULT:      -7.2      2.750      7.798
REMARK  Name = 
REMARK  4 active torsions:
REMARK  status: ('A' for Active; 'I' for Inactive)
REMARK    1  A    between atoms: C_1  and  N_2
REMARK    2  A    between atoms: C_6  and  C_7
REMARK    3  A    between atoms: C_7  and  N_8
REMARK    4  A    between atoms: N_16  and  C_17
REMARK                            x       y       z     vdW  Elec       q    Type
REMARK                         _______ _______ _______ _____ _____    ______ ____
ROOT
ATOM      1  N   UNL     1       1.176   9.245  19.301  0.00  0.00    +0.000 NA
ATOM      2  C   UNL     1       2.195   8.584  20.097  0.00  0.00    +0.000 C 
ATOM      3  C   UNL     1       2.313   7.058  19.966  0.00  0.00    +0.000 C 
ATOM      4  C   UNL     1       2.303   6.542  18.525  0.00  0.00    +0.000 C 
ATOM      5  C   UNL     1       1.278   7.264  17.634  0.00  0.00    +0.000 C 
ATOM      6  C   UNL     1       0.944   8.727  17.963  0.00  0.00    +0.000 C 
ATOM      7  C   UNL     1       3.718   6.692  17.900  0.00  0.00    +0.000 C 
ATOM      8  O   UNL     1       4.409   7.700  17.964  0.00  0.00    +0.000 OA
ATOM      9  N   UNL     1       4.007   5.492  17.228  0.00  0.00    +0.000 N 
ATOM     10  C   UNL     1       3.114   4.475  17.578  0.00  0.00    +0.000 A 
ATOM     11  C   UNL     1       3.157   3.112  17.306  0.00  0.00    +0.000 A 
ATOM     12  C   UNL     1       2.188   2.278  17.849  0.00  0.00    +0.000 A 
ATOM     13  C   UNL     1       1.188   2.816  18.676  0.00  0.00    +0.000 A 
ATOM     14  C   UNL     1       1.143   4.190  18.951  0.00  0.00    +0.000 A 
ATOM     15  C   UNL     1       2.111   5.023  18.397  0.00  0.00    +0.000 A 
ENDROOT
BRANCH   9  16
ATOM     16  C   UNL     1       5.246   5.241  16.685  0.00  0.00    +0.000 A 
ATOM     17  C   UNL     1       5.616   5.158  15.363  0.00  0.00    +0.000 A 
ATOM     18  C   UNL     1       6.957   4.704  15.213  0.00  0.00    +0.000 A 
ATOM     19  C   UNL     1       7.549   4.436  16.428  0.00  0.00    +0.000 A 
ATOM     20  S   UNL     1       6.512   4.804  17.742  0.00  0.00    +0.000 S 
ENDBRANCH   9  16
BRANCH   1  21
ATOM     21  C   UNL     1      -0.005   9.701  20.040  0.00  0.00    +0.000 C 
BRANCH  21  27
ATOM     22  C   UNL     1      -1.330  12.021  18.369  0.00  0.00    +0.000 C 
ATOM     23  N   UNL     1      -0.545  12.170  19.568  0.00  0.00    +0.000 N 
ATOM     24  C   UNL     1      -0.231  13.378  20.136  0.00  0.00    +0.000 A 
ATOM     25  C   UNL     1       0.372  13.066  21.328  0.00  0.00    +0.000 A 
ATOM     26  N   UNL     1       0.504  11.710  21.462  0.00  0.00    +0.000 NA
ATOM     27  C   UNL     1      -0.024  11.176  20.372  0.00  0.00    +0.000 A 
ENDBRANCH  21  27
ENDBRANCH   1  21
TORSDOF 3
ENDMDL
MODEL 9
REMARK VINA RESULT:      -7.2      5.599     11.500
REMARK  Name = 
REMARK  4 active torsions:
REMARK  status: ('A' for Active; 'I' for Inactive)
REMARK    1  A    between atoms: C_1  and  N_2
REMARK    2  A    between atoms: C_6  and  C_7
REMARK    3  A    between atoms: C_7  and  N_8
REMARK    4  A    between atoms: N_16  and  C_17
REMARK                            x       y       z     vdW  Elec       q    Type
REMARK                         _______ _______ _______ _____ _____    ______ ____
ROOT
ATOM      1  N   UNL     1      -0.632  14.726  22.252  0.00  0.00    +0.000 NA
ATOM      2  C   UNL     1      -0.923  13.382  22.720  0.00  0.00    +0.000 C 
ATOM      3  C   UNL     1      -1.582  12.417  21.724  0.00  0.00    +0.000 C 
ATOM      4  C   UNL     1      -0.941  12.402  20.334  0.00  0.00    +0.000 C 
ATOM      5  C   UNL     1      -0.561  13.805  19.831  0.00  0.00    +0.000 C 
ATOM      6  C   UNL     1      -0.182  14.864  20.877  0.00  0.00    +0.000 C 
ATOM      7  C   UNL     1       0.327  11.503  20.346  0.00  0.00    +0.000 C 
ATOM      8  O   UNL     1       1.205  11.543  21.196  0.00  0.00    +0.000 OA
ATOM      9  N   UNL     1       0.281  10.701  19.193  0.00  0.00    +0.000 N 
ATOM     10  C   UNL     1      -0.981  10.734  18.589  0.00  0.00    +0.000 A 
ATOM     11  C   UNL     1      -1.505   9.950  17.568  0.00  0.00    +0.000 A 
ATOM     12  C   UNL     1      -2.835  10.112  17.199  0.00  0.00    +0.000 A 
ATOM     13  C   UNL     1      -3.635  11.051  17.870  0.00  0.00    +0.000 A 
ATOM     14  C   UNL     1      -3.107  11.843  18.901  0.00  0.00    +0.000 A 
ATOM     15  C   UNL     1      -1.772  11.682  19.260  0.00  0.00    +0.000 A 
ENDROOT
BRANCH   9  16
ATOM     16  C   UNL     1       1.185   9.688  18.973  0.00  0.00    +0.000 A 
ATOM     17  C   UNL     1       1.961   9.440  17.865  0.00  0.00    +0.000 A 
ATOM     18  C   UNL     1       2.637   8.190  17.958  0.00  0.00    +0.000 A 
ATOM     19  C   UNL     1       2.329   7.523  19.124  0.00  0.00    +0.000 A 
ATOM     20  S   UNL     1       1.289   8.440  20.132  0.00  0.00    +0.000 S 
ENDBRANCH   9  16
BRANCH   1  21
ATOM     21  C   UNL     1      -1.521  15.776  22.759  0.00  0.00    +0.000 C 
BRANCH  21  27
ATOM     22  C   UNL     1      -3.871  15.317  20.709  0.00  0.00    +0.000 C 
ATOM     23  N   UNL     1      -3.954  15.220  22.144  0.00  0.00    +0.000 N 
ATOM     24  C   UNL     1      -5.111  14.943  22.829  0.00  0.00    +0.000 A 
ATOM     25  C   UNL     1      -4.721  14.780  24.134  0.00  0.00    +0.000 A 
ATOM     26  N   UNL     1      -3.382  15.028  24.273  0.00  0.00    +0.000 NA
ATOM     27  C   UNL     1      -2.933  15.328  23.065  0.00  0.00    +0.000 A 
ENDBRANCH  21  27
ENDBRANCH   1  21
TORSDOF 3
ENDMDL
