MODEL 1
REMARK VINA RESULT:      -8.2      0.000      0.000
REMARK  Name = 
REMARK  4 active torsions:
REMARK  status: ('A' for Active; 'I' for Inactive)
REMARK    1  A    between atoms: C_2  and  C_3
REMARK    2  A    between atoms: N_7  and  S_8
REMARK    3  A    between atoms: S_8  and  C_11
REMARK    4  A    between atoms: N_20  and  C_21
REMARK                            x       y       z     vdW  Elec       q    Type
REMARK                         _______ _______ _______ _____ _____    ______ ____
ROOT
ATOM      1  O   UNL     1      -0.108  10.643  23.077  0.00  0.00    +0.000 OA
ATOM      2  C   UNL     1      -0.007  10.765  21.850  0.00  0.00    +0.000 C 
ATOM      3  N   UNL     1       0.681   9.802  21.087  0.00  0.00    +0.000 N 
ATOM      4  C   UNL     1       1.206   8.603  21.754  0.00  0.00    +0.000 C 
ATOM      5  C   UNL     1       1.449   7.397  20.795  0.00  0.00    +0.000 C 
ATOM      6  N   UNL     1       2.080   7.742  19.473  0.00  0.00    +0.000 N 
ATOM      7  C   UNL     1       1.512   8.956  18.862  0.00  0.00    +0.000 C 
ATOM      8  C   UNL     1       1.429  10.134  19.875  0.00  0.00    +0.000 C 
ENDROOT
BRANCH   6   9
ATOM      9  C   UNL     1       2.471   6.638  18.637  0.00  0.00    +0.000 A 
ATOM     10  C   UNL     1       1.638   5.531  18.626  0.00  0.00    +0.000 A 
ATOM     11  C   UNL     1       2.113   4.372  19.189  0.00  0.00    +0.000 A 
ATOM     12  N   UNL     1       3.419   4.144  19.361  0.00  0.00    +0.000 NA
ATOM     13  C   UNL     1       4.231   5.007  18.758  0.00  0.00    +0.000 A 
ATOM     14  C   UNL     1       5.480   4.512  18.440  0.00  0.00    +0.000 A 
ATOM     15  C   UNL     1       6.310   5.172  17.552  0.00  0.00    +0.000 A 
ATOM     16 CL   UNL     1       7.784   4.427  17.060  0.00  0.00    +0.000 Cl
ATOM     17  C   UNL     1       5.909   6.384  17.008  0.00  0.00    +0.000 A 
ATOM     18  C   UNL     1       4.684   6.961  17.409  0.00  0.00    +0.000 A 
ATOM     19  C   UNL     1       3.814   6.291  18.316  0.00  0.00    +0.000 A 
ENDBRANCH   6   9
BRANCH   2  20
ATOM     20  C   UNL     1      -0.766  11.899  21.098  0.00  0.00    +0.000 C 
ATOM     21  C   UNL     1      -2.075  12.304  21.793  0.00  0.00    +0.000 C 
ATOM     22  C   UNL     1      -1.712  13.462  22.710  0.00  0.00    +0.000 C 
ATOM     23  C   UNL     1      -0.393  14.012  22.191  0.00  0.00    +0.000 C 
ATOM     24  N   UNL     1      -0.038  13.217  20.972  0.00  0.00    +0.000 NA
BRANCH  24  25
ATOM     25  S   UNL     1      -0.409  14.023  19.481  0.00  0.00    +0.000 S 
ATOM     26  O   UNL     1      -0.884  13.043  18.553  0.00  0.00    +0.000 OA
ATOM     27  O   UNL     1      -1.197  15.201  19.803  0.00  0.00    +0.000 OA
BRANCH  25  28
ATOM     28  C   UNL     1       1.179  14.559  18.904  0.00  0.00    +0.000 A 
ATOM     29  C   UNL     1       2.149  13.589  18.644  0.00  0.00    +0.000 A 
ATOM     30  C   UNL     1       3.383  13.979  18.131  0.00  0.00    +0.000 A 
ATOM     31  C   UNL     1       3.642  15.333  17.884  0.00  0.00    +0.000 A 
ATOM     32  C   UNL     1       2.666  16.296  18.144  0.00  0.00    +0.000 A 
ATOM     33  C   UNL     1       1.424  15.912  18.649  0.00  0.00    +0.000 A 
ENDBRANCH  25  28
ENDBRANCH  24  25
ENDBRANCH   2  20
TORSDOF 4
ENDMDL
MODEL 2
REMARK VINA RESULT:      -7.9      2.043      2.955
REMARK  Name = 
REMARK  4 active torsions:
REMARK  status: ('A' for Active; 'I' for Inactive)
REMARK    1  A    between atoms: C_2  and  C_3
REMARK    2  A    between atoms: N_7  and  S_8
REMARK    3  A    between atoms: S_8  and  C_11
REMARK    4  A    between atoms: N_20  and  C_21
REMARK                            x       y       z     vdW  Elec       q    Type
REMARK                         _______ _______ _______ _____ _____    ______ ____
ROOT
ATOM      1  O   UNL     1      -0.030  10.240  23.221  0.00  0.00    +0.000 OA
ATOM      2  C   UNL     1       0.024  10.380  21.993  0.00  0.00    +0.000 C 
ATOM      3  N   UNL     1       0.702   9.440  21.192  0.00  0.00    +0.000 N 
ATOM      4  C   UNL     1       1.272   8.242  21.822  0.00  0.00    +0.000 C 
ATOM      5  C   UNL     1       1.502   7.055  20.838  0.00  0.00    +0.000 C 
ATOM      6  N   UNL     1       2.079   7.429  19.500  0.00  0.00    +0.000 N 
ATOM      7  C   UNL     1       1.467   8.641  18.926  0.00  0.00    +0.000 C 
ATOM      8  C   UNL     1       1.399   9.803  19.958  0.00  0.00    +0.000 C 
ENDROOT
BRANCH   6   9
ATOM      9  C   UNL     1       2.460   6.345  18.635  0.00  0.00    +0.000 A 
ATOM     10  C   UNL     1       1.766   5.154  18.775  0.00  0.00    +0.000 A 
ATOM     11  C   UNL     1       2.447   4.074  19.280  0.00  0.00    +0.000 A 
ATOM     12  N   UNL     1       3.782   3.995  19.251  0.00  0.00    +0.000 NA
ATOM     13  C   UNL     1       4.390   4.919  18.512  0.00  0.00    +0.000 A 
ATOM     14  C   UNL     1       5.624   4.550  18.013  0.00  0.00    +0.000 A 
ATOM     15  C   UNL     1       6.229   5.264  16.994  0.00  0.00    +0.000 A 
ATOM     16 CL   UNL     1       7.685   4.665  16.293  0.00  0.00    +0.000 Cl
ATOM     17  C   UNL     1       5.616   6.405  16.496  0.00  0.00    +0.000 A 
ATOM     18  C   UNL     1       4.409   6.859  17.071  0.00  0.00    +0.000 A 
ATOM     19  C   UNL     1       3.769   6.133  18.116  0.00  0.00    +0.000 A 
ENDBRANCH   6   9
BRANCH   2  20
ATOM     20  C   UNL     1      -0.782  11.509  21.285  0.00  0.00    +0.000 C 
ATOM     21  C   UNL     1      -1.830  12.159  22.201  0.00  0.00    +0.000 C 
ATOM     22  C   UNL     1      -1.137  13.357  22.833  0.00  0.00    +0.000 C 
ATOM     23  C   UNL     1       0.058  13.667  21.946  0.00  0.00    +0.000 C 
ATOM     24  N   UNL     1       0.017  12.698  20.804  0.00  0.00    +0.000 NA
BRANCH  24  25
ATOM     25  S   UNL     1      -0.632  13.369  19.342  0.00  0.00    +0.000 S 
ATOM     26  O   UNL     1      -1.498  14.451  19.696  0.00  0.00    +0.000 OA
ATOM     27  O   UNL     1       0.474  13.560  18.419  0.00  0.00    +0.000 OA
BRANCH  25  28
ATOM     28  C   UNL     1      -1.657  12.065  18.718  0.00  0.00    +0.000 A 
ATOM     29  C   UNL     1      -3.038  12.171  18.889  0.00  0.00    +0.000 A 
ATOM     30  C   UNL     1      -3.870  11.192  18.353  0.00  0.00    +0.000 A 
ATOM     31  C   UNL     1      -3.318  10.111  17.654  0.00  0.00    +0.000 A 
ATOM     32  C   UNL     1      -1.936  10.013  17.485  0.00  0.00    +0.000 A 
ATOM     33  C   UNL     1      -1.097  10.996  18.010  0.00  0.00    +0.000 A 
ENDBRANCH  25  28
ENDBRANCH  24  25
ENDBRANCH   2  20
TORSDOF 4
ENDMDL
MODEL 3
REMARK VINA RESULT:      -7.7      1.879      4.239
REMARK  Name = 
REMARK  4 active torsions:
REMARK  status: ('A' for Active; 'I' for Inactive)
REMARK    1  A    between atoms: C_2  and  C_3
REMARK    2  A    between atoms: N_7  and  S_8
REMARK    3  A    between atoms: S_8  and  C_11
REMARK    4  A    between atoms: N_20  and  C_21
REMARK                            x       y       z     vdW  Elec       q    Type
REMARK                         _______ _______ _______ _____ _____    ______ ____
ROOT
ATOM      1  O   UNL     1       1.138  12.826  18.421  0.00  0.00    +0.000 OA
ATOM      2  C   UNL     1       1.073  12.009  19.347  0.00  0.00    +0.000 C 
ATOM      3  N   UNL     1       1.310  10.640  19.115  0.00  0.00    +0.000 N 
ATOM      4  C   UNL     1       1.723  10.203  17.775  0.00  0.00    +0.000 C 
ATOM      5  C   UNL     1       2.462   8.830  17.753  0.00  0.00    +0.000 C 
ATOM      6  N   UNL     1       1.869   7.766  18.636  0.00  0.00    +0.000 N 
ATOM      7  C   UNL     1       1.473   8.271  19.963  0.00  0.00    +0.000 C 
ATOM      8  C   UNL     1       0.635   9.578  19.861  0.00  0.00    +0.000 C 
ENDROOT
BRANCH   6   9
ATOM      9  C   UNL     1       2.422   6.443  18.513  0.00  0.00    +0.000 A 
ATOM     10  C   UNL     1       1.821   5.439  19.257  0.00  0.00    +0.000 A 
ATOM     11  C   UNL     1       2.542   4.893  20.289  0.00  0.00    +0.000 A 
ATOM     12  N   UNL     1       3.875   4.975  20.352  0.00  0.00    +0.000 NA
ATOM     13  C   UNL     1       4.469   5.424  19.250  0.00  0.00    +0.000 A 
ATOM     14  C   UNL     1       5.771   5.000  19.073  0.00  0.00    +0.000 A 
ATOM     15  C   UNL     1       6.406   5.123  17.850  0.00  0.00    +0.000 A 
ATOM     16 CL   UNL     1       7.969   4.425  17.636  0.00  0.00    +0.000 Cl
ATOM     17  C   UNL     1       5.748   5.732  16.792  0.00  0.00    +0.000 A 
ATOM     18  C   UNL     1       4.458   6.272  16.987  0.00  0.00    +0.000 A 
ATOM     19  C   UNL     1       3.787   6.148  18.237  0.00  0.00    +0.000 A 
ENDBRANCH   6   9
BRANCH   2  20
ATOM     20  C   UNL     1       0.878  12.486  20.817  0.00  0.00    +0.000 C 
ATOM     21  C   UNL     1       1.878  13.578  21.228  0.00  0.00    +0.000 C 
ATOM     22  C   UNL     1       1.182  14.900  20.944  0.00  0.00    +0.000 C 
ATOM     23  C   UNL     1      -0.303  14.584  20.859  0.00  0.00    +0.000 C 
ATOM     24  N   UNL     1      -0.454  13.121  21.142  0.00  0.00    +0.000 NA
BRANCH  24  25
ATOM     25  S   UNL     1      -0.962  12.771  22.763  0.00  0.00    +0.000 S 
ATOM     26  O   UNL     1      -0.555  11.436  23.078  0.00  0.00    +0.000 OA
ATOM     27  O   UNL     1      -0.571  13.895  23.597  0.00  0.00    +0.000 OA
BRANCH  25  28
ATOM     28  C   UNL     1      -2.730  12.760  22.640  0.00  0.00    +0.000 A 
ATOM     29  C   UNL     1      -3.475  12.845  23.817  0.00  0.00    +0.000 A 
ATOM     30  C   UNL     1      -4.864  12.901  23.744  0.00  0.00    +0.000 A 
ATOM     31  C   UNL     1      -5.501  12.869  22.497  0.00  0.00    +0.000 A 
ATOM     32  C   UNL     1      -4.748  12.787  21.324  0.00  0.00    +0.000 A 
ATOM     33  C   UNL     1      -3.356  12.741  21.389  0.00  0.00    +0.000 A 
ENDBRANCH  25  28
ENDBRANCH  24  25
ENDBRANCH   2  20
TORSDOF 4
ENDMDL
MODEL 4
REMARK VINA RESULT:      -7.6      0.837      1.065
REMARK  Name = 
REMARK  4 active torsions:
REMARK  status: ('A' for Active; 'I' for Inactive)
REMARK    1  A    between atoms: C_2  and  C_3
REMARK    2  A    between atoms: N_7  and  S_8
REMARK    3  A    between atoms: S_8  and  C_11
REMARK    4  A    between atoms: N_20  and  C_21
REMARK                            x       y       z     vdW  Elec       q    Type
REMARK                         _______ _______ _______ _____ _____    ______ ____
ROOT
ATOM      1  O   UNL     1      -0.169  11.290  22.798  0.00  0.00    +0.000 OA
ATOM      2  C   UNL     1       0.003  11.213  21.575  0.00  0.00    +0.000 C 
ATOM      3  N   UNL     1       0.662  10.104  21.011  0.00  0.00    +0.000 N 
ATOM      4  C   UNL     1       1.068   8.994  21.883  0.00  0.00    +0.000 C 
ATOM      5  C   UNL     1       1.277   7.641  21.135  0.00  0.00    +0.000 C 
ATOM      6  N   UNL     1       1.997   7.738  19.818  0.00  0.00    +0.000 N 
ATOM      7  C   UNL     1       1.546   8.874  18.995  0.00  0.00    +0.000 C 
ATOM      8  C   UNL     1       1.492  10.198  19.811  0.00  0.00    +0.000 C 
ENDROOT
BRANCH   6   9
ATOM      9  C   UNL     1       2.355   6.497  19.184  0.00  0.00    +0.000 A 
ATOM     10  C   UNL     1       1.774   5.344  19.687  0.00  0.00    +0.000 A 
ATOM     11  C   UNL     1       2.590   4.449  20.334  0.00  0.00    +0.000 A 
ATOM     12  N   UNL     1       3.914   4.426  20.147  0.00  0.00    +0.000 NA
ATOM     13  C   UNL     1       4.359   5.173  19.142  0.00  0.00    +0.000 A 
ATOM     14  C   UNL     1       5.550   4.752  18.583  0.00  0.00    +0.000 A 
ATOM     15  C   UNL     1       5.976   5.228  17.356  0.00  0.00    +0.000 A 
ATOM     16 CL   UNL     1       7.381   4.546  16.627  0.00  0.00    +0.000 Cl
ATOM     17  C   UNL     1       5.224   6.187  16.693  0.00  0.00    +0.000 A 
ATOM     18  C   UNL     1       4.062   6.711  17.301  0.00  0.00    +0.000 A 
ATOM     19  C   UNL     1       3.606   6.227  18.561  0.00  0.00    +0.000 A 
ENDBRANCH   6   9
BRANCH   2  20
ATOM     20  C   UNL     1      -0.637  12.260  20.616  0.00  0.00    +0.000 C 
ATOM     21  C   UNL     1      -2.156  12.391  20.801  0.00  0.00    +0.000 C 
ATOM     22  C   UNL     1      -2.352  13.521  21.800  0.00  0.00    +0.000 C 
ATOM     23  C   UNL     1      -1.057  14.318  21.792  0.00  0.00    +0.000 C 
ATOM     24  N   UNL     1      -0.162  13.686  20.772  0.00  0.00    +0.000 NA
BRANCH  24  25
ATOM     25  S   UNL     1      -0.127  14.528  19.256  0.00  0.00    +0.000 S 
ATOM     26  O   UNL     1      -0.349  13.575  18.213  0.00  0.00    +0.000 OA
ATOM     27  O   UNL     1      -0.967  15.707  19.390  0.00  0.00    +0.000 OA
BRANCH  25  28
ATOM     28  C   UNL     1       1.559  15.059  19.126  0.00  0.00    +0.000 A 
ATOM     29  C   UNL     1       2.061  15.913  20.109  0.00  0.00    +0.000 A 
ATOM     30  C   UNL     1       3.398  16.294  20.064  0.00  0.00    +0.000 A 
ATOM     31  C   UNL     1       4.226  15.824  19.037  0.00  0.00    +0.000 A 
ATOM     32  C   UNL     1       3.717  14.968  18.058  0.00  0.00    +0.000 A 
ATOM     33  C   UNL     1       2.380  14.574  18.103  0.00  0.00    +0.000 A 
ENDBRANCH  25  28
ENDBRANCH  24  25
ENDBRANCH   2  20
TORSDOF 4
ENDMDL
MODEL 5
REMARK VINA RESULT:      -7.6      4.730      9.064
REMARK  Name = 
REMARK  4 active torsions:
REMARK  status: ('A' for Active; 'I' for Inactive)
REMARK    1  A    between atoms: C_2  and  C_3
REMARK    2  A    between atoms: N_7  and  S_8
REMARK    3  A    between atoms: S_8  and  C_11
REMARK    4  A    between atoms: N_20  and  C_21
REMARK                            x       y       z     vdW  Elec       q    Type
REMARK                         _______ _______ _______ _____ _____    ______ ____
ROOT
ATOM      1  O   UNL     1       2.995   4.710  20.874  0.00  0.00    +0.000 OA
ATOM      2  C   UNL     1       3.204   5.208  19.761  0.00  0.00    +0.000 C 
ATOM      3  N   UNL     1       2.600   6.427  19.396  0.00  0.00    +0.000 N 
ATOM      4  C   UNL     1       1.787   7.147  20.385  0.00  0.00    +0.000 C 
ATOM      5  C   UNL     1       1.630   8.671  20.089  0.00  0.00    +0.000 C 
ATOM      6  N   UNL     1       1.378   9.026  18.649  0.00  0.00    +0.000 N 
ATOM      7  C   UNL     1       2.222   8.265  17.711  0.00  0.00    +0.000 C 
ATOM      8  C   UNL     1       2.209   6.741  18.022  0.00  0.00    +0.000 C 
ENDROOT
BRANCH   6   9
ATOM      9  C   UNL     1       1.061  10.401  18.369  0.00  0.00    +0.000 A 
ATOM     10  C   UNL     1       2.103  11.214  17.953  0.00  0.00    +0.000 A 
ATOM     11  C   UNL     1       2.517  12.206  18.807  0.00  0.00    +0.000 A 
ATOM     12  N   UNL     1       1.736  12.677  19.786  0.00  0.00    +0.000 NA
ATOM     13  C   UNL     1       0.468  12.281  19.742  0.00  0.00    +0.000 A 
ATOM     14  C   UNL     1      -0.435  13.141  20.336  0.00  0.00    +0.000 A 
ATOM     15  C   UNL     1      -1.794  13.027  20.105  0.00  0.00    +0.000 A 
ATOM     16 CL   UNL     1      -2.861  14.226  20.734  0.00  0.00    +0.000 Cl
ATOM     17  C   UNL     1      -2.271  11.997  19.307  0.00  0.00    +0.000 A 
ATOM     18  C   UNL     1      -1.373  11.043  18.783  0.00  0.00    +0.000 A 
ATOM     19  C   UNL     1       0.030  11.149  19.004  0.00  0.00    +0.000 A 
ENDBRANCH   6   9
BRANCH   2  20
ATOM     20  C   UNL     1       4.254   4.584  18.795  0.00  0.00    +0.000 C 
ATOM     21  C   UNL     1       4.558   3.112  19.114  0.00  0.00    +0.000 C 
ATOM     22  C   UNL     1       3.609   2.300  18.246  0.00  0.00    +0.000 C 
ATOM     23  C   UNL     1       3.154   3.232  17.134  0.00  0.00    +0.000 C 
ATOM     24  N   UNL     1       3.869   4.532  17.335  0.00  0.00    +0.000 NA
BRANCH  24  25
ATOM     25  S   UNL     1       5.241   4.743  16.294  0.00  0.00    +0.000 S 
ATOM     26  O   UNL     1       5.876   3.471  16.134  0.00  0.00    +0.000 OA
ATOM     27  O   UNL     1       4.804   5.517  15.144  0.00  0.00    +0.000 OA
BRANCH  25  28
ATOM     28  C   UNL     1       6.332   5.751  17.260  0.00  0.00    +0.000 A 
ATOM     29  C   UNL     1       7.160   5.123  18.193  0.00  0.00    +0.000 A 
ATOM     30  C   UNL     1       8.070   5.885  18.919  0.00  0.00    +0.000 A 
ATOM     31  C   UNL     1       8.147   7.268  18.713  0.00  0.00    +0.000 A 
ATOM     32  C   UNL     1       7.318   7.888  17.777  0.00  0.00    +0.000 A 
ATOM     33  C   UNL     1       6.410   7.130  17.038  0.00  0.00    +0.000 A 
ENDBRANCH  25  28
ENDBRANCH  24  25
ENDBRANCH   2  20
TORSDOF 4
ENDMDL
MODEL 6
REMARK VINA RESULT:      -7.5      4.952      9.125
REMARK  Name = 
REMARK  4 active torsions:
REMARK  status: ('A' for Active; 'I' for Inactive)
REMARK    1  A    between atoms: C_2  and  C_3
REMARK    2  A    between atoms: N_7  and  S_8
REMARK    3  A    between atoms: S_8  and  C_11
REMARK    4  A    between atoms: N_20  and  C_21
REMARK                            x       y       z     vdW  Elec       q    Type
REMARK                         _______ _______ _______ _____ _____    ______ ____
ROOT
ATOM      1  O   UNL     1       3.398   4.632  20.923  0.00  0.00    +0.000 OA
ATOM      2  C   UNL     1       3.430   5.076  19.768  0.00  0.00    +0.000 C 
ATOM      3  N   UNL     1       2.677   6.214  19.416  0.00  0.00    +0.000 N 
ATOM      4  C   UNL     1       1.920   6.921  20.457  0.00  0.00    +0.000 C 
ATOM      5  C   UNL     1       1.588   8.404  20.105  0.00  0.00    +0.000 C 
ATOM      6  N   UNL     1       1.140   8.645  18.690  0.00  0.00    +0.000 N 
ATOM      7  C   UNL     1       1.938   7.904  17.697  0.00  0.00    +0.000 C 
ATOM      8  C   UNL     1       2.103   6.406  18.085  0.00  0.00    +0.000 C 
ENDROOT
BRANCH   6   9
ATOM      9  C   UNL     1       0.666   9.968  18.379  0.00  0.00    +0.000 A 
ATOM     10  C   UNL     1       1.454  11.031  18.792  0.00  0.00    +0.000 A 
ATOM     11  C   UNL     1       0.962  11.840  19.786  0.00  0.00    +0.000 A 
ATOM     12  N   UNL     1      -0.343  11.908  20.071  0.00  0.00    +0.000 NA
ATOM     13  C   UNL     1      -1.148  11.315  19.195  0.00  0.00    +0.000 A 
ATOM     14  C   UNL     1      -2.430  11.826  19.137  0.00  0.00    +0.000 A 
ATOM     15  C   UNL     1      -3.274  11.532  18.082  0.00  0.00    +0.000 A 
ATOM     16 CL   UNL     1      -4.799  12.329  17.972  0.00  0.00    +0.000 Cl
ATOM     17  C   UNL     1      -2.852  10.663  17.086  0.00  0.00    +0.000 A 
ATOM     18  C   UNL     1      -1.588  10.043  17.187  0.00  0.00    +0.000 A 
ATOM     19  C   UNL     1      -0.703  10.340  18.263  0.00  0.00    +0.000 A 
ENDBRANCH   6   9
BRANCH   2  20
ATOM     20  C   UNL     1       4.415   4.487  18.716  0.00  0.00    +0.000 C 
ATOM     21  C   UNL     1       4.658   2.981  18.903  0.00  0.00    +0.000 C 
ATOM     22  C   UNL     1       3.642   2.287  18.008  0.00  0.00    +0.000 C 
ATOM     23  C   UNL     1       3.196   3.328  16.993  0.00  0.00    +0.000 C 
ATOM     24  N   UNL     1       3.980   4.573  17.272  0.00  0.00    +0.000 NA
BRANCH  24  25
ATOM     25  S   UNL     1       5.325   4.806  16.201  0.00  0.00    +0.000 S 
ATOM     26  O   UNL     1       5.888   3.523  15.910  0.00  0.00    +0.000 OA
ATOM     27  O   UNL     1       4.890   5.697  15.138  0.00  0.00    +0.000 OA
BRANCH  25  28
ATOM     28  C   UNL     1       6.499   5.673  17.207  0.00  0.00    +0.000 A 
ATOM     29  C   UNL     1       6.596   7.058  17.064  0.00  0.00    +0.000 A 
ATOM     30  C   UNL     1       7.465   7.769  17.886  0.00  0.00    +0.000 A 
ATOM     31  C   UNL     1       8.234   7.094  18.842  0.00  0.00    +0.000 A 
ATOM     32  C   UNL     1       8.130   5.709  18.980  0.00  0.00    +0.000 A 
ATOM     33  C   UNL     1       7.253   4.991  18.167  0.00  0.00    +0.000 A 
ENDBRANCH  25  28
ENDBRANCH  24  25
ENDBRANCH   2  20
TORSDOF 4
ENDMDL
MODEL 7
REMARK VINA RESULT:      -7.4      2.532      4.985
REMARK  Name = 
REMARK  4 active torsions:
REMARK  status: ('A' for Active; 'I' for Inactive)
REMARK    1  A    between atoms: C_2  and  C_3
REMARK    2  A    between atoms: N_7  and  S_8
REMARK    3  A    between atoms: S_8  and  C_11
REMARK    4  A    between atoms: N_20  and  C_21
REMARK                            x       y       z     vdW  Elec       q    Type
REMARK                         _______ _______ _______ _____ _____    ______ ____
ROOT
ATOM      1  O   UNL     1      -1.188  11.674  18.542  0.00  0.00    +0.000 OA
ATOM      2  C   UNL     1      -0.616  11.180  19.522  0.00  0.00    +0.000 C 
ATOM      3  N   UNL     1       0.248  10.079  19.368  0.00  0.00    +0.000 N 
ATOM      4  C   UNL     1       0.533   9.576  18.018  0.00  0.00    +0.000 C 
ATOM      5  C   UNL     1       1.859   8.761  17.910  0.00  0.00    +0.000 C 
ATOM      6  N   UNL     1       2.116   7.798  19.037  0.00  0.00    +0.000 N 
ATOM      7  C   UNL     1       1.806   8.363  20.361  0.00  0.00    +0.000 C 
ATOM      8  C   UNL     1       0.408   9.044  20.390  0.00  0.00    +0.000 C 
ENDROOT
BRANCH   6   9
ATOM      9  C   UNL     1       3.240   6.911  18.885  0.00  0.00    +0.000 A 
ATOM     10  C   UNL     1       4.294   7.361  18.105  0.00  0.00    +0.000 A 
ATOM     11  C   UNL     1       4.517   6.727  16.908  0.00  0.00    +0.000 A 
ATOM     12  N   UNL     1       4.063   5.494  16.658  0.00  0.00    +0.000 NA
ATOM     13  C   UNL     1       3.575   4.843  17.709  0.00  0.00    +0.000 A 
ATOM     14  C   UNL     1       3.636   3.466  17.625  0.00  0.00    +0.000 A 
ATOM     15  C   UNL     1       3.461   2.670  18.743  0.00  0.00    +0.000 A 
ATOM     16 CL   UNL     1       3.715   0.969  18.617  0.00  0.00    +0.000 Cl
ATOM     17  C   UNL     1       3.163   3.256  19.965  0.00  0.00    +0.000 A 
ATOM     18  C   UNL     1       2.986   4.654  20.046  0.00  0.00    +0.000 A 
ATOM     19  C   UNL     1       3.169   5.490  18.907  0.00  0.00    +0.000 A 
ENDBRANCH   6   9
BRANCH   2  20
ATOM     20  C   UNL     1      -0.715  11.853  20.923  0.00  0.00    +0.000 C 
ATOM     21  C   UNL     1       0.480  12.767  21.233  0.00  0.00    +0.000 C 
ATOM     22  C   UNL     1       0.060  14.158  20.784  0.00  0.00    +0.000 C 
ATOM     23  C   UNL     1      -1.458  14.132  20.699  0.00  0.00    +0.000 C 
ATOM     24  N   UNL     1      -1.896  12.770  21.141  0.00  0.00    +0.000 NA
BRANCH  24  25
ATOM     25  S   UNL     1      -2.466  12.716  22.778  0.00  0.00    +0.000 S 
ATOM     26  O   UNL     1      -2.145  11.431  23.318  0.00  0.00    +0.000 OA
ATOM     27  O   UNL     1      -2.033  13.939  23.434  0.00  0.00    +0.000 OA
BRANCH  25  28
ATOM     28  C   UNL     1      -4.229  12.778  22.596  0.00  0.00    +0.000 A 
ATOM     29  C   UNL     1      -4.768  12.601  21.321  0.00  0.00    +0.000 A 
ATOM     30  C   UNL     1      -6.150  12.583  21.161  0.00  0.00    +0.000 A 
ATOM     31  C   UNL     1      -6.985  12.744  22.273  0.00  0.00    +0.000 A 
ATOM     32  C   UNL     1      -6.438  12.919  23.545  0.00  0.00    +0.000 A 
ATOM     33  C   UNL     1      -5.055  12.928  23.714  0.00  0.00    +0.000 A 
ENDBRANCH  25  28
ENDBRANCH  24  25
ENDBRANCH   2  20
TORSDOF 4
ENDMDL
MODEL 8
REMARK VINA RESULT:      -7.3      2.512      5.075
REMARK  Name = 
REMARK  4 active torsions:
REMARK  status: ('A' for Active; 'I' for Inactive)
REMARK    1  A    between atoms: C_2  and  C_3
REMARK    2  A    between atoms: N_7  and  S_8
REMARK    3  A    between atoms: S_8  and  C_11
REMARK    4  A    between atoms: N_20  and  C_21
REMARK                            x       y       z     vdW  Elec       q    Type
REMARK                         _______ _______ _______ _____ _____    ______ ____
ROOT
ATOM      1  O   UNL     1       0.180  12.584  18.577  0.00  0.00    +0.000 OA
ATOM      2  C   UNL     1       0.335  11.911  19.604  0.00  0.00    +0.000 C 
ATOM      3  N   UNL     1       0.799  10.584  19.530  0.00  0.00    +0.000 N 
ATOM      4  C   UNL     1       1.183  10.032  18.224  0.00  0.00    +0.000 C 
ATOM      5  C   UNL     1       2.156   8.817  18.309  0.00  0.00    +0.000 C 
ATOM      6  N   UNL     1       1.836   7.808  19.378  0.00  0.00    +0.000 N 
ATOM      7  C   UNL     1       1.454   8.427  20.659  0.00  0.00    +0.000 C 
ATOM      8  C   UNL     1       0.387   9.543  20.472  0.00  0.00    +0.000 C 
ENDROOT
BRANCH   6   9
ATOM      9  C   UNL     1       2.609   6.595  19.374  0.00  0.00    +0.000 A 
ATOM     10  C   UNL     1       3.850   6.641  18.757  0.00  0.00    +0.000 A 
ATOM     11  C   UNL     1       4.011   5.929  17.595  0.00  0.00    +0.000 A 
ATOM     12  N   UNL     1       3.211   4.908  17.266  0.00  0.00    +0.000 NA
ATOM     13  C   UNL     1       2.395   4.493  18.230  0.00  0.00    +0.000 A 
ATOM     14  C   UNL     1       2.005   3.171  18.137  0.00  0.00    +0.000 A 
ATOM     15  C   UNL     1       1.422   2.518  19.208  0.00  0.00    +0.000 A 
ATOM     16 CL   UNL     1       1.110   0.826  19.096  0.00  0.00    +0.000 Cl
ATOM     17  C   UNL     1       1.171   3.211  20.383  0.00  0.00    +0.000 A 
ATOM     18  C   UNL     1       1.461   4.591  20.458  0.00  0.00    +0.000 A 
ATOM     19  C   UNL     1       2.067   5.278  19.367  0.00  0.00    +0.000 A 
ENDBRANCH   6   9
BRANCH   2  20
ATOM     20  C   UNL     1       0.167  12.558  21.011  0.00  0.00    +0.000 C 
ATOM     21  C   UNL     1       1.095  13.763  21.230  0.00  0.00    +0.000 C 
ATOM     22  C   UNL     1       0.286  14.984  20.819  0.00  0.00    +0.000 C 
ATOM     23  C   UNL     1      -1.172  14.554  20.853  0.00  0.00    +0.000 C 
ATOM     24  N   UNL     1      -1.196  13.132  21.323  0.00  0.00    +0.000 NA
BRANCH  24  25
ATOM     25  S   UNL     1      -1.605  12.958  23.000  0.00  0.00    +0.000 S 
ATOM     26  O   UNL     1      -1.106  11.695  23.450  0.00  0.00    +0.000 OA
ATOM     27  O   UNL     1      -1.242  14.194  23.671  0.00  0.00    +0.000 OA
BRANCH  25  28
ATOM     28  C   UNL     1      -3.374  12.838  22.975  0.00  0.00    +0.000 A 
ATOM     29  C   UNL     1      -4.049  12.774  24.195  0.00  0.00    +0.000 A 
ATOM     30  C   UNL     1      -5.440  12.743  24.204  0.00  0.00    +0.000 A 
ATOM     31  C   UNL     1      -6.149  12.773  22.997  0.00  0.00    +0.000 A 
ATOM     32  C   UNL     1      -5.466  12.840  21.781  0.00  0.00    +0.000 A 
ATOM     33  C   UNL     1      -4.073  12.882  21.765  0.00  0.00    +0.000 A 
ENDBRANCH  25  28
ENDBRANCH  24  25
ENDBRANCH   2  20
TORSDOF 4
ENDMDL
MODEL 9
REMARK VINA RESULT:      -7.3      4.632      9.111
REMARK  Name = 
REMARK  4 active torsions:
REMARK  status: ('A' for Active; 'I' for Inactive)
REMARK    1  A    between atoms: C_2  and  C_3
REMARK    2  A    between atoms: N_7  and  S_8
REMARK    3  A    between atoms: S_8  and  C_11
REMARK    4  A    between atoms: N_20  and  C_21
REMARK                            x       y       z     vdW  Elec       q    Type
REMARK                         _______ _______ _______ _____ _____    ______ ____
ROOT
ATOM      1  O   UNL     1       2.973   5.089  20.578  0.00  0.00    +0.000 OA
ATOM      2  C   UNL     1       3.214   5.732  19.549  0.00  0.00    +0.000 C 
ATOM      3  N   UNL     1       2.567   6.958  19.299  0.00  0.00    +0.000 N 
ATOM      4  C   UNL     1       1.664   7.510  20.317  0.00  0.00    +0.000 C 
ATOM      5  C   UNL     1       1.440   9.049  20.200  0.00  0.00    +0.000 C 
ATOM      6  N   UNL     1       1.249   9.569  18.802  0.00  0.00    +0.000 N 
ATOM      7  C   UNL     1       2.182   8.971  17.831  0.00  0.00    +0.000 C 
ATOM      8  C   UNL     1       2.234   7.421  17.952  0.00  0.00    +0.000 C 
ENDROOT
BRANCH   6   9
ATOM      9  C   UNL     1       0.873  10.952  18.672  0.00  0.00    +0.000 A 
ATOM     10  C   UNL     1       1.901  11.872  18.541  0.00  0.00    +0.000 A 
ATOM     11  C   UNL     1       2.110  12.745  19.580  0.00  0.00    +0.000 A 
ATOM     12  N   UNL     1       1.163  13.021  20.483  0.00  0.00    +0.000 NA
ATOM     13  C   UNL     1      -0.052  12.569  20.188  0.00  0.00    +0.000 A 
ATOM     14  C   UNL     1      -1.093  13.281  20.750  0.00  0.00    +0.000 A 
ATOM     15  C   UNL     1      -2.392  13.131  20.298  0.00  0.00    +0.000 A 
ATOM     16 CL   UNL     1      -3.626  14.165  20.917  0.00  0.00    +0.000 Cl
ATOM     17  C   UNL     1      -2.670  12.210  19.299  0.00  0.00    +0.000 A 
ATOM     18  C   UNL     1      -1.636  11.394  18.791  0.00  0.00    +0.000 A 
ATOM     19  C   UNL     1      -0.292  11.540  19.239  0.00  0.00    +0.000 A 
ENDBRANCH   6   9
BRANCH   2  20
ATOM     20  C   UNL     1       4.348   5.283  18.579  0.00  0.00    +0.000 C 
ATOM     21  C   UNL     1       4.877   3.875  18.890  0.00  0.00    +0.000 C 
ATOM     22  C   UNL     1       4.065   2.929  18.018  0.00  0.00    +0.000 C 
ATOM     23  C   UNL     1       3.469   3.785  16.911  0.00  0.00    +0.000 C 
ATOM     24  N   UNL     1       3.975   5.180  17.119  0.00  0.00    +0.000 NA
BRANCH  24  25
ATOM     25  S   UNL     1       5.296   5.606  16.079  0.00  0.00    +0.000 S 
ATOM     26  O   UNL     1       5.778   4.409  15.461  0.00  0.00    +0.000 OA
ATOM     27  O   UNL     1       4.878   6.748  15.284  0.00  0.00    +0.000 OA
BRANCH  25  28
ATOM     28  C   UNL     1       6.547   6.145  17.213  0.00  0.00    +0.000 A 
ATOM     29  C   UNL     1       6.880   7.500  17.233  0.00  0.00    +0.000 A 
ATOM     30  C   UNL     1       7.814   7.959  18.157  0.00  0.00    +0.000 A 
ATOM     31  C   UNL     1       8.412   7.064  19.052  0.00  0.00    +0.000 A 
ATOM     32  C   UNL     1       8.072   5.710  19.027  0.00  0.00    +0.000 A 
ATOM     33  C   UNL     1       7.129   5.245  18.111  0.00  0.00    +0.000 A 
ENDBRANCH  25  28
ENDBRANCH  24  25
ENDBRANCH   2  20
TORSDOF 4
ENDMDL
