MODEL 1
REMARK VINA RESULT:      -6.5      0.000      0.000
REMARK  Name = 
REMARK  11 active torsions:
REMARK  status: ('A' for Active; 'I' for Inactive)
REMARK    1  A    between atoms: C_1  and  C_2
REMARK    2  A    between atoms: C_2  and  N_3
REMARK    3  A    between atoms: N_3  and  C_4
REMARK    4  A    between atoms: N_3  and  C_6
REMARK    5  A    between atoms: C_4  and  C_5
REMARK    6  A    between atoms: C_6  and  C_7
REMARK    7  A    between atoms: C_7  and  N_8
REMARK    8  A    between atoms: C_11  and  C_12
REMARK    9  A    between atoms: C_18  and  C_19
REMARK   10  A    between atoms: N_22  and  C_23
REMARK   11  A    between atoms: C_23  and  C_24
REMARK                            x       y       z     vdW  Elec       q    Type
REMARK                         _______ _______ _______ _____ _____    ______ ____
ROOT
ATOM      1  N   UNL     1       2.941   4.208  17.260  0.00  0.00    +0.000 N 
ATOM      2  C   UNL     1       3.878   3.498  16.557  0.00  0.00    +0.000 A 
ATOM      3  N   UNL     1       5.060   4.055  16.619  0.00  0.00    +0.000 NA
ATOM      4  C   UNL     1       4.904   5.177  17.405  0.00  0.00    +0.000 A 
ATOM      5  C   UNL     1       3.574   5.320  17.783  0.00  0.00    +0.000 A 
ENDROOT
BRANCH   4   6
ATOM      6  C   UNL     1       6.050   5.997  17.778  0.00  0.00    +0.000 A 
ATOM      7  C   UNL     1       6.911   5.558  18.792  0.00  0.00    +0.000 A 
ATOM      8  C   UNL     1       8.038   6.307  19.140  0.00  0.00    +0.000 A 
ATOM      9  C   UNL     1       8.317   7.500  18.475  0.00  0.00    +0.000 A 
ATOM     10  C   UNL     1       7.446   7.968  17.497  0.00  0.00    +0.000 A 
ATOM     11  C   UNL     1       6.301   7.237  17.177  0.00  0.00    +0.000 A 
ENDBRANCH   4   6
BRANCH   5  12
ATOM     12  C   UNL     1       2.949   6.415  18.571  0.00  0.00    +0.000 A 
ATOM     13  C   UNL     1       2.527   6.416  19.919  0.00  0.00    +0.000 A 
ATOM     14  N   UNL     1       1.918   7.554  20.263  0.00  0.00    +0.000 NA
ATOM     15  N   UNL     1       1.949   8.280  19.132  0.00  0.00    +0.000 N 
ATOM     16  C   UNL     1       2.597   7.659  18.102  0.00  0.00    +0.000 A 
BRANCH  15  17
ATOM     17  C   UNL     1       1.306   9.579  19.086  0.00  0.00    +0.000 C 
ATOM     18  C   UNL     1       1.883  10.470  17.999  0.00  0.00    +0.000 C 
ENDBRANCH  15  17
ENDBRANCH   5  12
BRANCH   1  19
ATOM     19  C   UNL     1       1.517   3.906  17.356  0.00  0.00    +0.000 C 
BRANCH  19  20
ATOM     20  C   UNL     1       1.131   2.911  18.462  0.00  0.00    +0.000 C 
BRANCH  20  21
ATOM     21  N   UNL     1       2.050   2.831  19.618  0.00  0.00    +0.000 NA
BRANCH  21  23
ATOM     22  C   UNL     1       1.995   3.107  22.138  0.00  0.00    +0.000 C 
ATOM     23  C   UNL     1       1.244   2.775  20.855  0.00  0.00    +0.000 C 
ENDBRANCH  21  23
BRANCH  21  24
ATOM     24  C   UNL     1       3.057   1.761  19.517  0.00  0.00    +0.000 C 
ATOM     25  C   UNL     1       4.488   2.141  19.883  0.00  0.00    +0.000 C 
ENDBRANCH  21  24
ENDBRANCH  20  21
ENDBRANCH  19  20
ENDBRANCH   1  19
TORSDOF 8
ENDMDL
MODEL 2
REMARK VINA RESULT:      -6.5      2.356      6.091
REMARK  Name = 
REMARK  11 active torsions:
REMARK  status: ('A' for Active; 'I' for Inactive)
REMARK    1  A    between atoms: C_1  and  C_2
REMARK    2  A    between atoms: C_2  and  N_3
REMARK    3  A    between atoms: N_3  and  C_4
REMARK    4  A    between atoms: N_3  and  C_6
REMARK    5  A    between atoms: C_4  and  C_5
REMARK    6  A    between atoms: C_6  and  C_7
REMARK    7  A    between atoms: C_7  and  N_8
REMARK    8  A    between atoms: C_11  and  C_12
REMARK    9  A    between atoms: C_18  and  C_19
REMARK   10  A    between atoms: N_22  and  C_23
REMARK   11  A    between atoms: C_23  and  C_24
REMARK                            x       y       z     vdW  Elec       q    Type
REMARK                         _______ _______ _______ _____ _____    ______ ____
ROOT
ATOM      1  N   UNL     1       4.693   5.457  16.620  0.00  0.00    +0.000 N 
ATOM      2  C   UNL     1       5.154   6.705  16.293  0.00  0.00    +0.000 A 
ATOM      3  N   UNL     1       4.458   7.650  16.871  0.00  0.00    +0.000 NA
ATOM      4  C   UNL     1       3.501   7.003  17.623  0.00  0.00    +0.000 A 
ATOM      5  C   UNL     1       3.600   5.627  17.449  0.00  0.00    +0.000 A 
ENDROOT
BRANCH   4   6
ATOM      6  C   UNL     1       2.601   7.748  18.494  0.00  0.00    +0.000 A 
ATOM      7  C   UNL     1       1.961   8.894  18.005  0.00  0.00    +0.000 A 
ATOM      8  C   UNL     1       1.063   9.603  18.807  0.00  0.00    +0.000 A 
ATOM      9  C   UNL     1       0.794   9.171  20.105  0.00  0.00    +0.000 A 
ATOM     10  C   UNL     1       1.457   8.060  20.617  0.00  0.00    +0.000 A 
ATOM     11  C   UNL     1       2.381   7.376  19.826  0.00  0.00    +0.000 A 
ENDBRANCH   4   6
BRANCH   5  12
ATOM     12  C   UNL     1       2.733   4.559  18.013  0.00  0.00    +0.000 A 
ATOM     13  C   UNL     1       1.609   3.926  17.439  0.00  0.00    +0.000 A 
ATOM     14  N   UNL     1       1.017   3.072  18.280  0.00  0.00    +0.000 NA
ATOM     15  N   UNL     1       1.763   3.163  19.394  0.00  0.00    +0.000 N 
ATOM     16  C   UNL     1       2.832   4.007  19.269  0.00  0.00    +0.000 A 
BRANCH  15  17
ATOM     17  C   UNL     1       1.385   2.424  20.583  0.00  0.00    +0.000 C 
ATOM     18  C   UNL     1       2.306   2.709  21.756  0.00  0.00    +0.000 C 
ENDBRANCH  15  17
ENDBRANCH   5  12
BRANCH   1  19
ATOM     19  C   UNL     1       5.197   4.186  16.113  0.00  0.00    +0.000 C 
BRANCH  19  20
ATOM     20  C   UNL     1       5.170   4.033  14.583  0.00  0.00    +0.000 C 
BRANCH  20  21
ATOM     21  N   UNL     1       6.483   3.854  13.923  0.00  0.00    +0.000 NA
BRANCH  21  23
ATOM     22  C   UNL     1       4.802   3.445  12.070  0.00  0.00    +0.000 C 
ATOM     23  C   UNL     1       6.251   3.399  12.537  0.00  0.00    +0.000 C 
ENDBRANCH  21  23
BRANCH  21  24
ATOM     24  C   UNL     1       7.374   5.022  14.024  0.00  0.00    +0.000 C 
ATOM     25  C   UNL     1       8.027   5.488  12.727  0.00  0.00    +0.000 C 
ENDBRANCH  21  24
ENDBRANCH  20  21
ENDBRANCH  19  20
ENDBRANCH   1  19
TORSDOF 8
ENDMDL
MODEL 3
REMARK VINA RESULT:      -6.5      1.289      5.100
REMARK  Name = 
REMARK  11 active torsions:
REMARK  status: ('A' for Active; 'I' for Inactive)
REMARK    1  A    between atoms: C_1  and  C_2
REMARK    2  A    between atoms: C_2  and  N_3
REMARK    3  A    between atoms: N_3  and  C_4
REMARK    4  A    between atoms: N_3  and  C_6
REMARK    5  A    between atoms: C_4  and  C_5
REMARK    6  A    between atoms: C_6  and  C_7
REMARK    7  A    between atoms: C_7  and  N_8
REMARK    8  A    between atoms: C_11  and  C_12
REMARK    9  A    between atoms: C_18  and  C_19
REMARK   10  A    between atoms: N_22  and  C_23
REMARK   11  A    between atoms: C_23  and  C_24
REMARK                            x       y       z     vdW  Elec       q    Type
REMARK                         _______ _______ _______ _____ _____    ______ ____
ROOT
ATOM      1  N   UNL     1       4.666   4.943  16.669  0.00  0.00    +0.000 N 
ATOM      2  C   UNL     1       4.999   3.615  16.629  0.00  0.00    +0.000 A 
ATOM      3  N   UNL     1       4.401   2.933  17.571  0.00  0.00    +0.000 NA
ATOM      4  C   UNL     1       3.628   3.843  18.259  0.00  0.00    +0.000 A 
ATOM      5  C   UNL     1       3.811   5.120  17.741  0.00  0.00    +0.000 A 
ENDROOT
BRANCH   4   6
ATOM      6  C   UNL     1       2.734   3.413  19.326  0.00  0.00    +0.000 A 
ATOM      7  C   UNL     1       3.267   3.047  20.568  0.00  0.00    +0.000 A 
ATOM      8  C   UNL     1       2.427   2.669  21.619  0.00  0.00    +0.000 A 
ATOM      9  C   UNL     1       1.045   2.658  21.439  0.00  0.00    +0.000 A 
ATOM     10  C   UNL     1       0.505   2.976  20.197  0.00  0.00    +0.000 A 
ATOM     11  C   UNL     1       1.348   3.318  19.139  0.00  0.00    +0.000 A 
ENDBRANCH   4   6
BRANCH   5  12
ATOM     12  C   UNL     1       3.231   6.404  18.217  0.00  0.00    +0.000 A 
ATOM     13  C   UNL     1       2.661   6.714  19.471  0.00  0.00    +0.000 A 
ATOM     14  N   UNL     1       2.153   7.950  19.510  0.00  0.00    +0.000 NA
ATOM     15  N   UNL     1       2.397   8.427  18.278  0.00  0.00    +0.000 N 
ATOM     16  C   UNL     1       3.082   7.555  17.479  0.00  0.00    +0.000 A 
BRANCH  15  17
ATOM     17  C   UNL     1       1.918   9.744  17.902  0.00  0.00    +0.000 C 
ATOM     18  C   UNL     1       0.527  10.027  18.441  0.00  0.00    +0.000 C 
ENDBRANCH  15  17
ENDBRANCH   5  12
BRANCH   1  19
ATOM     19  C   UNL     1       5.191   5.995  15.806  0.00  0.00    +0.000 C 
BRANCH  19  20
ATOM     20  C   UNL     1       6.719   6.010  15.644  0.00  0.00    +0.000 C 
BRANCH  20  21
ATOM     21  N   UNL     1       7.500   6.363  16.850  0.00  0.00    +0.000 NA
BRANCH  21  23
ATOM     22  C   UNL     1       7.955   8.712  17.689  0.00  0.00    +0.000 C 
ATOM     23  C   UNL     1       6.942   7.606  17.421  0.00  0.00    +0.000 C 
ENDBRANCH  21  23
BRANCH  21  24
ATOM     24  C   UNL     1       7.631   5.268  17.826  0.00  0.00    +0.000 C 
ATOM     25  C   UNL     1       7.139   5.560  19.240  0.00  0.00    +0.000 C 
ENDBRANCH  21  24
ENDBRANCH  20  21
ENDBRANCH  19  20
ENDBRANCH   1  19
TORSDOF 8
ENDMDL
MODEL 4
REMARK VINA RESULT:      -6.4      0.600      1.186
REMARK  Name = 
REMARK  11 active torsions:
REMARK  status: ('A' for Active; 'I' for Inactive)
REMARK    1  A    between atoms: C_1  and  C_2
REMARK    2  A    between atoms: C_2  and  N_3
REMARK    3  A    between atoms: N_3  and  C_4
REMARK    4  A    between atoms: N_3  and  C_6
REMARK    5  A    between atoms: C_4  and  C_5
REMARK    6  A    between atoms: C_6  and  C_7
REMARK    7  A    between atoms: C_7  and  N_8
REMARK    8  A    between atoms: C_11  and  C_12
REMARK    9  A    between atoms: C_18  and  C_19
REMARK   10  A    between atoms: N_22  and  C_23
REMARK   11  A    between atoms: C_23  and  C_24
REMARK                            x       y       z     vdW  Elec       q    Type
REMARK                         _______ _______ _______ _____ _____    ______ ____
ROOT
ATOM      1  N   UNL     1       3.529   4.178  17.064  0.00  0.00    +0.000 N 
ATOM      2  C   UNL     1       4.562   3.495  16.478  0.00  0.00    +0.000 A 
ATOM      3  N   UNL     1       5.699   4.131  16.598  0.00  0.00    +0.000 NA
ATOM      4  C   UNL     1       5.413   5.279  17.304  0.00  0.00    +0.000 A 
ATOM      5  C   UNL     1       4.050   5.355  17.570  0.00  0.00    +0.000 A 
ENDROOT
BRANCH   4   6
ATOM      6  C   UNL     1       6.473   6.190  17.716  0.00  0.00    +0.000 A 
ATOM      7  C   UNL     1       6.593   7.437  17.090  0.00  0.00    +0.000 A 
ATOM      8  C   UNL     1       7.576   8.343  17.495  0.00  0.00    +0.000 A 
ATOM      9  C   UNL     1       8.447   8.013  18.532  0.00  0.00    +0.000 A 
ATOM     10  C   UNL     1       8.367   6.760  19.131  0.00  0.00    +0.000 A 
ATOM     11  C   UNL     1       7.408   5.843  18.700  0.00  0.00    +0.000 A 
ENDBRANCH   4   6
BRANCH   5  12
ATOM     12  C   UNL     1       3.298   6.446  18.244  0.00  0.00    +0.000 A 
ATOM     13  C   UNL     1       2.753   6.482  19.546  0.00  0.00    +0.000 A 
ATOM     14  N   UNL     1       2.057   7.599  19.778  0.00  0.00    +0.000 NA
ATOM     15  N   UNL     1       2.156   8.276  18.621  0.00  0.00    +0.000 N 
ATOM     16  C   UNL     1       2.929   7.648  17.685  0.00  0.00    +0.000 A 
BRANCH  15  17
ATOM     17  C   UNL     1       1.454   9.534  18.454  0.00  0.00    +0.000 C 
ATOM     18  C   UNL     1       0.882  10.053  19.761  0.00  0.00    +0.000 C 
ENDBRANCH  15  17
ENDBRANCH   5  12
BRANCH   1  19
ATOM     19  C   UNL     1       2.124   3.789  17.068  0.00  0.00    +0.000 C 
BRANCH  19  20
ATOM     20  C   UNL     1       1.725   2.780  18.157  0.00  0.00    +0.000 C 
BRANCH  20  21
ATOM     21  N   UNL     1       2.240   3.050  19.517  0.00  0.00    +0.000 NA
BRANCH  21  23
ATOM     22  C   UNL     1       1.281   2.652  21.830  0.00  0.00    +0.000 C 
ATOM     23  C   UNL     1       1.089   3.216  20.428  0.00  0.00    +0.000 C 
ENDBRANCH  21  23
BRANCH  21  24
ATOM     24  C   UNL     1       3.236   2.075  19.991  0.00  0.00    +0.000 C 
ATOM     25  C   UNL     1       4.694   2.524  19.953  0.00  0.00    +0.000 C 
ENDBRANCH  21  24
ENDBRANCH  20  21
ENDBRANCH  19  20
ENDBRANCH   1  19
TORSDOF 8
ENDMDL
MODEL 5
REMARK VINA RESULT:      -6.4      1.181      1.874
REMARK  Name = 
REMARK  11 active torsions:
REMARK  status: ('A' for Active; 'I' for Inactive)
REMARK    1  A    between atoms: C_1  and  C_2
REMARK    2  A    between atoms: C_2  and  N_3
REMARK    3  A    between atoms: N_3  and  C_4
REMARK    4  A    between atoms: N_3  and  C_6
REMARK    5  A    between atoms: C_4  and  C_5
REMARK    6  A    between atoms: C_6  and  C_7
REMARK    7  A    between atoms: C_7  and  N_8
REMARK    8  A    between atoms: C_11  and  C_12
REMARK    9  A    between atoms: C_18  and  C_19
REMARK   10  A    between atoms: N_22  and  C_23
REMARK   11  A    between atoms: C_23  and  C_24
REMARK                            x       y       z     vdW  Elec       q    Type
REMARK                         _______ _______ _______ _____ _____    ______ ____
ROOT
ATOM      1  N   UNL     1       4.043   4.069  17.083  0.00  0.00    +0.000 N 
ATOM      2  C   UNL     1       5.171   3.510  16.543  0.00  0.00    +0.000 A 
ATOM      3  N   UNL     1       6.209   4.297  16.659  0.00  0.00    +0.000 NA
ATOM      4  C   UNL     1       5.755   5.422  17.313  0.00  0.00    +0.000 A 
ATOM      5  C   UNL     1       4.389   5.323  17.551  0.00  0.00    +0.000 A 
ENDROOT
BRANCH   4   6
ATOM      6  C   UNL     1       6.674   6.482  17.707  0.00  0.00    +0.000 A 
ATOM      7  C   UNL     1       7.603   6.245  18.729  0.00  0.00    +0.000 A 
ATOM      8  C   UNL     1       8.520   7.233  19.097  0.00  0.00    +0.000 A 
ATOM      9  C   UNL     1       8.520   8.465  18.446  0.00  0.00    +0.000 A 
ATOM     10  C   UNL     1       7.574   8.728  17.461  0.00  0.00    +0.000 A 
ATOM     11  C   UNL     1       6.635   7.754  17.120  0.00  0.00    +0.000 A 
ENDBRANCH   4   6
BRANCH   5  12
ATOM     12  C   UNL     1       3.482   6.328  18.166  0.00  0.00    +0.000 A 
ATOM     13  C   UNL     1       3.056   7.574  17.657  0.00  0.00    +0.000 A 
ATOM     14  N   UNL     1       2.311   8.256  18.533  0.00  0.00    +0.000 NA
ATOM     15  N   UNL     1       2.265   7.445  19.603  0.00  0.00    +0.000 N 
ATOM     16  C   UNL     1       2.913   6.256  19.417  0.00  0.00    +0.000 A 
BRANCH  15  17
ATOM     17  C   UNL     1       1.595   7.878  20.814  0.00  0.00    +0.000 C 
ATOM     18  C   UNL     1       0.876   9.204  20.632  0.00  0.00    +0.000 C 
ENDBRANCH  15  17
ENDBRANCH   5  12
BRANCH   1  19
ATOM     19  C   UNL     1       2.702   3.495  17.077  0.00  0.00    +0.000 C 
BRANCH  19  20
ATOM     20  C   UNL     1       2.577   2.112  17.737  0.00  0.00    +0.000 C 
BRANCH  20  21
ATOM     21  N   UNL     1       2.103   2.100  19.139  0.00  0.00    +0.000 NA
BRANCH  21  23
ATOM     22  C   UNL     1       4.507   1.935  19.928  0.00  0.00    +0.000 C 
ATOM     23  C   UNL     1       3.167   2.658  19.998  0.00  0.00    +0.000 C 
ENDBRANCH  21  23
BRANCH  21  24
ATOM     24  C   UNL     1       0.787   2.732  19.337  0.00  0.00    +0.000 C 
ATOM     25  C   UNL     1       0.734   3.883  20.336  0.00  0.00    +0.000 C 
ENDBRANCH  21  24
ENDBRANCH  20  21
ENDBRANCH  19  20
ENDBRANCH   1  19
TORSDOF 8
ENDMDL
MODEL 6
REMARK VINA RESULT:      -6.3      2.362      6.073
REMARK  Name = 
REMARK  11 active torsions:
REMARK  status: ('A' for Active; 'I' for Inactive)
REMARK    1  A    between atoms: C_1  and  C_2
REMARK    2  A    between atoms: C_2  and  N_3
REMARK    3  A    between atoms: N_3  and  C_4
REMARK    4  A    between atoms: N_3  and  C_6
REMARK    5  A    between atoms: C_4  and  C_5
REMARK    6  A    between atoms: C_6  and  C_7
REMARK    7  A    between atoms: C_7  and  N_8
REMARK    8  A    between atoms: C_11  and  C_12
REMARK    9  A    between atoms: C_18  and  C_19
REMARK   10  A    between atoms: N_22  and  C_23
REMARK   11  A    between atoms: C_23  and  C_24
REMARK                            x       y       z     vdW  Elec       q    Type
REMARK                         _______ _______ _______ _____ _____    ______ ____
ROOT
ATOM      1  N   UNL     1       5.386   5.361  16.743  0.00  0.00    +0.000 N 
ATOM      2  C   UNL     1       5.834   6.628  16.478  0.00  0.00    +0.000 A 
ATOM      3  N   UNL     1       5.033   7.541  16.964  0.00  0.00    +0.000 NA
ATOM      4  C   UNL     1       4.015   6.852  17.588  0.00  0.00    +0.000 A 
ATOM      5  C   UNL     1       4.190   5.483  17.425  0.00  0.00    +0.000 A 
ENDROOT
BRANCH   4   6
ATOM      6  C   UNL     1       2.982   7.556  18.337  0.00  0.00    +0.000 A 
ATOM      7  C   UNL     1       2.313   8.634  17.743  0.00  0.00    +0.000 A 
ATOM      8  C   UNL     1       1.292   9.299  18.427  0.00  0.00    +0.000 A 
ATOM      9  C   UNL     1       0.927   8.891  19.709  0.00  0.00    +0.000 A 
ATOM     10  C   UNL     1       1.614   7.851  20.326  0.00  0.00    +0.000 A 
ATOM     11  C   UNL     1       2.659   7.212  19.656  0.00  0.00    +0.000 A 
ENDBRANCH   4   6
BRANCH   5  12
ATOM     12  C   UNL     1       3.302   4.377  17.873  0.00  0.00    +0.000 A 
ATOM     13  C   UNL     1       2.193   3.802  17.215  0.00  0.00    +0.000 A 
ATOM     14  N   UNL     1       1.572   2.886  17.965  0.00  0.00    +0.000 NA
ATOM     15  N   UNL     1       2.284   2.880  19.104  0.00  0.00    +0.000 N 
ATOM     16  C   UNL     1       3.360   3.723  19.082  0.00  0.00    +0.000 A 
BRANCH  15  17
ATOM     17  C   UNL     1       1.867   2.048  20.216  0.00  0.00    +0.000 C 
ATOM     18  C   UNL     1       1.330   2.865  21.378  0.00  0.00    +0.000 C 
ENDBRANCH  15  17
ENDBRANCH   5  12
BRANCH   1  19
ATOM     19  C   UNL     1       6.000   4.114  16.302  0.00  0.00    +0.000 C 
BRANCH  19  20
ATOM     20  C   UNL     1       5.444   3.535  14.992  0.00  0.00    +0.000 C 
BRANCH  20  21
ATOM     21  N   UNL     1       5.907   4.183  13.744  0.00  0.00    +0.000 NA
BRANCH  21  23
ATOM     22  C   UNL     1       7.950   5.318  12.761  0.00  0.00    +0.000 C 
ATOM     23  C   UNL     1       7.231   4.788  13.995  0.00  0.00    +0.000 C 
ENDBRANCH  21  23
BRANCH  21  24
ATOM     24  C   UNL     1       5.869   3.309  12.560  0.00  0.00    +0.000 C 
ATOM     25  C   UNL     1       4.598   3.366  11.718  0.00  0.00    +0.000 C 
ENDBRANCH  21  24
ENDBRANCH  20  21
ENDBRANCH  19  20
ENDBRANCH   1  19
TORSDOF 8
ENDMDL
MODEL 7
REMARK VINA RESULT:      -6.3      2.414      6.049
REMARK  Name = 
REMARK  11 active torsions:
REMARK  status: ('A' for Active; 'I' for Inactive)
REMARK    1  A    between atoms: C_1  and  C_2
REMARK    2  A    between atoms: C_2  and  N_3
REMARK    3  A    between atoms: N_3  and  C_4
REMARK    4  A    between atoms: N_3  and  C_6
REMARK    5  A    between atoms: C_4  and  C_5
REMARK    6  A    between atoms: C_6  and  C_7
REMARK    7  A    between atoms: C_7  and  N_8
REMARK    8  A    between atoms: C_11  and  C_12
REMARK    9  A    between atoms: C_18  and  C_19
REMARK   10  A    between atoms: N_22  and  C_23
REMARK   11  A    between atoms: C_23  and  C_24
REMARK                            x       y       z     vdW  Elec       q    Type
REMARK                         _______ _______ _______ _____ _____    ______ ____
ROOT
ATOM      1  N   UNL     1       4.770   5.443  16.552  0.00  0.00    +0.000 N 
ATOM      2  C   UNL     1       5.214   6.700  16.233  0.00  0.00    +0.000 A 
ATOM      3  N   UNL     1       4.502   7.631  16.814  0.00  0.00    +0.000 NA
ATOM      4  C   UNL     1       3.553   6.966  17.560  0.00  0.00    +0.000 A 
ATOM      5  C   UNL     1       3.672   5.593  17.378  0.00  0.00    +0.000 A 
ENDROOT
BRANCH   4   6
ATOM      6  C   UNL     1       2.639   7.693  18.431  0.00  0.00    +0.000 A 
ATOM      7  C   UNL     1       2.418   7.235  19.736  0.00  0.00    +0.000 A 
ATOM      8  C   UNL     1       1.577   7.937  20.603  0.00  0.00    +0.000 A 
ATOM      9  C   UNL     1       0.952   9.107  20.175  0.00  0.00    +0.000 A 
ATOM     10  C   UNL     1       1.128   9.548  18.868  0.00  0.00    +0.000 A 
ATOM     11  C   UNL     1       1.939   8.825  17.992  0.00  0.00    +0.000 A 
ENDBRANCH   4   6
BRANCH   5  12
ATOM     12  C   UNL     1       2.818   4.509  17.933  0.00  0.00    +0.000 A 
ATOM     13  C   UNL     1       1.594   4.000  17.446  0.00  0.00    +0.000 A 
ATOM     14  N   UNL     1       1.061   3.084  18.261  0.00  0.00    +0.000 NA
ATOM     15  N   UNL     1       1.946   3.011  19.271  0.00  0.00    +0.000 N 
ATOM     16  C   UNL     1       3.040   3.812  19.098  0.00  0.00    +0.000 A 
BRANCH  15  17
ATOM     17  C   UNL     1       1.675   2.159  20.412  0.00  0.00    +0.000 C 
ATOM     18  C   UNL     1       1.921   2.868  21.733  0.00  0.00    +0.000 C 
ENDBRANCH  15  17
ENDBRANCH   5  12
BRANCH   1  19
ATOM     19  C   UNL     1       5.294   4.183  16.039  0.00  0.00    +0.000 C 
BRANCH  19  20
ATOM     20  C   UNL     1       5.179   3.994  14.518  0.00  0.00    +0.000 C 
BRANCH  20  21
ATOM     21  N   UNL     1       6.453   3.838  13.782  0.00  0.00    +0.000 NA
BRANCH  21  23
ATOM     22  C   UNL     1       5.735   2.356  11.854  0.00  0.00    +0.000 C 
ATOM     23  C   UNL     1       6.151   3.739  12.339  0.00  0.00    +0.000 C 
ENDBRANCH  21  23
BRANCH  21  24
ATOM     24  C   UNL     1       7.467   4.855  14.108  0.00  0.00    +0.000 C 
ATOM     25  C   UNL     1       8.143   5.539  12.924  0.00  0.00    +0.000 C 
ENDBRANCH  21  24
ENDBRANCH  20  21
ENDBRANCH  19  20
ENDBRANCH   1  19
TORSDOF 8
ENDMDL
MODEL 8
REMARK VINA RESULT:      -6.2      0.901      1.805
REMARK  Name = 
REMARK  11 active torsions:
REMARK  status: ('A' for Active; 'I' for Inactive)
REMARK    1  A    between atoms: C_1  and  C_2
REMARK    2  A    between atoms: C_2  and  N_3
REMARK    3  A    between atoms: N_3  and  C_4
REMARK    4  A    between atoms: N_3  and  C_6
REMARK    5  A    between atoms: C_4  and  C_5
REMARK    6  A    between atoms: C_6  and  C_7
REMARK    7  A    between atoms: C_7  and  N_8
REMARK    8  A    between atoms: C_11  and  C_12
REMARK    9  A    between atoms: C_18  and  C_19
REMARK   10  A    between atoms: N_22  and  C_23
REMARK   11  A    between atoms: C_23  and  C_24
REMARK                            x       y       z     vdW  Elec       q    Type
REMARK                         _______ _______ _______ _____ _____    ______ ____
ROOT
ATOM      1  N   UNL     1       4.111   4.037  17.020  0.00  0.00    +0.000 N 
ATOM      2  C   UNL     1       5.200   3.551  16.346  0.00  0.00    +0.000 A 
ATOM      3  N   UNL     1       6.236   4.342  16.458  0.00  0.00    +0.000 NA
ATOM      4  C   UNL     1       5.822   5.392  17.249  0.00  0.00    +0.000 A 
ATOM      5  C   UNL     1       4.480   5.247  17.578  0.00  0.00    +0.000 A 
ENDROOT
BRANCH   4   6
ATOM      6  C   UNL     1       6.757   6.426  17.673  0.00  0.00    +0.000 A 
ATOM      7  C   UNL     1       6.756   7.666  17.022  0.00  0.00    +0.000 A 
ATOM      8  C   UNL     1       7.616   8.686  17.436  0.00  0.00    +0.000 A 
ATOM      9  C   UNL     1       8.483   8.478  18.508  0.00  0.00    +0.000 A 
ATOM     10  C   UNL     1       8.525   7.237  19.134  0.00  0.00    +0.000 A 
ATOM     11  C   UNL     1       7.691   6.207  18.695  0.00  0.00    +0.000 A 
ENDBRANCH   4   6
BRANCH   5  12
ATOM     12  C   UNL     1       3.612   6.173  18.353  0.00  0.00    +0.000 A 
ATOM     13  C   UNL     1       3.054   6.006  19.640  0.00  0.00    +0.000 A 
ATOM     14  N   UNL     1       2.243   7.012  19.981  0.00  0.00    +0.000 NA
ATOM     15  N   UNL     1       2.282   7.821  18.908  0.00  0.00    +0.000 N 
ATOM     16  C   UNL     1       3.124   7.385  17.924  0.00  0.00    +0.000 A 
BRANCH  15  17
ATOM     17  C   UNL     1       1.454   9.011  18.867  0.00  0.00    +0.000 C 
ATOM     18  C   UNL     1       2.007  10.066  17.925  0.00  0.00    +0.000 C 
ENDBRANCH  15  17
ENDBRANCH   5  12
BRANCH   1  19
ATOM     19  C   UNL     1       2.780   3.442  17.060  0.00  0.00    +0.000 C 
BRANCH  19  20
ATOM     20  C   UNL     1       2.694   2.071  17.749  0.00  0.00    +0.000 C 
BRANCH  20  21
ATOM     21  N   UNL     1       2.611   2.088  19.226  0.00  0.00    +0.000 NA
BRANCH  21  23
ATOM     22  C   UNL     1       4.737   1.464  20.459  0.00  0.00    +0.000 C 
ATOM     23  C   UNL     1       3.912   2.538  19.763  0.00  0.00    +0.000 C 
ENDBRANCH  21  23
BRANCH  21  24
ATOM     24  C   UNL     1       1.458   2.834  19.758  0.00  0.00    +0.000 C 
ATOM     25  C   UNL     1       1.293   2.832  21.275  0.00  0.00    +0.000 C 
ENDBRANCH  21  24
ENDBRANCH  20  21
ENDBRANCH  19  20
ENDBRANCH   1  19
TORSDOF 8
ENDMDL
MODEL 9
REMARK VINA RESULT:      -6.1      0.873      1.553
REMARK  Name = 
REMARK  11 active torsions:
REMARK  status: ('A' for Active; 'I' for Inactive)
REMARK    1  A    between atoms: C_1  and  C_2
REMARK    2  A    between atoms: C_2  and  N_3
REMARK    3  A    between atoms: N_3  and  C_4
REMARK    4  A    between atoms: N_3  and  C_6
REMARK    5  A    between atoms: C_4  and  C_5
REMARK    6  A    between atoms: C_6  and  C_7
REMARK    7  A    between atoms: C_7  and  N_8
REMARK    8  A    between atoms: C_11  and  C_12
REMARK    9  A    between atoms: C_18  and  C_19
REMARK   10  A    between atoms: N_22  and  C_23
REMARK   11  A    between atoms: C_23  and  C_24
REMARK                            x       y       z     vdW  Elec       q    Type
REMARK                         _______ _______ _______ _____ _____    ______ ____
ROOT
ATOM      1  N   UNL     1       3.425   4.196  17.150  0.00  0.00    +0.000 N 
ATOM      2  C   UNL     1       4.458   3.485  16.598  0.00  0.00    +0.000 A 
ATOM      3  N   UNL     1       5.597   4.122  16.697  0.00  0.00    +0.000 NA
ATOM      4  C   UNL     1       5.310   5.300  17.353  0.00  0.00    +0.000 A 
ATOM      5  C   UNL     1       3.947   5.390  17.609  0.00  0.00    +0.000 A 
ENDROOT
BRANCH   4   6
ATOM      6  C   UNL     1       6.371   6.225  17.732  0.00  0.00    +0.000 A 
ATOM      7  C   UNL     1       6.484   7.454  17.070  0.00  0.00    +0.000 A 
ATOM      8  C   UNL     1       7.468   8.373  17.442  0.00  0.00    +0.000 A 
ATOM      9  C   UNL     1       8.347   8.074  18.482  0.00  0.00    +0.000 A 
ATOM     10  C   UNL     1       8.273   6.839  19.117  0.00  0.00    +0.000 A 
ATOM     11  C   UNL     1       7.313   5.907  18.719  0.00  0.00    +0.000 A 
ENDBRANCH   4   6
BRANCH   5  12
ATOM     12  C   UNL     1       3.195   6.512  18.232  0.00  0.00    +0.000 A 
ATOM     13  C   UNL     1       2.946   7.807  17.729  0.00  0.00    +0.000 A 
ATOM     14  N   UNL     1       2.311   8.585  18.611  0.00  0.00    +0.000 NA
ATOM     15  N   UNL     1       2.158   7.785  19.680  0.00  0.00    +0.000 N 
ATOM     16  C   UNL     1       2.630   6.517  19.486  0.00  0.00    +0.000 A 
BRANCH  15  17
ATOM     17  C   UNL     1       1.562   8.305  20.896  0.00  0.00    +0.000 C 
ATOM     18  C   UNL     1       0.485   9.338  20.615  0.00  0.00    +0.000 C 
ENDBRANCH  15  17
ENDBRANCH   5  12
BRANCH   1  19
ATOM     19  C   UNL     1       2.018   3.811  17.164  0.00  0.00    +0.000 C 
BRANCH  19  20
ATOM     20  C   UNL     1       1.594   2.912  18.336  0.00  0.00    +0.000 C 
BRANCH  20  21
ATOM     21  N   UNL     1       2.239   3.191  19.639  0.00  0.00    +0.000 NA
BRANCH  21  23
ATOM     22  C   UNL     1       1.531   2.439  21.954  0.00  0.00    +0.000 C 
ATOM     23  C   UNL     1       1.195   3.209  20.683  0.00  0.00    +0.000 C 
ENDBRANCH  21  23
BRANCH  21  24
ATOM     24  C   UNL     1       3.377   2.310  19.951  0.00  0.00    +0.000 C 
ATOM     25  C   UNL     1       3.625   1.157  18.983  0.00  0.00    +0.000 C 
ENDBRANCH  21  24
ENDBRANCH  20  21
ENDBRANCH  19  20
ENDBRANCH   1  19
TORSDOF 8
ENDMDL
