MODEL 1
REMARK VINA RESULT:      -9.2      0.000      0.000
REMARK  Name = 
REMARK  9 active torsions:
REMARK  status: ('A' for Active; 'I' for Inactive)
REMARK    1  A    between atoms: C_1  and  C_2
REMARK    2  A    between atoms: C_4  and  N_5
REMARK    3  A    between atoms: N_5  and  C_6
REMARK    4  A    between atoms: N_9  and  C_10
REMARK    5  A    between atoms: C_14  and  O_15
REMARK    6  A    between atoms: O_15  and  C_16
REMARK    7  A    between atoms: C_16  and  C_17
REMARK    8  A    between atoms: C_17  and  N_18
REMARK    9  A    between atoms: C_32  and  O_33
REMARK                            x       y       z     vdW  Elec       q    Type
REMARK                         _______ _______ _______ _____ _____    ______ ____
ROOT
ATOM      1  C   UNL     1       2.586   4.425  20.628  0.00  0.00    +0.000 A 
ATOM      2  N   UNL     1       3.772   4.573  20.024  0.00  0.00    +0.000 NA
ATOM      3  C   UNL     1       4.353   3.512  19.444  0.00  0.00    +0.000 A 
ATOM      4  N   UNL     1       5.599   3.689  18.845  0.00  0.00    +0.000 N 
ATOM      5  N   UNL     1       3.825   2.282  19.453  0.00  0.00    +0.000 NA
ATOM      6  C   UNL     1       2.624   2.162  20.047  0.00  0.00    +0.000 A 
ATOM      7  C   UNL     1       1.960   3.202  20.635  0.00  0.00    +0.000 A 
ATOM      8  F   UNL     1       0.753   3.033  21.203  0.00  0.00    +0.000 F 
ATOM      9  H   UNL     1       5.867   2.834  18.378  0.00  0.00    +0.000 HD
ENDROOT
BRANCH   4  10
ATOM     10  C   UNL     1       6.064   4.857  18.203  0.00  0.00    +0.000 A 
ATOM     11  C   UNL     1       5.506   5.229  16.975  0.00  0.00    +0.000 A 
ATOM     12  C   UNL     1       5.930   6.393  16.327  0.00  0.00    +0.000 A 
ATOM     13  C   UNL     1       6.914   7.197  16.906  0.00  0.00    +0.000 A 
ATOM     14  C   UNL     1       7.495   6.836  18.119  0.00  0.00    +0.000 A 
ATOM     15  C   UNL     1       7.046   5.684  18.774  0.00  0.00    +0.000 A 
BRANCH  14  16
ATOM     16  O   UNL     1       8.470   7.683  18.585  0.00  0.00    +0.000 OA
BRANCH  16  17
ATOM     17  C   UNL     1       8.338   9.056  18.185  0.00  0.00    +0.000 C 
BRANCH  17  18
ATOM     18  C   UNL     1       9.179   9.947  19.130  0.00  0.00    +0.000 C 
BRANCH  18  19
ATOM     19  N   UNL     1       9.335  11.352  18.685  0.00  0.00    +0.000 NA
ATOM     20  C   UNL     1      10.630  11.588  17.997  0.00  0.00    +0.000 C 
ATOM     21  C   UNL     1      11.887  11.557  18.896  0.00  0.00    +0.000 C 
ATOM     22  O   UNL     1      11.742  12.483  19.962  0.00  0.00    +0.000 OA
ATOM     23  C   UNL     1      10.549  12.186  20.673  0.00  0.00    +0.000 C 
ATOM     24  C   UNL     1       9.289  12.298  19.813  0.00  0.00    +0.000 C 
ENDBRANCH  18  19
ENDBRANCH  17  18
ENDBRANCH  16  17
ENDBRANCH  14  16
ENDBRANCH   4  10
BRANCH   1  25
ATOM     25  N   UNL     1       1.942   5.556  21.181  0.00  0.00    +0.000 N 
ATOM     26  H   UNL     1       2.066   5.610  22.189  0.00  0.00    +0.000 HD
BRANCH  25  30
ATOM     27  C   UNL     1       2.865   8.580  17.459  0.00  0.00    +0.000 C 
ATOM     28  C   UNL     1       2.024   8.304  18.684  0.00  0.00    +0.000 A 
ATOM     29  C   UNL     1       2.189   7.068  19.326  0.00  0.00    +0.000 A 
ATOM     30  C   UNL     1       1.662   6.813  20.603  0.00  0.00    +0.000 A 
ATOM     31  C   UNL     1       1.041   7.871  21.278  0.00  0.00    +0.000 A 
ATOM     32  C   UNL     1       0.865   9.107  20.665  0.00  0.00    +0.000 A 
ATOM     33 CL   UNL     1       0.278  10.432  21.609  0.00  0.00    +0.000 Cl
ATOM     34  C   UNL     1       1.303   9.307  19.353  0.00  0.00    +0.000 A 
BRANCH  34  35
ATOM     35  O   UNL     1       1.216  10.554  18.784  0.00  0.00    +0.000 OA
ATOM     36  H   UNL     1       0.316  10.641  18.412  0.00  0.00    +0.000 HD
ENDBRANCH  34  35
ENDBRANCH  25  30
ENDBRANCH   1  25
TORSDOF 8
ENDMDL
MODEL 2
REMARK VINA RESULT:      -8.9      1.039      1.669
REMARK  Name = 
REMARK  9 active torsions:
REMARK  status: ('A' for Active; 'I' for Inactive)
REMARK    1  A    between atoms: C_1  and  C_2
REMARK    2  A    between atoms: C_4  and  N_5
REMARK    3  A    between atoms: N_5  and  C_6
REMARK    4  A    between atoms: N_9  and  C_10
REMARK    5  A    between atoms: C_14  and  O_15
REMARK    6  A    between atoms: O_15  and  C_16
REMARK    7  A    between atoms: C_16  and  C_17
REMARK    8  A    between atoms: C_17  and  N_18
REMARK    9  A    between atoms: C_32  and  O_33
REMARK                            x       y       z     vdW  Elec       q    Type
REMARK                         _______ _______ _______ _____ _____    ______ ____
ROOT
ATOM      1  C   UNL     1       2.577   4.330  20.521  0.00  0.00    +0.000 A 
ATOM      2  N   UNL     1       3.757   4.508  19.914  0.00  0.00    +0.000 NA
ATOM      3  C   UNL     1       4.336   3.474  19.286  0.00  0.00    +0.000 A 
ATOM      4  N   UNL     1       5.576   3.680  18.683  0.00  0.00    +0.000 N 
ATOM      5  N   UNL     1       3.814   2.242  19.250  0.00  0.00    +0.000 NA
ATOM      6  C   UNL     1       2.618   2.093  19.850  0.00  0.00    +0.000 A 
ATOM      7  C   UNL     1       1.956   3.106  20.485  0.00  0.00    +0.000 A 
ATOM      8  F   UNL     1       0.754   2.909  21.057  0.00  0.00    +0.000 F 
ATOM      9  H   UNL     1       5.844   2.844  18.180  0.00  0.00    +0.000 HD
ENDROOT
BRANCH   4  10
ATOM     10  C   UNL     1       6.032   4.874  18.085  0.00  0.00    +0.000 A 
ATOM     11  C   UNL     1       5.490   5.272  16.857  0.00  0.00    +0.000 A 
ATOM     12  C   UNL     1       5.903   6.462  16.253  0.00  0.00    +0.000 A 
ATOM     13  C   UNL     1       6.862   7.266  16.873  0.00  0.00    +0.000 A 
ATOM     14  C   UNL     1       7.426   6.881  18.087  0.00  0.00    +0.000 A 
ATOM     15  C   UNL     1       6.987   5.701  18.699  0.00  0.00    +0.000 A 
BRANCH  14  16
ATOM     16  O   UNL     1       8.377   7.731  18.596  0.00  0.00    +0.000 OA
BRANCH  16  17
ATOM     17  C   UNL     1       8.382   9.055  18.039  0.00  0.00    +0.000 C 
BRANCH  17  18
ATOM     18  C   UNL     1       9.146  10.006  18.991  0.00  0.00    +0.000 C 
BRANCH  18  19
ATOM     19  N   UNL     1       9.849  11.125  18.319  0.00  0.00    +0.000 NA
ATOM     20  C   UNL     1      11.175  11.407  18.925  0.00  0.00    +0.000 C 
ATOM     21  C   UNL     1      11.150  12.047  20.332  0.00  0.00    +0.000 C 
ATOM     22  O   UNL     1      10.377  13.237  20.309  0.00  0.00    +0.000 OA
ATOM     23  C   UNL     1       9.079  12.935  19.819  0.00  0.00    +0.000 C 
ATOM     24  C   UNL     1       9.085  12.382  18.393  0.00  0.00    +0.000 C 
ENDBRANCH  18  19
ENDBRANCH  17  18
ENDBRANCH  16  17
ENDBRANCH  14  16
ENDBRANCH   4  10
BRANCH   1  25
ATOM     25  N   UNL     1       1.934   5.436  21.126  0.00  0.00    +0.000 N 
ATOM     26  H   UNL     1       1.956   5.381  22.141  0.00  0.00    +0.000 HD
BRANCH  25  30
ATOM     27  C   UNL     1      -0.327   9.711  21.806  0.00  0.00    +0.000 C 
ATOM     28  C   UNL     1       0.736   8.951  21.047  0.00  0.00    +0.000 A 
ATOM     29  C   UNL     1       1.009   7.634  21.445  0.00  0.00    +0.000 A 
ATOM     30  C   UNL     1       1.776   6.758  20.659  0.00  0.00    +0.000 A 
ATOM     31  C   UNL     1       2.187   7.204  19.396  0.00  0.00    +0.000 A 
ATOM     32  C   UNL     1       1.929   8.504  18.976  0.00  0.00    +0.000 A 
ATOM     33 CL   UNL     1       2.279   8.938  17.339  0.00  0.00    +0.000 Cl
ATOM     34  C   UNL     1       1.256   9.392  19.819  0.00  0.00    +0.000 A 
BRANCH  34  35
ATOM     35  O   UNL     1       0.918  10.645  19.366  0.00  0.00    +0.000 OA
ATOM     36  H   UNL     1       0.244  11.002  19.977  0.00  0.00    +0.000 HD
ENDBRANCH  34  35
ENDBRANCH  25  30
ENDBRANCH   1  25
TORSDOF 8
ENDMDL
MODEL 3
REMARK VINA RESULT:      -8.7      4.062      6.499
REMARK  Name = 
REMARK  9 active torsions:
REMARK  status: ('A' for Active; 'I' for Inactive)
REMARK    1  A    between atoms: C_1  and  C_2
REMARK    2  A    between atoms: C_4  and  N_5
REMARK    3  A    between atoms: N_5  and  C_6
REMARK    4  A    between atoms: N_9  and  C_10
REMARK    5  A    between atoms: C_14  and  O_15
REMARK    6  A    between atoms: O_15  and  C_16
REMARK    7  A    between atoms: C_16  and  C_17
REMARK    8  A    between atoms: C_17  and  N_18
REMARK    9  A    between atoms: C_32  and  O_33
REMARK                            x       y       z     vdW  Elec       q    Type
REMARK                         _______ _______ _______ _____ _____    ______ ____
ROOT
ATOM      1  C   UNL     1       0.278   9.880  19.917  0.00  0.00    +0.000 A 
ATOM      2  N   UNL     1       0.975   8.737  19.963  0.00  0.00    +0.000 NA
ATOM      3  C   UNL     1       1.368   8.252  21.150  0.00  0.00    +0.000 A 
ATOM      4  N   UNL     1       2.113   7.075  21.167  0.00  0.00    +0.000 N 
ATOM      5  N   UNL     1       1.127   8.864  22.316  0.00  0.00    +0.000 NA
ATOM      6  C   UNL     1       0.408  10.000  22.247  0.00  0.00    +0.000 A 
ATOM      7  C   UNL     1      -0.048  10.538  21.077  0.00  0.00    +0.000 A 
ATOM      8  F   UNL     1      -0.777  11.669  21.062  0.00  0.00    +0.000 F 
ATOM      9  H   UNL     1       2.260   6.787  22.125  0.00  0.00    +0.000 HD
ENDROOT
BRANCH   4  10
ATOM     10  C   UNL     1       2.003   5.997  20.262  0.00  0.00    +0.000 A 
ATOM     11  C   UNL     1       1.133   4.942  20.560  0.00  0.00    +0.000 A 
ATOM     12  C   UNL     1       0.984   3.874  19.672  0.00  0.00    +0.000 A 
ATOM     13  C   UNL     1       1.704   3.853  18.475  0.00  0.00    +0.000 A 
ATOM     14  C   UNL     1       2.587   4.884  18.167  0.00  0.00    +0.000 A 
ATOM     15  C   UNL     1       2.710   5.963  19.049  0.00  0.00    +0.000 A 
BRANCH  14  16
ATOM     16  O   UNL     1       3.263   4.752  16.978  0.00  0.00    +0.000 OA
BRANCH  16  17
ATOM     17  C   UNL     1       4.272   3.729  16.954  0.00  0.00    +0.000 C 
BRANCH  17  18
ATOM     18  C   UNL     1       5.447   4.150  17.870  0.00  0.00    +0.000 C 
BRANCH  18  19
ATOM     19  N   UNL     1       6.709   4.460  17.158  0.00  0.00    +0.000 NA
ATOM     20  C   UNL     1       7.838   4.714  18.090  0.00  0.00    +0.000 C 
ATOM     21  C   UNL     1       7.769   6.035  18.889  0.00  0.00    +0.000 C 
ATOM     22  O   UNL     1       7.634   7.133  18.000  0.00  0.00    +0.000 OA
ATOM     23  C   UNL     1       6.493   6.925  17.180  0.00  0.00    +0.000 C 
ATOM     24  C   UNL     1       6.589   5.665  16.318  0.00  0.00    +0.000 C 
ENDBRANCH  18  19
ENDBRANCH  17  18
ENDBRANCH  16  17
ENDBRANCH  14  16
ENDBRANCH   4  10
BRANCH   1  25
ATOM     25  N   UNL     1      -0.193  10.356  18.671  0.00  0.00    +0.000 N 
ATOM     26  H   UNL     1       0.463  10.164  17.917  0.00  0.00    +0.000 HD
BRANCH  25  30
ATOM     27  C   UNL     1      -3.206   9.999  14.845  0.00  0.00    +0.000 C 
ATOM     28  C   UNL     1      -3.074  10.251  16.329  0.00  0.00    +0.000 A 
ATOM     29  C   UNL     1      -1.810  10.076  16.912  0.00  0.00    +0.000 A 
ATOM     30  C   UNL     1      -1.515  10.529  18.208  0.00  0.00    +0.000 A 
ATOM     31  C   UNL     1      -2.498  11.264  18.884  0.00  0.00    +0.000 A 
ATOM     32  C   UNL     1      -3.758  11.454  18.328  0.00  0.00    +0.000 A 
ATOM     33 CL   UNL     1      -4.861  12.533  19.109  0.00  0.00    +0.000 Cl
ATOM     34  C   UNL     1      -4.065  10.902  17.082  0.00  0.00    +0.000 A 
BRANCH  34  35
ATOM     35  O   UNL     1      -5.276  11.171  16.492  0.00  0.00    +0.000 OA
ATOM     36  H   UNL     1      -5.969  10.788  17.065  0.00  0.00    +0.000 HD
ENDBRANCH  34  35
ENDBRANCH  25  30
ENDBRANCH   1  25
TORSDOF 8
ENDMDL
MODEL 4
REMARK VINA RESULT:      -8.5      4.294      7.146
REMARK  Name = 
REMARK  9 active torsions:
REMARK  status: ('A' for Active; 'I' for Inactive)
REMARK    1  A    between atoms: C_1  and  C_2
REMARK    2  A    between atoms: C_4  and  N_5
REMARK    3  A    between atoms: N_5  and  C_6
REMARK    4  A    between atoms: N_9  and  C_10
REMARK    5  A    between atoms: C_14  and  O_15
REMARK    6  A    between atoms: O_15  and  C_16
REMARK    7  A    between atoms: C_16  and  C_17
REMARK    8  A    between atoms: C_17  and  N_18
REMARK    9  A    between atoms: C_32  and  O_33
REMARK                            x       y       z     vdW  Elec       q    Type
REMARK                         _______ _______ _______ _____ _____    ______ ____
ROOT
ATOM      1  C   UNL     1      -0.679  11.163  21.183  0.00  0.00    +0.000 A 
ATOM      2  N   UNL     1       0.266  10.253  20.912  0.00  0.00    +0.000 NA
ATOM      3  C   UNL     1       0.617   9.367  21.857  0.00  0.00    +0.000 A 
ATOM      4  N   UNL     1       1.620   8.447  21.557  0.00  0.00    +0.000 N 
ATOM      5  N   UNL     1       0.093   9.351  23.089  0.00  0.00    +0.000 NA
ATOM      6  C   UNL     1      -0.869  10.262  23.330  0.00  0.00    +0.000 A 
ATOM      7  C   UNL     1      -1.296  11.176  22.409  0.00  0.00    +0.000 A 
ATOM      8  F   UNL     1      -2.272  12.057  22.695  0.00  0.00    +0.000 F 
ATOM      9  H   UNL     1       1.714   7.796  22.325  0.00  0.00    +0.000 HD
ENDROOT
BRANCH   4  10
ATOM     10  C   UNL     1       1.889   7.879  20.294  0.00  0.00    +0.000 A 
ATOM     11  C   UNL     1       1.790   8.680  19.150  0.00  0.00    +0.000 A 
ATOM     12  C   UNL     1       2.074   8.151  17.888  0.00  0.00    +0.000 A 
ATOM     13  C   UNL     1       2.462   6.816  17.759  0.00  0.00    +0.000 A 
ATOM     14  C   UNL     1       2.550   5.997  18.882  0.00  0.00    +0.000 A 
ATOM     15  C   UNL     1       2.291   6.541  20.145  0.00  0.00    +0.000 A 
BRANCH  14  16
ATOM     16  O   UNL     1       2.915   4.695  18.641  0.00  0.00    +0.000 OA
BRANCH  16  17
ATOM     17  C   UNL     1       4.000   4.201  19.441  0.00  0.00    +0.000 C 
BRANCH  17  18
ATOM     18  C   UNL     1       5.230   5.123  19.260  0.00  0.00    +0.000 C 
BRANCH  18  19
ATOM     19  N   UNL     1       6.322   4.548  18.439  0.00  0.00    +0.000 NA
ATOM     20  C   UNL     1       7.565   5.358  18.502  0.00  0.00    +0.000 C 
ATOM     21  C   UNL     1       7.518   6.725  17.782  0.00  0.00    +0.000 C 
ATOM     22  O   UNL     1       7.140   6.544  16.426  0.00  0.00    +0.000 OA
ATOM     23  C   UNL     1       5.899   5.854  16.381  0.00  0.00    +0.000 C 
ATOM     24  C   UNL     1       5.958   4.463  17.014  0.00  0.00    +0.000 C 
ENDBRANCH  18  19
ENDBRANCH  17  18
ENDBRANCH  16  17
ENDBRANCH  14  16
ENDBRANCH   4  10
BRANCH   1  25
ATOM     25  N   UNL     1      -1.096  12.053  20.166  0.00  0.00    +0.000 N 
ATOM     26  H   UNL     1      -0.346  12.673  19.870  0.00  0.00    +0.000 HD
BRANCH  25  30
ATOM     27  C   UNL     1      -5.890  12.003  19.235  0.00  0.00    +0.000 C 
ATOM     28  C   UNL     1      -4.491  11.978  18.663  0.00  0.00    +0.000 A 
ATOM     29  C   UNL     1      -3.419  12.159  19.548  0.00  0.00    +0.000 A 
ATOM     30  C   UNL     1      -2.090  11.896  19.176  0.00  0.00    +0.000 A 
ATOM     31  C   UNL     1      -1.863  11.342  17.910  0.00  0.00    +0.000 A 
ATOM     32  C   UNL     1      -2.908  11.151  17.013  0.00  0.00    +0.000 A 
ATOM     33 CL   UNL     1      -2.604  10.281  15.550  0.00  0.00    +0.000 Cl
ATOM     34  C   UNL     1      -4.209  11.519  17.366  0.00  0.00    +0.000 A 
BRANCH  34  35
ATOM     35  O   UNL     1      -5.254  11.241  16.517  0.00  0.00    +0.000 OA
ATOM     36  H   UNL     1      -4.949  11.433  15.609  0.00  0.00    +0.000 HD
ENDBRANCH  34  35
ENDBRANCH  25  30
ENDBRANCH   1  25
TORSDOF 8
ENDMDL
MODEL 5
REMARK VINA RESULT:      -8.5      1.064      1.130
REMARK  Name = 
REMARK  9 active torsions:
REMARK  status: ('A' for Active; 'I' for Inactive)
REMARK    1  A    between atoms: C_1  and  C_2
REMARK    2  A    between atoms: C_4  and  N_5
REMARK    3  A    between atoms: N_5  and  C_6
REMARK    4  A    between atoms: N_9  and  C_10
REMARK    5  A    between atoms: C_14  and  O_15
REMARK    6  A    between atoms: O_15  and  C_16
REMARK    7  A    between atoms: C_16  and  C_17
REMARK    8  A    between atoms: C_17  and  N_18
REMARK    9  A    between atoms: C_32  and  O_33
REMARK                            x       y       z     vdW  Elec       q    Type
REMARK                         _______ _______ _______ _____ _____    ______ ____
ROOT
ATOM      1  C   UNL     1       2.468   4.895  20.071  0.00  0.00    +0.000 A 
ATOM      2  N   UNL     1       3.600   4.673  19.391  0.00  0.00    +0.000 NA
ATOM      3  C   UNL     1       3.703   3.580  18.622  0.00  0.00    +0.000 A 
ATOM      4  N   UNL     1       4.901   3.360  17.945  0.00  0.00    +0.000 N 
ATOM      5  N   UNL     1       2.736   2.661  18.508  0.00  0.00    +0.000 NA
ATOM      6  C   UNL     1       1.600   2.915  19.184  0.00  0.00    +0.000 A 
ATOM      7  C   UNL     1       1.414   4.021  19.965  0.00  0.00    +0.000 A 
ATOM      8  F   UNL     1       0.253   4.237  20.610  0.00  0.00    +0.000 F 
ATOM      9  H   UNL     1       4.800   2.554  17.343  0.00  0.00    +0.000 HD
ENDROOT
BRANCH   4  10
ATOM     10  C   UNL     1       5.769   4.348  17.431  0.00  0.00    +0.000 A 
ATOM     11  C   UNL     1       5.957   4.437  16.047  0.00  0.00    +0.000 A 
ATOM     12  C   UNL     1       6.791   5.420  15.507  0.00  0.00    +0.000 A 
ATOM     13  C   UNL     1       7.443   6.324  16.349  0.00  0.00    +0.000 A 
ATOM     14  C   UNL     1       7.282   6.243  17.730  0.00  0.00    +0.000 A 
ATOM     15  C   UNL     1       6.425   5.273  18.260  0.00  0.00    +0.000 A 
BRANCH  14  16
ATOM     16  O   UNL     1       7.988   7.163  18.465  0.00  0.00    +0.000 OA
BRANCH  16  17
ATOM     17  C   UNL     1       7.970   8.505  17.953  0.00  0.00    +0.000 C 
BRANCH  17  18
ATOM     18  C   UNL     1       9.089   9.328  18.638  0.00  0.00    +0.000 C 
BRANCH  18  19
ATOM     19  N   UNL     1       8.698  10.703  19.027  0.00  0.00    +0.000 NA
ATOM     20  C   UNL     1       9.019  11.703  17.976  0.00  0.00    +0.000 C 
ATOM     21  C   UNL     1      10.520  12.007  17.771  0.00  0.00    +0.000 C 
ATOM     22  O   UNL     1      11.105  12.409  18.999  0.00  0.00    +0.000 OA
ATOM     23  C   UNL     1      10.876  11.400  19.972  0.00  0.00    +0.000 C 
ATOM     24  C   UNL     1       9.393  11.151  20.247  0.00  0.00    +0.000 C 
ENDBRANCH  18  19
ENDBRANCH  17  18
ENDBRANCH  16  17
ENDBRANCH  14  16
ENDBRANCH   4  10
BRANCH   1  25
ATOM     25  N   UNL     1       2.335   6.081  20.830  0.00  0.00    +0.000 N 
ATOM     26  H   UNL     1       3.128   6.229  21.450  0.00  0.00    +0.000 HD
BRANCH  25  30
ATOM     27  C   UNL     1       1.989   9.846  17.738  0.00  0.00    +0.000 C 
ATOM     28  C   UNL     1       1.389   9.125  18.923  0.00  0.00    +0.000 A 
ATOM     29  C   UNL     1       1.958   7.900  19.300  0.00  0.00    +0.000 A 
ATOM     30  C   UNL     1       1.657   7.281  20.525  0.00  0.00    +0.000 A 
ATOM     31  C   UNL     1       0.838   7.975  21.424  0.00  0.00    +0.000 A 
ATOM     32  C   UNL     1       0.262   9.193  21.077  0.00  0.00    +0.000 A 
ATOM     33 CL   UNL     1      -0.572  10.099  22.290  0.00  0.00    +0.000 Cl
ATOM     34  C   UNL     1       0.490   9.739  19.811  0.00  0.00    +0.000 A 
BRANCH  34  35
ATOM     35  O   UNL     1      -0.001  10.985  19.504  0.00  0.00    +0.000 OA
ATOM     36  H   UNL     1       0.327  11.602  20.187  0.00  0.00    +0.000 HD
ENDBRANCH  34  35
ENDBRANCH  25  30
ENDBRANCH   1  25
TORSDOF 8
ENDMDL
MODEL 6
REMARK VINA RESULT:      -8.4      4.617      7.264
REMARK  Name = 
REMARK  9 active torsions:
REMARK  status: ('A' for Active; 'I' for Inactive)
REMARK    1  A    between atoms: C_1  and  C_2
REMARK    2  A    between atoms: C_4  and  N_5
REMARK    3  A    between atoms: N_5  and  C_6
REMARK    4  A    between atoms: N_9  and  C_10
REMARK    5  A    between atoms: C_14  and  O_15
REMARK    6  A    between atoms: O_15  and  C_16
REMARK    7  A    between atoms: C_16  and  C_17
REMARK    8  A    between atoms: C_17  and  N_18
REMARK    9  A    between atoms: C_32  and  O_33
REMARK                            x       y       z     vdW  Elec       q    Type
REMARK                         _______ _______ _______ _____ _____    ______ ____
ROOT
ATOM      1  C   UNL     1      -0.688  11.154  21.110  0.00  0.00    +0.000 A 
ATOM      2  N   UNL     1       0.256  10.235  20.867  0.00  0.00    +0.000 NA
ATOM      3  C   UNL     1       0.672   9.439  21.863  0.00  0.00    +0.000 A 
ATOM      4  N   UNL     1       1.672   8.509  21.589  0.00  0.00    +0.000 N 
ATOM      5  N   UNL     1       0.215   9.524  23.119  0.00  0.00    +0.000 NA
ATOM      6  C   UNL     1      -0.747  10.441  23.334  0.00  0.00    +0.000 A 
ATOM      7  C   UNL     1      -1.238  11.267  22.362  0.00  0.00    +0.000 A 
ATOM      8  F   UNL     1      -2.212  12.158  22.626  0.00  0.00    +0.000 F 
ATOM      9  H   UNL     1       1.818   7.928  22.403  0.00  0.00    +0.000 HD
ENDROOT
BRANCH   4  10
ATOM     10  C   UNL     1       1.882   7.836  20.366  0.00  0.00    +0.000 A 
ATOM     11  C   UNL     1       1.881   8.570  19.174  0.00  0.00    +0.000 A 
ATOM     12  C   UNL     1       2.110   7.936  17.951  0.00  0.00    +0.000 A 
ATOM     13  C   UNL     1       2.344   6.559  17.909  0.00  0.00    +0.000 A 
ATOM     14  C   UNL     1       2.333   5.807  19.081  0.00  0.00    +0.000 A 
ATOM     15  C   UNL     1       2.130   6.455  20.304  0.00  0.00    +0.000 A 
BRANCH  14  16
ATOM     16  O   UNL     1       2.548   4.460  18.924  0.00  0.00    +0.000 OA
BRANCH  16  17
ATOM     17  C   UNL     1       3.819   3.981  19.392  0.00  0.00    +0.000 C 
BRANCH  17  18
ATOM     18  C   UNL     1       4.780   3.826  18.188  0.00  0.00    +0.000 C 
BRANCH  18  19
ATOM     19  N   UNL     1       5.291   5.102  17.633  0.00  0.00    +0.000 NA
ATOM     20  C   UNL     1       5.478   5.045  16.161  0.00  0.00    +0.000 C 
ATOM     21  C   UNL     1       6.648   4.167  15.663  0.00  0.00    +0.000 C 
ATOM     22  O   UNL     1       7.858   4.579  16.277  0.00  0.00    +0.000 OA
ATOM     23  C   UNL     1       7.699   4.535  17.687  0.00  0.00    +0.000 C 
ATOM     24  C   UNL     1       6.600   5.467  18.201  0.00  0.00    +0.000 C 
ENDBRANCH  18  19
ENDBRANCH  17  18
ENDBRANCH  16  17
ENDBRANCH  14  16
ENDBRANCH   4  10
BRANCH   1  25
ATOM     25  N   UNL     1      -1.174  11.948  20.045  0.00  0.00    +0.000 N 
ATOM     26  H   UNL     1      -0.426  12.443  19.566  0.00  0.00    +0.000 HD
BRANCH  25  30
ATOM     27  C   UNL     1      -2.814  10.821  15.585  0.00  0.00    +0.000 C 
ATOM     28  C   UNL     1      -3.168  11.101  17.027  0.00  0.00    +0.000 A 
ATOM     29  C   UNL     1      -2.114  11.258  17.940  0.00  0.00    +0.000 A 
ATOM     30  C   UNL     1      -2.314  11.773  19.231  0.00  0.00    +0.000 A 
ATOM     31  C   UNL     1      -3.596  12.231  19.561  0.00  0.00    +0.000 A 
ATOM     32  C   UNL     1      -4.658  12.088  18.675  0.00  0.00    +0.000 A 
ATOM     33 CL   UNL     1      -6.166  12.848  19.049  0.00  0.00    +0.000 Cl
ATOM     34  C   UNL     1      -4.458  11.475  17.435  0.00  0.00    +0.000 A 
BRANCH  34  35
ATOM     35  O   UNL     1      -5.485  11.421  16.524  0.00  0.00    +0.000 OA
ATOM     36  H   UNL     1      -6.221  10.936  16.944  0.00  0.00    +0.000 HD
ENDBRANCH  34  35
ENDBRANCH  25  30
ENDBRANCH   1  25
TORSDOF 8
ENDMDL
MODEL 7
REMARK VINA RESULT:      -8.3      3.901      6.412
REMARK  Name = 
REMARK  9 active torsions:
REMARK  status: ('A' for Active; 'I' for Inactive)
REMARK    1  A    between atoms: C_1  and  C_2
REMARK    2  A    between atoms: C_4  and  N_5
REMARK    3  A    between atoms: N_5  and  C_6
REMARK    4  A    between atoms: N_9  and  C_10
REMARK    5  A    between atoms: C_14  and  O_15
REMARK    6  A    between atoms: O_15  and  C_16
REMARK    7  A    between atoms: C_16  and  C_17
REMARK    8  A    between atoms: C_17  and  N_18
REMARK    9  A    between atoms: C_32  and  O_33
REMARK                            x       y       z     vdW  Elec       q    Type
REMARK                         _______ _______ _______ _____ _____    ______ ____
ROOT
ATOM      1  C   UNL     1       0.267   9.769  19.756  0.00  0.00    +0.000 A 
ATOM      2  N   UNL     1       0.950   8.621  19.848  0.00  0.00    +0.000 NA
ATOM      3  C   UNL     1       1.337   8.179  21.054  0.00  0.00    +0.000 A 
ATOM      4  N   UNL     1       2.068   6.995  21.118  0.00  0.00    +0.000 N 
ATOM      5  N   UNL     1       1.104   8.841  22.194  0.00  0.00    +0.000 NA
ATOM      6  C   UNL     1       0.398   9.981  22.079  0.00  0.00    +0.000 A 
ATOM      7  C   UNL     1      -0.052  10.478  20.888  0.00  0.00    +0.000 A 
ATOM      8  F   UNL     1      -0.767  11.616  20.827  0.00  0.00    +0.000 F 
ATOM      9  H   UNL     1       2.210   6.745  22.087  0.00  0.00    +0.000 HD
ENDROOT
BRANCH   4  10
ATOM     10  C   UNL     1       1.944   5.883  20.257  0.00  0.00    +0.000 A 
ATOM     11  C   UNL     1       1.074   4.843  20.605  0.00  0.00    +0.000 A 
ATOM     12  C   UNL     1       0.913   3.742  19.761  0.00  0.00    +0.000 A 
ATOM     13  C   UNL     1       1.619   3.671  18.559  0.00  0.00    +0.000 A 
ATOM     14  C   UNL     1       2.502   4.687  18.201  0.00  0.00    +0.000 A 
ATOM     15  C   UNL     1       2.638   5.799  19.039  0.00  0.00    +0.000 A 
BRANCH  14  16
ATOM     16  O   UNL     1       3.165   4.506  17.012  0.00  0.00    +0.000 OA
BRANCH  16  17
ATOM     17  C   UNL     1       4.333   3.671  17.078  0.00  0.00    +0.000 C 
BRANCH  17  18
ATOM     18  C   UNL     1       5.595   4.565  17.148  0.00  0.00    +0.000 C 
BRANCH  18  19
ATOM     19  N   UNL     1       5.496   5.707  18.087  0.00  0.00    +0.000 NA
ATOM     20  C   UNL     1       5.952   6.983  17.479  0.00  0.00    +0.000 C 
ATOM     21  C   UNL     1       7.472   7.104  17.228  0.00  0.00    +0.000 C 
ATOM     22  O   UNL     1       8.182   6.876  18.436  0.00  0.00    +0.000 OA
ATOM     23  C   UNL     1       7.809   5.609  18.957  0.00  0.00    +0.000 C 
ATOM     24  C   UNL     1       6.320   5.506  19.291  0.00  0.00    +0.000 C 
ENDBRANCH  18  19
ENDBRANCH  17  18
ENDBRANCH  16  17
ENDBRANCH  14  16
ENDBRANCH   4  10
BRANCH   1  25
ATOM     25  N   UNL     1      -0.198  10.200  18.491  0.00  0.00    +0.000 N 
ATOM     26  H   UNL     1       0.434   9.933  17.741  0.00  0.00    +0.000 HD
BRANCH  25  30
ATOM     27  C   UNL     1      -3.210  10.091  14.648  0.00  0.00    +0.000 C 
ATOM     28  C   UNL     1      -3.076  10.263  16.144  0.00  0.00    +0.000 A 
ATOM     29  C   UNL     1      -1.816  10.038  16.718  0.00  0.00    +0.000 A 
ATOM     30  C   UNL     1      -1.517  10.417  18.037  0.00  0.00    +0.000 A 
ATOM     31  C   UNL     1      -2.490  11.130  18.749  0.00  0.00    +0.000 A 
ATOM     32  C   UNL     1      -3.747  11.368  18.203  0.00  0.00    +0.000 A 
ATOM     33 CL   UNL     1      -4.834  12.422  19.038  0.00  0.00    +0.000 Cl
ATOM     34  C   UNL     1      -4.059  10.888  16.928  0.00  0.00    +0.000 A 
BRANCH  34  35
ATOM     35  O   UNL     1      -5.265  11.206  16.353  0.00  0.00    +0.000 OA
ATOM     36  H   UNL     1      -5.861  10.444  16.488  0.00  0.00    +0.000 HD
ENDBRANCH  34  35
ENDBRANCH  25  30
ENDBRANCH   1  25
TORSDOF 8
ENDMDL
MODEL 8
REMARK VINA RESULT:      -8.2      1.356      2.058
REMARK  Name = 
REMARK  9 active torsions:
REMARK  status: ('A' for Active; 'I' for Inactive)
REMARK    1  A    between atoms: C_1  and  C_2
REMARK    2  A    between atoms: C_4  and  N_5
REMARK    3  A    between atoms: N_5  and  C_6
REMARK    4  A    between atoms: N_9  and  C_10
REMARK    5  A    between atoms: C_14  and  O_15
REMARK    6  A    between atoms: O_15  and  C_16
REMARK    7  A    between atoms: C_16  and  C_17
REMARK    8  A    between atoms: C_17  and  N_18
REMARK    9  A    between atoms: C_32  and  O_33
REMARK                            x       y       z     vdW  Elec       q    Type
REMARK                         _______ _______ _______ _____ _____    ______ ____
ROOT
ATOM      1  C   UNL     1       2.668   4.070  20.620  0.00  0.00    +0.000 A 
ATOM      2  N   UNL     1       3.744   4.389  19.889  0.00  0.00    +0.000 NA
ATOM      3  C   UNL     1       4.691   3.464  19.672  0.00  0.00    +0.000 A 
ATOM      4  N   UNL     1       5.812   3.830  18.930  0.00  0.00    +0.000 N 
ATOM      5  N   UNL     1       4.642   2.223  20.172  0.00  0.00    +0.000 NA
ATOM      6  C   UNL     1       3.541   1.919  20.885  0.00  0.00    +0.000 A 
ATOM      7  C   UNL     1       2.525   2.801  21.124  0.00  0.00    +0.000 A 
ATOM      8  F   UNL     1       1.438   2.444  21.831  0.00  0.00    +0.000 F 
ATOM      9  H   UNL     1       6.389   3.015  18.776  0.00  0.00    +0.000 HD
ENDROOT
BRANCH   4  10
ATOM     10  C   UNL     1       5.851   4.763  17.871  0.00  0.00    +0.000 A 
ATOM     11  C   UNL     1       5.267   4.427  16.644  0.00  0.00    +0.000 A 
ATOM     12  C   UNL     1       5.269   5.338  15.585  0.00  0.00    +0.000 A 
ATOM     13  C   UNL     1       5.853   6.597  15.746  0.00  0.00    +0.000 A 
ATOM     14  C   UNL     1       6.454   6.945  16.953  0.00  0.00    +0.000 A 
ATOM     15  C   UNL     1       6.424   6.037  18.017  0.00  0.00    +0.000 A 
BRANCH  14  16
ATOM     16  O   UNL     1       7.021   8.196  16.995  0.00  0.00    +0.000 OA
BRANCH  16  17
ATOM     17  C   UNL     1       8.113   8.346  17.916  0.00  0.00    +0.000 C 
BRANCH  17  18
ATOM     18  C   UNL     1       8.280   9.844  18.268  0.00  0.00    +0.000 C 
BRANCH  18  19
ATOM     19  N   UNL     1       9.618  10.215  18.787  0.00  0.00    +0.000 NA
ATOM     20  C   UNL     1       9.545  10.902  20.102  0.00  0.00    +0.000 C 
ATOM     21  C   UNL     1       8.971  12.336  20.083  0.00  0.00    +0.000 C 
ATOM     22  O   UNL     1       9.704  13.139  19.170  0.00  0.00    +0.000 OA
ATOM     23  C   UNL     1       9.683  12.520  17.892  0.00  0.00    +0.000 C 
ATOM     24  C   UNL     1      10.328  11.134  17.881  0.00  0.00    +0.000 C 
ENDBRANCH  18  19
ENDBRANCH  17  18
ENDBRANCH  16  17
ENDBRANCH  14  16
ENDBRANCH   4  10
BRANCH   1  25
ATOM     25  N   UNL     1       1.639   5.025  20.793  0.00  0.00    +0.000 N 
ATOM     26  H   UNL     1       1.031   4.793  21.575  0.00  0.00    +0.000 HD
BRANCH  25  30
ATOM     27  C   UNL     1      -0.236   9.391  21.924  0.00  0.00    +0.000 C 
ATOM     28  C   UNL     1       0.775   8.624  21.102  0.00  0.00    +0.000 A 
ATOM     29  C   UNL     1       0.912   7.250  21.349  0.00  0.00    +0.000 A 
ATOM     30  C   UNL     1       1.618   6.401  20.480  0.00  0.00    +0.000 A 
ATOM     31  C   UNL     1       2.106   6.947  19.286  0.00  0.00    +0.000 A 
ATOM     32  C   UNL     1       1.982   8.305  19.016  0.00  0.00    +0.000 A 
ATOM     33 CL   UNL     1       2.420   8.888  17.447  0.00  0.00    +0.000 Cl
ATOM     34  C   UNL     1       1.370   9.151  19.944  0.00  0.00    +0.000 A 
BRANCH  34  35
ATOM     35  O   UNL     1       1.163  10.474  19.634  0.00  0.00    +0.000 OA
ATOM     36  H   UNL     1       0.632  10.500  18.814  0.00  0.00    +0.000 HD
ENDBRANCH  34  35
ENDBRANCH  25  30
ENDBRANCH   1  25
TORSDOF 8
ENDMDL
MODEL 9
REMARK VINA RESULT:      -8.2      4.034      6.328
REMARK  Name = 
REMARK  9 active torsions:
REMARK  status: ('A' for Active; 'I' for Inactive)
REMARK    1  A    between atoms: C_1  and  C_2
REMARK    2  A    between atoms: C_4  and  N_5
REMARK    3  A    between atoms: N_5  and  C_6
REMARK    4  A    between atoms: N_9  and  C_10
REMARK    5  A    between atoms: C_14  and  O_15
REMARK    6  A    between atoms: O_15  and  C_16
REMARK    7  A    between atoms: C_16  and  C_17
REMARK    8  A    between atoms: C_17  and  N_18
REMARK    9  A    between atoms: C_32  and  O_33
REMARK                            x       y       z     vdW  Elec       q    Type
REMARK                         _______ _______ _______ _____ _____    ______ ____
ROOT
ATOM      1  C   UNL     1       0.138  10.035  20.007  0.00  0.00    +0.000 A 
ATOM      2  N   UNL     1       0.929   8.955  20.001  0.00  0.00    +0.000 NA
ATOM      3  C   UNL     1       1.288   8.395  21.166  0.00  0.00    +0.000 A 
ATOM      4  N   UNL     1       2.132   7.286  21.131  0.00  0.00    +0.000 N 
ATOM      5  N   UNL     1       0.922   8.872  22.361  0.00  0.00    +0.000 NA
ATOM      6  C   UNL     1       0.111   9.947  22.342  0.00  0.00    +0.000 A 
ATOM      7  C   UNL     1      -0.317  10.553  21.195  0.00  0.00    +0.000 A 
ATOM      8  F   UNL     1      -1.140  11.617  21.229  0.00  0.00    +0.000 F 
ATOM      9  H   UNL     1       2.243   6.923  22.069  0.00  0.00    +0.000 HD
ENDROOT
BRANCH   4  10
ATOM     10  C   UNL     1       2.174   6.293  20.130  0.00  0.00    +0.000 A 
ATOM     11  C   UNL     1       1.281   5.218  20.196  0.00  0.00    +0.000 A 
ATOM     12  C   UNL     1       1.282   4.232  19.206  0.00  0.00    +0.000 A 
ATOM     13  C   UNL     1       2.177   4.315  18.137  0.00  0.00    +0.000 A 
ATOM     14  C   UNL     1       3.086   5.367  18.060  0.00  0.00    +0.000 A 
ATOM     15  C   UNL     1       3.060   6.364  19.041  0.00  0.00    +0.000 A 
BRANCH  14  16
ATOM     16  O   UNL     1       3.938   5.339  16.983  0.00  0.00    +0.000 OA
BRANCH  16  17
ATOM     17  C   UNL     1       4.428   6.618  16.551  0.00  0.00    +0.000 C 
BRANCH  17  18
ATOM     18  C   UNL     1       5.510   7.111  17.542  0.00  0.00    +0.000 C 
BRANCH  18  19
ATOM     19  N   UNL     1       6.905   6.957  17.066  0.00  0.00    +0.000 NA
ATOM     20  C   UNL     1       7.125   5.668  16.363  0.00  0.00    +0.000 C 
ATOM     21  C   UNL     1       7.113   4.404  17.252  0.00  0.00    +0.000 C 
ATOM     22  O   UNL     1       8.060   4.540  18.300  0.00  0.00    +0.000 OA
ATOM     23  C   UNL     1       7.779   5.727  19.026  0.00  0.00    +0.000 C 
ATOM     24  C   UNL     1       7.875   6.994  18.175  0.00  0.00    +0.000 C 
ENDBRANCH  18  19
ENDBRANCH  17  18
ENDBRANCH  16  17
ENDBRANCH  14  16
ENDBRANCH   4  10
BRANCH   1  25
ATOM     25  N   UNL     1      -0.294  10.586  18.778  0.00  0.00    +0.000 N 
ATOM     26  H   UNL     1       0.423  10.523  18.059  0.00  0.00    +0.000 HD
BRANCH  25  30
ATOM     27  C   UNL     1      -3.090   9.909  14.832  0.00  0.00    +0.000 C 
ATOM     28  C   UNL     1      -3.043  10.252  16.303  0.00  0.00    +0.000 A 
ATOM     29  C   UNL     1      -1.807  10.152  16.959  0.00  0.00    +0.000 A 
ATOM     30  C   UNL     1      -1.594  10.689  18.239  0.00  0.00    +0.000 A 
ATOM     31  C   UNL     1      -2.632  11.430  18.818  0.00  0.00    +0.000 A 
ATOM     32  C   UNL     1      -3.867  11.547  18.188  0.00  0.00    +0.000 A 
ATOM     33 CL   UNL     1      -5.040  12.634  18.845  0.00  0.00    +0.000 Cl
ATOM     34  C   UNL     1      -4.091  10.914  16.963  0.00  0.00    +0.000 A 
BRANCH  34  35
ATOM     35  O   UNL     1      -5.277  11.109  16.297  0.00  0.00    +0.000 OA
ATOM     36  H   UNL     1      -5.551  12.033  16.458  0.00  0.00    +0.000 HD
ENDBRANCH  34  35
ENDBRANCH  25  30
ENDBRANCH   1  25
TORSDOF 8
ENDMDL
