MODEL 1
REMARK VINA RESULT:      -8.1      0.000      0.000
REMARK  Name = 
REMARK  9 active torsions:
REMARK  status: ('A' for Active; 'I' for Inactive)
REMARK    1  A    between atoms: C_1  and  C_2
REMARK    2  A    between atoms: C_2  and  O_3
REMARK    3  A    between atoms: O_3  and  C_4
REMARK    4  A    between atoms: C_6  and  C_7
REMARK    5  A    between atoms: N_9  and  C_10
REMARK    6  A    between atoms: C_13  and  C_14
REMARK    7  A    between atoms: C_19  and  C_20
REMARK    8  A    between atoms: C_28  and  C_29
REMARK    9  A    between atoms: C_29  and  O_31
REMARK                            x       y       z     vdW  Elec       q    Type
REMARK                         _______ _______ _______ _____ _____    ______ ____
ROOT
ATOM      1  C   UNL     1       1.690   8.991  19.185  0.00  0.00    +0.000 C 
ATOM      2  N   UNL     1       0.989   9.275  20.234  0.00  0.00    +0.000 NA
ATOM      3  N   UNL     1       0.431  10.509  20.032  0.00  0.00    +0.000 N 
ATOM      4  C   UNL     1       0.759  11.084  18.718  0.00  0.00    +0.000 C 
ATOM      5  C   UNL     1       1.711  10.044  18.128  0.00  0.00    +0.000 C 
ENDROOT
BRANCH   3   6
ATOM      6  C   UNL     1      -0.535  10.967  20.924  0.00  0.00    +0.000 A 
ATOM      7  C   UNL     1      -0.495  10.561  22.270  0.00  0.00    +0.000 A 
ATOM      8  C   UNL     1      -1.416  11.027  23.213  0.00  0.00    +0.000 A 
ATOM      9  C   UNL     1      -2.426  11.912  22.826  0.00  0.00    +0.000 A 
ATOM     10  C   UNL     1      -2.496  12.314  21.490  0.00  0.00    +0.000 A 
ATOM     11 CL   UNL     1      -3.723  13.394  20.926  0.00  0.00    +0.000 Cl
ATOM     12  C   UNL     1      -1.559  11.846  20.554  0.00  0.00    +0.000 A 
BRANCH   9  13
ATOM     13  C   UNL     1      -3.352  12.378  23.813  0.00  0.00    +0.000 C 
ATOM     14  N   UNL     1      -4.119  12.776  24.587  0.00  0.00    +0.000 NA
ENDBRANCH   9  13
ENDBRANCH   3   6
BRANCH   1  17
ATOM     15  C   UNL     1       2.801   5.428  19.697  0.00  0.00    +0.000 A 
ATOM     16  C   UNL     1       2.275   6.704  19.940  0.00  0.00    +0.000 A 
ATOM     17  C   UNL     1       2.420   7.718  18.991  0.00  0.00    +0.000 A 
ATOM     18  C   UNL     1       3.183   7.493  17.844  0.00  0.00    +0.000 A 
ATOM     19  C   UNL     1       3.762   6.245  17.628  0.00  0.00    +0.000 A 
ATOM     20  C   UNL     1       3.567   5.197  18.538  0.00  0.00    +0.000 A 
BRANCH  20  21
ATOM     21  C   UNL     1       4.160   3.874  18.157  0.00  0.00    +0.000 C 
ATOM     22  O   UNL     1       3.723   3.216  17.224  0.00  0.00    +0.000 OA
BRANCH  21  23
ATOM     23  O   UNL     1       5.175   3.442  18.923  0.00  0.00    +0.000 OA
ATOM     24  H   UNL     1       5.999   3.956  18.804  0.00  0.00    +0.000 HD
ENDBRANCH  21  23
ENDBRANCH  20  21
BRANCH  15  25
ATOM     25  O   UNL     1       2.587   4.375  20.552  0.00  0.00    +0.000 OA
BRANCH  25  27
ATOM     26  C   UNL     1       0.873   2.948  19.708  0.00  0.00    +0.000 C 
ATOM     27  C   UNL     1       1.213   4.005  20.740  0.00  0.00    +0.000 C 
ENDBRANCH  25  27
ENDBRANCH  15  25
ENDBRANCH   1  17
BRANCH   4  28
ATOM     28  C   UNL     1       1.369  12.498  18.819  0.00  0.00    +0.000 C 
ATOM     29  C   UNL     1       1.964  12.849  20.184  0.00  0.00    +0.000 C 
ATOM     30  C   UNL     1       2.841  14.060  19.912  0.00  0.00    +0.000 C 
ATOM     31  C   UNL     1       3.338  13.909  18.479  0.00  0.00    +0.000 C 
ATOM     32  C   UNL     1       2.520  12.788  17.842  0.00  0.00    +0.000 C 
ENDBRANCH   4  28
TORSDOF 8
ENDMDL
MODEL 2
REMARK VINA RESULT:      -8.0      2.892      4.586
REMARK  Name = 
REMARK  9 active torsions:
REMARK  status: ('A' for Active; 'I' for Inactive)
REMARK    1  A    between atoms: C_1  and  C_2
REMARK    2  A    between atoms: C_2  and  O_3
REMARK    3  A    between atoms: O_3  and  C_4
REMARK    4  A    between atoms: C_6  and  C_7
REMARK    5  A    between atoms: N_9  and  C_10
REMARK    6  A    between atoms: C_13  and  C_14
REMARK    7  A    between atoms: C_19  and  C_20
REMARK    8  A    between atoms: C_28  and  C_29
REMARK    9  A    between atoms: C_29  and  O_31
REMARK                            x       y       z     vdW  Elec       q    Type
REMARK                         _______ _______ _______ _____ _____    ______ ____
ROOT
ATOM      1  C   UNL     1       1.497   9.353  18.672  0.00  0.00    +0.000 C 
ATOM      2  N   UNL     1       1.968  10.538  18.454  0.00  0.00    +0.000 NA
ATOM      3  N   UNL     1       0.930  11.421  18.581  0.00  0.00    +0.000 N 
ATOM      4  C   UNL     1      -0.338  10.774  18.953  0.00  0.00    +0.000 C 
ATOM      5  C   UNL     1       0.033   9.292  18.956  0.00  0.00    +0.000 C 
ENDROOT
BRANCH   3   6
ATOM      6  C   UNL     1       1.203  12.787  18.593  0.00  0.00    +0.000 A 
ATOM      7  C   UNL     1       0.245  13.689  19.089  0.00  0.00    +0.000 A 
ATOM      8  C   UNL     1       0.488  15.064  19.162  0.00  0.00    +0.000 A 
ATOM      9  C   UNL     1       1.707  15.582  18.719  0.00  0.00    +0.000 A 
ATOM     10  C   UNL     1       2.667  14.707  18.205  0.00  0.00    +0.000 A 
ATOM     11 CL   UNL     1       4.195  15.268  17.622  0.00  0.00    +0.000 Cl
ATOM     12  C   UNL     1       2.414  13.327  18.145  0.00  0.00    +0.000 A 
BRANCH   9  13
ATOM     13  C   UNL     1       1.933  16.993  18.811  0.00  0.00    +0.000 C 
ATOM     14  N   UNL     1       2.150  18.131  18.874  0.00  0.00    +0.000 NA
ENDBRANCH   9  13
ENDBRANCH   3   6
BRANCH   1  17
ATOM     15  C   UNL     1       2.781   5.952  19.661  0.00  0.00    +0.000 A 
ATOM     16  C   UNL     1       2.162   7.209  19.720  0.00  0.00    +0.000 A 
ATOM     17  C   UNL     1       2.314   8.120  18.674  0.00  0.00    +0.000 A 
ATOM     18  C   UNL     1       3.172   7.823  17.612  0.00  0.00    +0.000 A 
ATOM     19  C   UNL     1       3.839   6.600  17.579  0.00  0.00    +0.000 A 
ATOM     20  C   UNL     1       3.641   5.648  18.589  0.00  0.00    +0.000 A 
BRANCH  20  21
ATOM     21  C   UNL     1       4.340   4.335  18.401  0.00  0.00    +0.000 C 
ATOM     22  O   UNL     1       4.226   3.685  17.373  0.00  0.00    +0.000 OA
BRANCH  21  23
ATOM     23  O   UNL     1       5.067   3.901  19.444  0.00  0.00    +0.000 OA
ATOM     24  H   UNL     1       5.550   4.617  19.906  0.00  0.00    +0.000 HD
ENDBRANCH  21  23
ENDBRANCH  20  21
BRANCH  15  25
ATOM     25  O   UNL     1       2.569   4.988  20.615  0.00  0.00    +0.000 OA
BRANCH  25  27
ATOM     26  C   UNL     1       1.426   2.986  21.226  0.00  0.00    +0.000 C 
ATOM     27  C   UNL     1       1.288   4.341  20.562  0.00  0.00    +0.000 C 
ENDBRANCH  25  27
ENDBRANCH  15  25
ENDBRANCH   1  17
BRANCH   4  28
ATOM     28  C   UNL     1      -1.493  11.123  17.988  0.00  0.00    +0.000 C 
ATOM     29  C   UNL     1      -1.959   9.971  17.096  0.00  0.00    +0.000 C 
ATOM     30  C   UNL     1      -3.316  10.421  16.580  0.00  0.00    +0.000 C 
ATOM     31  C   UNL     1      -3.911  11.304  17.670  0.00  0.00    +0.000 C 
ATOM     32  C   UNL     1      -2.789  11.601  18.662  0.00  0.00    +0.000 C 
ENDBRANCH   4  28
TORSDOF 8
ENDMDL
MODEL 3
REMARK VINA RESULT:      -8.0      1.016      2.296
REMARK  Name = 
REMARK  9 active torsions:
REMARK  status: ('A' for Active; 'I' for Inactive)
REMARK    1  A    between atoms: C_1  and  C_2
REMARK    2  A    between atoms: C_2  and  O_3
REMARK    3  A    between atoms: O_3  and  C_4
REMARK    4  A    between atoms: C_6  and  C_7
REMARK    5  A    between atoms: N_9  and  C_10
REMARK    6  A    between atoms: C_13  and  C_14
REMARK    7  A    between atoms: C_19  and  C_20
REMARK    8  A    between atoms: C_28  and  C_29
REMARK    9  A    between atoms: C_29  and  O_31
REMARK                            x       y       z     vdW  Elec       q    Type
REMARK                         _______ _______ _______ _____ _____    ______ ____
ROOT
ATOM      1  C   UNL     1       1.630   8.745  19.321  0.00  0.00    +0.000 C 
ATOM      2  N   UNL     1       0.884   9.083  20.322  0.00  0.00    +0.000 NA
ATOM      3  N   UNL     1       0.478  10.374  20.113  0.00  0.00    +0.000 N 
ATOM      4  C   UNL     1       0.964  10.935  18.844  0.00  0.00    +0.000 C 
ATOM      5  C   UNL     1       1.844   9.811  18.297  0.00  0.00    +0.000 C 
ENDROOT
BRANCH   3   6
ATOM      6  C   UNL     1      -0.500  10.916  20.944  0.00  0.00    +0.000 A 
ATOM      7  C   UNL     1      -0.472  10.652  22.325  0.00  0.00    +0.000 A 
ATOM      8  C   UNL     1      -1.405  11.207  23.206  0.00  0.00    +0.000 A 
ATOM      9  C   UNL     1      -2.415  12.041  22.719  0.00  0.00    +0.000 A 
ATOM     10  C   UNL     1      -2.474  12.302  21.348  0.00  0.00    +0.000 A 
ATOM     11 CL   UNL     1      -3.700  13.311  20.663  0.00  0.00    +0.000 Cl
ATOM     12  C   UNL     1      -1.525  11.746  20.475  0.00  0.00    +0.000 A 
BRANCH   9  13
ATOM     13  C   UNL     1      -3.354  12.601  23.643  0.00  0.00    +0.000 C 
ATOM     14  N   UNL     1      -4.093  13.083  24.397  0.00  0.00    +0.000 NA
ENDBRANCH   9  13
ENDBRANCH   3   6
BRANCH   1  17
ATOM     15  C   UNL     1       3.744   5.966  17.908  0.00  0.00    +0.000 A 
ATOM     16  C   UNL     1       3.012   7.156  18.015  0.00  0.00    +0.000 A 
ATOM     17  C   UNL     1       2.232   7.406  19.146  0.00  0.00    +0.000 A 
ATOM     18  C   UNL     1       2.095   6.421  20.126  0.00  0.00    +0.000 A 
ATOM     19  C   UNL     1       2.770   5.209  19.994  0.00  0.00    +0.000 A 
ATOM     20  C   UNL     1       3.612   4.973  18.897  0.00  0.00    +0.000 A 
BRANCH  20  21
ATOM     21  C   UNL     1       4.358   3.673  18.907  0.00  0.00    +0.000 C 
ATOM     22  O   UNL     1       3.779   2.598  18.957  0.00  0.00    +0.000 OA
BRANCH  21  23
ATOM     23  O   UNL     1       5.698   3.764  18.895  0.00  0.00    +0.000 OA
ATOM     24  H   UNL     1       6.100   3.716  19.786  0.00  0.00    +0.000 HD
ENDBRANCH  21  23
ENDBRANCH  20  21
BRANCH  15  25
ATOM     25  O   UNL     1       4.607   5.731  16.866  0.00  0.00    +0.000 OA
BRANCH  25  27
ATOM     26  C   UNL     1       6.696   6.760  17.381  0.00  0.00    +0.000 C 
ATOM     27  C   UNL     1       5.457   6.832  16.511  0.00  0.00    +0.000 C 
ENDBRANCH  25  27
ENDBRANCH  15  25
ENDBRANCH   1  17
BRANCH   4  28
ATOM     28  C   UNL     1       1.712  12.274  19.029  0.00  0.00    +0.000 C 
ATOM     29  C   UNL     1       2.820  12.541  18.008  0.00  0.00    +0.000 C 
ATOM     30  C   UNL     1       3.093  14.031  18.132  0.00  0.00    +0.000 C 
ATOM     31  C   UNL     1       1.773  14.670  18.544  0.00  0.00    +0.000 C 
ATOM     32  C   UNL     1       0.835  13.533  18.943  0.00  0.00    +0.000 C 
ENDBRANCH   4  28
TORSDOF 8
ENDMDL
MODEL 4
REMARK VINA RESULT:      -7.8      2.555      4.366
REMARK  Name = 
REMARK  9 active torsions:
REMARK  status: ('A' for Active; 'I' for Inactive)
REMARK    1  A    between atoms: C_1  and  C_2
REMARK    2  A    between atoms: C_2  and  O_3
REMARK    3  A    between atoms: O_3  and  C_4
REMARK    4  A    between atoms: C_6  and  C_7
REMARK    5  A    between atoms: N_9  and  C_10
REMARK    6  A    between atoms: C_13  and  C_14
REMARK    7  A    between atoms: C_19  and  C_20
REMARK    8  A    between atoms: C_28  and  C_29
REMARK    9  A    between atoms: C_29  and  O_31
REMARK                            x       y       z     vdW  Elec       q    Type
REMARK                         _______ _______ _______ _____ _____    ______ ____
ROOT
ATOM      1  C   UNL     1       1.420   9.342  18.666  0.00  0.00    +0.000 C 
ATOM      2  N   UNL     1       1.871  10.543  18.502  0.00  0.00    +0.000 NA
ATOM      3  N   UNL     1       0.807  11.399  18.605  0.00  0.00    +0.000 N 
ATOM      4  C   UNL     1      -0.460  10.713  18.901  0.00  0.00    +0.000 C 
ATOM      5  C   UNL     1      -0.054   9.239  18.880  0.00  0.00    +0.000 C 
ENDROOT
BRANCH   3   6
ATOM      6  C   UNL     1       1.047  12.769  18.667  0.00  0.00    +0.000 A 
ATOM      7  C   UNL     1       2.306  13.278  18.304  0.00  0.00    +0.000 A 
ATOM      8  C   UNL     1       2.583  14.648  18.308  0.00  0.00    +0.000 A 
ATOM      9  C   UNL     1       1.597  15.559  18.697  0.00  0.00    +0.000 A 
ATOM     10  C   UNL     1       0.344  15.075  19.080  0.00  0.00    +0.000 A 
ATOM     11 CL   UNL     1      -0.926  16.132  19.589  0.00  0.00    +0.000 Cl
ATOM     12  C   UNL     1       0.076  13.696  19.063  0.00  0.00    +0.000 A 
BRANCH   9  13
ATOM     13  C   UNL     1       1.904  16.957  18.686  0.00  0.00    +0.000 C 
ATOM     14  N   UNL     1       2.155  18.089  18.643  0.00  0.00    +0.000 NA
ENDBRANCH   9  13
ENDBRANCH   3   6
BRANCH   1  17
ATOM     15  C   UNL     1       2.781   5.974  19.664  0.00  0.00    +0.000 A 
ATOM     16  C   UNL     1       2.133   7.216  19.720  0.00  0.00    +0.000 A 
ATOM     17  C   UNL     1       2.265   8.128  18.671  0.00  0.00    +0.000 A 
ATOM     18  C   UNL     1       3.130   7.849  17.612  0.00  0.00    +0.000 A 
ATOM     19  C   UNL     1       3.826   6.642  17.583  0.00  0.00    +0.000 A 
ATOM     20  C   UNL     1       3.650   5.688  18.594  0.00  0.00    +0.000 A 
BRANCH  20  21
ATOM     21  C   UNL     1       4.378   4.391  18.410  0.00  0.00    +0.000 C 
ATOM     22  O   UNL     1       4.225   3.700  17.414  0.00  0.00    +0.000 OA
BRANCH  21  23
ATOM     23  O   UNL     1       5.180   4.019  19.422  0.00  0.00    +0.000 OA
ATOM     24  H   UNL     1       4.815   3.286  19.960  0.00  0.00    +0.000 HD
ENDBRANCH  21  23
ENDBRANCH  20  21
BRANCH  15  25
ATOM     25  O   UNL     1       2.590   5.008  20.620  0.00  0.00    +0.000 OA
BRANCH  25  27
ATOM     26  C   UNL     1       1.473   2.978  21.185  0.00  0.00    +0.000 C 
ATOM     27  C   UNL     1       1.307   4.365  20.597  0.00  0.00    +0.000 C 
ENDBRANCH  25  27
ENDBRANCH  15  25
ENDBRANCH   1  17
BRANCH   4  28
ATOM     28  C   UNL     1      -1.579  11.062  17.895  0.00  0.00    +0.000 C 
ATOM     29  C   UNL     1      -1.995   9.918  16.969  0.00  0.00    +0.000 C 
ATOM     30  C   UNL     1      -3.335  10.360  16.403  0.00  0.00    +0.000 C 
ATOM     31  C   UNL     1      -3.983  11.222  17.479  0.00  0.00    +0.000 C 
ATOM     32  C   UNL     1      -2.906  11.517  18.521  0.00  0.00    +0.000 C 
ENDBRANCH   4  28
TORSDOF 8
ENDMDL
MODEL 5
REMARK VINA RESULT:      -7.7      3.569      6.669
REMARK  Name = 
REMARK  9 active torsions:
REMARK  status: ('A' for Active; 'I' for Inactive)
REMARK    1  A    between atoms: C_1  and  C_2
REMARK    2  A    between atoms: C_2  and  O_3
REMARK    3  A    between atoms: O_3  and  C_4
REMARK    4  A    between atoms: C_6  and  C_7
REMARK    5  A    between atoms: N_9  and  C_10
REMARK    6  A    between atoms: C_13  and  C_14
REMARK    7  A    between atoms: C_19  and  C_20
REMARK    8  A    between atoms: C_28  and  C_29
REMARK    9  A    between atoms: C_29  and  O_31
REMARK                            x       y       z     vdW  Elec       q    Type
REMARK                         _______ _______ _______ _____ _____    ______ ____
ROOT
ATOM      1  C   UNL     1       4.376   5.793  17.682  0.00  0.00    +0.000 C 
ATOM      2  N   UNL     1       3.575   6.809  17.713  0.00  0.00    +0.000 NA
ATOM      3  N   UNL     1       2.855   6.728  18.874  0.00  0.00    +0.000 N 
ATOM      4  C   UNL     1       3.233   5.578  19.711  0.00  0.00    +0.000 C 
ATOM      5  C   UNL     1       4.270   4.863  18.845  0.00  0.00    +0.000 C 
ENDROOT
BRANCH   3   6
ATOM      6  C   UNL     1       2.060   7.807  19.252  0.00  0.00    +0.000 A 
ATOM      7  C   UNL     1       1.658   8.752  18.291  0.00  0.00    +0.000 A 
ATOM      8  C   UNL     1       0.826   9.828  18.611  0.00  0.00    +0.000 A 
ATOM      9  C   UNL     1       0.380  10.001  19.924  0.00  0.00    +0.000 A 
ATOM     10  C   UNL     1       0.783   9.085  20.900  0.00  0.00    +0.000 A 
ATOM     11 CL   UNL     1       0.290   9.234  22.550  0.00  0.00    +0.000 Cl
ATOM     12  C   UNL     1       1.612   8.002  20.563  0.00  0.00    +0.000 A 
BRANCH   9  13
ATOM     13  C   UNL     1      -0.476  11.108  20.225  0.00  0.00    +0.000 C 
ATOM     14  N   UNL     1      -1.165  12.017  20.435  0.00  0.00    +0.000 NA
ENDBRANCH   9  13
ENDBRANCH   3   6
BRANCH   1  17
ATOM     15  C   UNL     1       5.890   4.438  14.510  0.00  0.00    +0.000 A 
ATOM     16  C   UNL     1       5.072   4.574  15.640  0.00  0.00    +0.000 A 
ATOM     17  C   UNL     1       5.359   5.540  16.606  0.00  0.00    +0.000 A 
ATOM     18  C   UNL     1       6.526   6.301  16.503  0.00  0.00    +0.000 A 
ATOM     19  C   UNL     1       7.377   6.124  15.415  0.00  0.00    +0.000 A 
ATOM     20  C   UNL     1       7.064   5.207  14.401  0.00  0.00    +0.000 A 
BRANCH  20  21
ATOM     21  C   UNL     1       8.004   5.169  13.234  0.00  0.00    +0.000 C 
ATOM     22  O   UNL     1       9.007   5.865  13.191  0.00  0.00    +0.000 OA
BRANCH  21  23
ATOM     23  O   UNL     1       7.658   4.350  12.227  0.00  0.00    +0.000 OA
ATOM     24  H   UNL     1       8.364   4.235  11.558  0.00  0.00    +0.000 HD
ENDBRANCH  21  23
ENDBRANCH  20  21
BRANCH  15  25
ATOM     25  O   UNL     1       5.582   3.578  13.485  0.00  0.00    +0.000 OA
BRANCH  25  27
ATOM     26  C   UNL     1       4.470   3.038  11.446  0.00  0.00    +0.000 C 
ATOM     27  C   UNL     1       4.565   4.037  12.582  0.00  0.00    +0.000 C 
ENDBRANCH  25  27
ENDBRANCH  15  25
ENDBRANCH   1  17
BRANCH   4  28
ATOM     28  C   UNL     1       2.027   4.694  20.094  0.00  0.00    +0.000 C 
ATOM     29  C   UNL     1       1.622   3.662  19.039  0.00  0.00    +0.000 C 
ATOM     30  C   UNL     1       0.740   2.681  19.793  0.00  0.00    +0.000 C 
ATOM     31  C   UNL     1       1.247   2.673  21.230  0.00  0.00    +0.000 C 
ATOM     32  C   UNL     1       2.208   3.852  21.367  0.00  0.00    +0.000 C 
ENDBRANCH   4  28
TORSDOF 8
ENDMDL
MODEL 6
REMARK VINA RESULT:      -7.6      3.135      5.208
REMARK  Name = 
REMARK  9 active torsions:
REMARK  status: ('A' for Active; 'I' for Inactive)
REMARK    1  A    between atoms: C_1  and  C_2
REMARK    2  A    between atoms: C_2  and  O_3
REMARK    3  A    between atoms: O_3  and  C_4
REMARK    4  A    between atoms: C_6  and  C_7
REMARK    5  A    between atoms: N_9  and  C_10
REMARK    6  A    between atoms: C_13  and  C_14
REMARK    7  A    between atoms: C_19  and  C_20
REMARK    8  A    between atoms: C_28  and  C_29
REMARK    9  A    between atoms: C_29  and  O_31
REMARK                            x       y       z     vdW  Elec       q    Type
REMARK                         _______ _______ _______ _____ _____    ______ ____
ROOT
ATOM      1  C   UNL     1       1.786   9.034  18.340  0.00  0.00    +0.000 C 
ATOM      2  N   UNL     1       2.291  10.210  18.155  0.00  0.00    +0.000 NA
ATOM      3  N   UNL     1       1.307  11.125  18.420  0.00  0.00    +0.000 N 
ATOM      4  C   UNL     1       0.045  10.507  18.856  0.00  0.00    +0.000 C 
ATOM      5  C   UNL     1       0.348   9.013  18.740  0.00  0.00    +0.000 C 
ENDROOT
BRANCH   3   6
ATOM      6  C   UNL     1       1.641  12.474  18.491  0.00  0.00    +0.000 A 
ATOM      7  C   UNL     1       0.695  13.408  18.949  0.00  0.00    +0.000 A 
ATOM      8  C   UNL     1       0.996  14.767  19.079  0.00  0.00    +0.000 A 
ATOM      9  C   UNL     1       2.265  15.238  18.733  0.00  0.00    +0.000 A 
ATOM     10  C   UNL     1       3.215  14.331  18.256  0.00  0.00    +0.000 A 
ATOM     11 CL   UNL     1       4.803  14.834  17.792  0.00  0.00    +0.000 Cl
ATOM     12  C   UNL     1       2.903  12.967  18.139  0.00  0.00    +0.000 A 
BRANCH   9  13
ATOM     13  C   UNL     1       2.549  16.634  18.881  0.00  0.00    +0.000 C 
ATOM     14  N   UNL     1       2.765  17.763  19.033  0.00  0.00    +0.000 NA
ENDBRANCH   9  13
ENDBRANCH   3   6
BRANCH   1  17
ATOM     15  C   UNL     1       4.551   6.640  17.436  0.00  0.00    +0.000 A 
ATOM     16  C   UNL     1       3.715   7.765  17.440  0.00  0.00    +0.000 A 
ATOM     17  C   UNL     1       2.544   7.771  18.200  0.00  0.00    +0.000 A 
ATOM     18  C   UNL     1       2.148   6.615  18.875  0.00  0.00    +0.000 A 
ATOM     19  C   UNL     1       2.943   5.472  18.822  0.00  0.00    +0.000 A 
ATOM     20  C   UNL     1       4.156   5.475  18.119  0.00  0.00    +0.000 A 
BRANCH  20  21
ATOM     21  C   UNL     1       4.972   4.220  18.209  0.00  0.00    +0.000 C 
ATOM     22  O   UNL     1       5.377   3.789  19.278  0.00  0.00    +0.000 OA
BRANCH  21  23
ATOM     23  O   UNL     1       5.259   3.621  17.042  0.00  0.00    +0.000 OA
ATOM     24  H   UNL     1       5.232   2.643  17.088  0.00  0.00    +0.000 HD
ENDBRANCH  21  23
ENDBRANCH  20  21
BRANCH  15  25
ATOM     25  O   UNL     1       5.763   6.633  16.791  0.00  0.00    +0.000 OA
BRANCH  25  27
ATOM     26  C   UNL     1       7.697   6.633  18.184  0.00  0.00    +0.000 C 
ATOM     27  C   UNL     1       6.764   7.493  17.355  0.00  0.00    +0.000 C 
ENDBRANCH  25  27
ENDBRANCH  15  25
ENDBRANCH   1  17
BRANCH   4  28
ATOM     28  C   UNL     1      -1.167  10.962  18.014  0.00  0.00    +0.000 C 
ATOM     29  C   UNL     1      -1.788   9.873  17.137  0.00  0.00    +0.000 C 
ATOM     30  C   UNL     1      -3.154  10.427  16.762  0.00  0.00    +0.000 C 
ATOM     31  C   UNL     1      -3.586  11.309  17.927  0.00  0.00    +0.000 C 
ATOM     32  C   UNL     1      -2.361  11.498  18.819  0.00  0.00    +0.000 C 
ENDBRANCH   4  28
TORSDOF 8
ENDMDL
MODEL 7
REMARK VINA RESULT:      -7.6      3.104      5.088
REMARK  Name = 
REMARK  9 active torsions:
REMARK  status: ('A' for Active; 'I' for Inactive)
REMARK    1  A    between atoms: C_1  and  C_2
REMARK    2  A    between atoms: C_2  and  O_3
REMARK    3  A    between atoms: O_3  and  C_4
REMARK    4  A    between atoms: C_6  and  C_7
REMARK    5  A    between atoms: N_9  and  C_10
REMARK    6  A    between atoms: C_13  and  C_14
REMARK    7  A    between atoms: C_19  and  C_20
REMARK    8  A    between atoms: C_28  and  C_29
REMARK    9  A    between atoms: C_29  and  O_31
REMARK                            x       y       z     vdW  Elec       q    Type
REMARK                         _______ _______ _______ _____ _____    ______ ____
ROOT
ATOM      1  C   UNL     1       1.660   9.124  18.605  0.00  0.00    +0.000 C 
ATOM      2  N   UNL     1       2.162  10.298  18.400  0.00  0.00    +0.000 NA
ATOM      3  N   UNL     1       1.145  11.206  18.531  0.00  0.00    +0.000 N 
ATOM      4  C   UNL     1      -0.140  10.588  18.891  0.00  0.00    +0.000 C 
ATOM      5  C   UNL     1       0.193   9.097  18.881  0.00  0.00    +0.000 C 
ENDROOT
BRANCH   3   6
ATOM      6  C   UNL     1       1.453  12.564  18.557  0.00  0.00    +0.000 A 
ATOM      7  C   UNL     1       0.497  13.491  19.008  0.00  0.00    +0.000 A 
ATOM      8  C   UNL     1       0.771  14.859  19.094  0.00  0.00    +0.000 A 
ATOM      9  C   UNL     1       2.023  15.346  18.710  0.00  0.00    +0.000 A 
ATOM     10  C   UNL     1       2.983  14.445  18.241  0.00  0.00    +0.000 A 
ATOM     11 CL   UNL     1       4.552  14.966  17.732  0.00  0.00    +0.000 Cl
ATOM     12  C   UNL     1       2.698  13.072  18.168  0.00  0.00    +0.000 A 
BRANCH   9  13
ATOM     13  C   UNL     1       2.281  16.750  18.814  0.00  0.00    +0.000 C 
ATOM     14  N   UNL     1       2.521  17.884  18.879  0.00  0.00    +0.000 NA
ENDBRANCH   9  13
ENDBRANCH   3   6
BRANCH   1  17
ATOM     15  C   UNL     1       4.360   6.637  17.759  0.00  0.00    +0.000 A 
ATOM     16  C   UNL     1       3.483   7.726  17.675  0.00  0.00    +0.000 A 
ATOM     17  C   UNL     1       2.445   7.870  18.598  0.00  0.00    +0.000 A 
ATOM     18  C   UNL     1       2.213   6.869  19.543  0.00  0.00    +0.000 A 
ATOM     19  C   UNL     1       3.043   5.752  19.591  0.00  0.00    +0.000 A 
ATOM     20  C   UNL     1       4.131   5.629  18.715  0.00  0.00    +0.000 A 
BRANCH  20  21
ATOM     21  C   UNL     1       5.009   4.431  18.919  0.00  0.00    +0.000 C 
ATOM     22  O   UNL     1       4.546   3.308  19.051  0.00  0.00    +0.000 OA
BRANCH  21  23
ATOM     23  O   UNL     1       6.328   4.673  18.984  0.00  0.00    +0.000 OA
ATOM     24  H   UNL     1       6.685   5.105  18.181  0.00  0.00    +0.000 HD
ENDBRANCH  21  23
ENDBRANCH  20  21
BRANCH  15  25
ATOM     25  O   UNL     1       5.456   6.516  16.942  0.00  0.00    +0.000 OA
BRANCH  25  27
ATOM     26  C   UNL     1       5.553   4.815  15.274  0.00  0.00    +0.000 C 
ATOM     27  C   UNL     1       5.168   6.253  15.560  0.00  0.00    +0.000 C 
ENDBRANCH  25  27
ENDBRANCH  15  25
ENDBRANCH   1  17
BRANCH   4  28
ATOM     28  C   UNL     1      -1.281  10.975  17.925  0.00  0.00    +0.000 C 
ATOM     29  C   UNL     1      -1.825   9.826  17.074  0.00  0.00    +0.000 C 
ATOM     30  C   UNL     1      -3.158  10.341  16.555  0.00  0.00    +0.000 C 
ATOM     31  C   UNL     1      -3.687  11.293  17.620  0.00  0.00    +0.000 C 
ATOM     32  C   UNL     1      -2.540  11.552  18.594  0.00  0.00    +0.000 C 
ENDBRANCH   4  28
TORSDOF 8
ENDMDL
MODEL 8
REMARK VINA RESULT:      -7.5      2.183      2.735
REMARK  Name = 
REMARK  9 active torsions:
REMARK  status: ('A' for Active; 'I' for Inactive)
REMARK    1  A    between atoms: C_1  and  C_2
REMARK    2  A    between atoms: C_2  and  O_3
REMARK    3  A    between atoms: O_3  and  C_4
REMARK    4  A    between atoms: C_6  and  C_7
REMARK    5  A    between atoms: N_9  and  C_10
REMARK    6  A    between atoms: C_13  and  C_14
REMARK    7  A    between atoms: C_19  and  C_20
REMARK    8  A    between atoms: C_28  and  C_29
REMARK    9  A    between atoms: C_29  and  O_31
REMARK                            x       y       z     vdW  Elec       q    Type
REMARK                         _______ _______ _______ _____ _____    ______ ____
ROOT
ATOM      1  C   UNL     1       1.682   9.123  18.459  0.00  0.00    +0.000 C 
ATOM      2  N   UNL     1       0.400   9.167  18.627  0.00  0.00    +0.000 NA
ATOM      3  N   UNL     1      -0.001  10.452  18.378  0.00  0.00    +0.000 N 
ATOM      4  C   UNL     1       1.103  11.335  17.972  0.00  0.00    +0.000 C 
ATOM      5  C   UNL     1       2.322  10.420  18.090  0.00  0.00    +0.000 C 
ENDROOT
BRANCH   3   6
ATOM      6  C   UNL     1      -1.363  10.729  18.292  0.00  0.00    +0.000 A 
ATOM      7  C   UNL     1      -2.146  10.101  17.307  0.00  0.00    +0.000 A 
ATOM      8  C   UNL     1      -3.524  10.313  17.207  0.00  0.00    +0.000 A 
ATOM      9  C   UNL     1      -4.163  11.183  18.092  0.00  0.00    +0.000 A 
ATOM     10  C   UNL     1      -3.403  11.834  19.068  0.00  0.00    +0.000 A 
ATOM     11 CL   UNL     1      -4.113  12.938  20.193  0.00  0.00    +0.000 Cl
ATOM     12  C   UNL     1      -2.020  11.605  19.164  0.00  0.00    +0.000 A 
BRANCH   9  13
ATOM     13  C   UNL     1      -5.577  11.378  17.972  0.00  0.00    +0.000 C 
ATOM     14  N   UNL     1      -6.719  11.565  17.895  0.00  0.00    +0.000 NA
ENDBRANCH   9  13
ENDBRANCH   3   6
BRANCH   1  17
ATOM     15  C   UNL     1       2.870   5.773  19.708  0.00  0.00    +0.000 A 
ATOM     16  C   UNL     1       2.247   7.028  19.656  0.00  0.00    +0.000 A 
ATOM     17  C   UNL     1       2.497   7.895  18.591  0.00  0.00    +0.000 A 
ATOM     18  C   UNL     1       3.452   7.559  17.629  0.00  0.00    +0.000 A 
ATOM     19  C   UNL     1       4.122   6.340  17.712  0.00  0.00    +0.000 A 
ATOM     20  C   UNL     1       3.830   5.429  18.737  0.00  0.00    +0.000 A 
BRANCH  20  21
ATOM     21  C   UNL     1       4.545   4.113  18.673  0.00  0.00    +0.000 C 
ATOM     22  O   UNL     1       5.731   4.009  18.948  0.00  0.00    +0.000 OA
BRANCH  21  23
ATOM     23  O   UNL     1       3.812   3.066  18.260  0.00  0.00    +0.000 OA
ATOM     24  H   UNL     1       2.931   3.319  17.916  0.00  0.00    +0.000 HD
ENDBRANCH  21  23
ENDBRANCH  20  21
BRANCH  15  25
ATOM     25  O   UNL     1       2.569   4.849  20.677  0.00  0.00    +0.000 OA
BRANCH  25  27
ATOM     26  C   UNL     1       1.295   2.834  20.729  0.00  0.00    +0.000 C 
ATOM     27  C   UNL     1       1.225   4.346  20.652  0.00  0.00    +0.000 C 
ENDBRANCH  25  27
ENDBRANCH  15  25
ENDBRANCH   1  17
BRANCH   4  28
ATOM     28  C   UNL     1       1.199  12.611  18.837  0.00  0.00    +0.000 C 
ATOM     29  C   UNL     1       1.438  12.363  20.328  0.00  0.00    +0.000 C 
ATOM     30  C   UNL     1       1.904  13.708  20.861  0.00  0.00    +0.000 C 
ATOM     31  C   UNL     1       2.630  14.392  19.709  0.00  0.00    +0.000 C 
ATOM     32  C   UNL     1       2.324  13.584  18.450  0.00  0.00    +0.000 C 
ENDBRANCH   4  28
TORSDOF 8
ENDMDL
MODEL 9
REMARK VINA RESULT:      -7.5      2.556      3.061
REMARK  Name = 
REMARK  9 active torsions:
REMARK  status: ('A' for Active; 'I' for Inactive)
REMARK    1  A    between atoms: C_1  and  C_2
REMARK    2  A    between atoms: C_2  and  O_3
REMARK    3  A    between atoms: O_3  and  C_4
REMARK    4  A    between atoms: C_6  and  C_7
REMARK    5  A    between atoms: N_9  and  C_10
REMARK    6  A    between atoms: C_13  and  C_14
REMARK    7  A    between atoms: C_19  and  C_20
REMARK    8  A    between atoms: C_28  and  C_29
REMARK    9  A    between atoms: C_29  and  O_31
REMARK                            x       y       z     vdW  Elec       q    Type
REMARK                         _______ _______ _______ _____ _____    ______ ____
ROOT
ATOM      1  C   UNL     1       1.771   9.057  18.402  0.00  0.00    +0.000 C 
ATOM      2  N   UNL     1       0.481   9.120  18.465  0.00  0.00    +0.000 NA
ATOM      3  N   UNL     1       0.120  10.413  18.200  0.00  0.00    +0.000 N 
ATOM      4  C   UNL     1       1.267  11.284  17.898  0.00  0.00    +0.000 C 
ATOM      5  C   UNL     1       2.458  10.348  18.104  0.00  0.00    +0.000 C 
ENDROOT
BRANCH   3   6
ATOM      6  C   UNL     1      -1.226  10.713  18.007  0.00  0.00    +0.000 A 
ATOM      7  C   UNL     1      -1.951  11.367  19.018  0.00  0.00    +0.000 A 
ATOM      8  C   UNL     1      -3.292  11.727  18.855  0.00  0.00    +0.000 A 
ATOM      9  C   UNL     1      -3.958  11.423  17.665  0.00  0.00    +0.000 A 
ATOM     10  C   UNL     1      -3.263  10.755  16.654  0.00  0.00    +0.000 A 
ATOM     11 CL   UNL     1      -4.016  10.329  15.157  0.00  0.00    +0.000 Cl
ATOM     12  C   UNL     1      -1.913  10.408  16.826  0.00  0.00    +0.000 A 
BRANCH   9  13
ATOM     13  C   UNL     1      -5.330  11.808  17.522  0.00  0.00    +0.000 C 
ATOM     14  N   UNL     1      -6.446  12.112  17.440  0.00  0.00    +0.000 NA
ENDBRANCH   9  13
ENDBRANCH   3   6
BRANCH   1  17
ATOM     15  C   UNL     1       2.857   5.718  19.769  0.00  0.00    +0.000 A 
ATOM     16  C   UNL     1       2.265   6.985  19.669  0.00  0.00    +0.000 A 
ATOM     17  C   UNL     1       2.554   7.815  18.584  0.00  0.00    +0.000 A 
ATOM     18  C   UNL     1       3.519   7.428  17.651  0.00  0.00    +0.000 A 
ATOM     19  C   UNL     1       4.158   6.197  17.781  0.00  0.00    +0.000 A 
ATOM     20  C   UNL     1       3.826   5.324  18.826  0.00  0.00    +0.000 A 
BRANCH  20  21
ATOM     21  C   UNL     1       4.511   3.991  18.813  0.00  0.00    +0.000 C 
ATOM     22  O   UNL     1       5.714   3.882  18.994  0.00  0.00    +0.000 OA
BRANCH  21  23
ATOM     23  O   UNL     1       3.727   2.930  18.554  0.00  0.00    +0.000 OA
ATOM     24  H   UNL     1       3.530   2.390  19.346  0.00  0.00    +0.000 HD
ENDBRANCH  21  23
ENDBRANCH  20  21
BRANCH  15  25
ATOM     25  O   UNL     1       2.517   4.829  20.758  0.00  0.00    +0.000 OA
BRANCH  25  27
ATOM     26  C   UNL     1       1.295   2.851  21.284  0.00  0.00    +0.000 C 
ATOM     27  C   UNL     1       1.232   4.207  20.611  0.00  0.00    +0.000 C 
ENDBRANCH  25  27
ENDBRANCH  15  25
ENDBRANCH   1  17
BRANCH   4  28
ATOM     28  C   UNL     1       1.310  12.547  18.785  0.00  0.00    +0.000 C 
ATOM     29  C   UNL     1       1.396  12.278  20.288  0.00  0.00    +0.000 C 
ATOM     30  C   UNL     1       1.842  13.604  20.882  0.00  0.00    +0.000 C 
ATOM     31  C   UNL     1       2.694  14.281  19.815  0.00  0.00    +0.000 C 
ATOM     32  C   UNL     1       2.492  13.494  18.522  0.00  0.00    +0.000 C 
ENDBRANCH   4  28
TORSDOF 8
ENDMDL
