MODEL 1
REMARK VINA RESULT:      -9.2      0.000      0.000
REMARK  Name = 
REMARK  6 active torsions:
REMARK  status: ('A' for Active; 'I' for Inactive)
REMARK    1  A    between atoms: C_1  and  O_2
REMARK    2  A    between atoms: O_2  and  C_3
REMARK    3  A    between atoms: C_7  and  C_8
REMARK    4  A    between atoms: N_13  and  C_14
REMARK    5  A    between atoms: C_19  and  C_20
REMARK    6  A    between atoms: N_25  and  C_26
REMARK                            x       y       z     vdW  Elec       q    Type
REMARK                         _______ _______ _______ _____ _____    ______ ____
ROOT
ATOM      1  C   UNL     1       1.865   7.122  20.362  0.00  0.00    +0.000 A 
ATOM      2  C   UNL     1       2.097   7.490  19.036  0.00  0.00    +0.000 A 
ATOM      3  C   UNL     1       1.822   8.786  18.571  0.00  0.00    +0.000 A 
ATOM      4  C   UNL     1       1.302   9.735  19.469  0.00  0.00    +0.000 A 
ATOM      5  S   UNL     1       0.913  11.385  19.164  0.00  0.00    +0.000 S 
ATOM      6  C   UNL     1       0.471  11.670  20.792  0.00  0.00    +0.000 A 
ATOM      7  C   UNL     1       0.481  10.498  21.517  0.00  0.00    +0.000 A 
ATOM      8  C   UNL     1       1.036   9.398  20.793  0.00  0.00    +0.000 A 
ATOM      9  C   UNL     1       1.328   8.087  21.224  0.00  0.00    +0.000 A 
ENDROOT
BRANCH   6  10
ATOM     10  C   UNL     1       0.100  13.012  21.220  0.00  0.00    +0.000 C 
ATOM     11  O   UNL     1       0.914  13.782  21.734  0.00  0.00    +0.000 OA
ATOM     12  N   UNL     1      -1.234  13.421  21.012  0.00  0.00    +0.000 N 
ATOM     13  C   UNL     1      -1.561  14.780  21.452  0.00  0.00    +0.000 C 
ATOM     14  C   UNL     1      -2.895  15.299  20.883  0.00  0.00    +0.000 C 
ATOM     15  N   UNL     1      -4.039  14.373  21.014  0.00  0.00    +0.000 NA
ATOM     16  C   UNL     1      -4.504  14.276  22.397  0.00  0.00    +0.000 C 
ATOM     17  C   UNL     1      -3.655  13.055  20.477  0.00  0.00    +0.000 C 
ATOM     18  C   UNL     1      -2.360  12.476  21.075  0.00  0.00    +0.000 C 
ENDBRANCH   6  10
BRANCH   1  24
ATOM     19  C   UNL     1       4.362   4.044  18.615  0.00  0.00    +0.000 A 
ATOM     20  C   UNL     1       4.279   2.762  19.111  0.00  0.00    +0.000 A 
ATOM     21  C   UNL     1       3.415   2.572  20.163  0.00  0.00    +0.000 A 
ATOM     22  N   UNL     1       2.680   3.556  20.714  0.00  0.00    +0.000 NA
ATOM     23  C   UNL     1       2.807   4.776  20.176  0.00  0.00    +0.000 A 
ATOM     24  N   UNL     1       2.069   5.799  20.767  0.00  0.00    +0.000 N 
ATOM     25  N   UNL     1       3.625   5.042  19.147  0.00  0.00    +0.000 NA
ATOM     26  H   UNL     1       1.619   5.480  21.611  0.00  0.00    +0.000 HD
BRANCH  19  31
ATOM     27  C   UNL     1       6.925   5.789  16.428  0.00  0.00    +0.000 A 
ATOM     28  C   UNL     1       6.807   5.014  15.284  0.00  0.00    +0.000 A 
ATOM     29  C   UNL     1       5.913   3.959  15.304  0.00  0.00    +0.000 A 
ATOM     30  N   UNL     1       5.132   3.645  16.360  0.00  0.00    +0.000 NA
ATOM     31  C   UNL     1       5.245   4.409  17.480  0.00  0.00    +0.000 A 
ATOM     32  C   UNL     1       6.138   5.479  17.538  0.00  0.00    +0.000 A 
BRANCH  27  34
ATOM     33  C   UNL     1       7.607   7.625  17.781  0.00  0.00    +0.000 C 
ATOM     34  O   UNL     1       7.757   6.862  16.587  0.00  0.00    +0.000 OA
ENDBRANCH  27  34
ENDBRANCH  19  31
ENDBRANCH   1  24
TORSDOF 4
ENDMDL
MODEL 2
REMARK VINA RESULT:      -9.2      1.082      1.524
REMARK  Name = 
REMARK  6 active torsions:
REMARK  status: ('A' for Active; 'I' for Inactive)
REMARK    1  A    between atoms: C_1  and  O_2
REMARK    2  A    between atoms: O_2  and  C_3
REMARK    3  A    between atoms: C_7  and  C_8
REMARK    4  A    between atoms: N_13  and  C_14
REMARK    5  A    between atoms: C_19  and  C_20
REMARK    6  A    between atoms: N_25  and  C_26
REMARK                            x       y       z     vdW  Elec       q    Type
REMARK                         _______ _______ _______ _____ _____    ______ ____
ROOT
ATOM      1  C   UNL     1       1.778   7.051  20.552  0.00  0.00    +0.000 A 
ATOM      2  C   UNL     1       2.027   7.357  19.214  0.00  0.00    +0.000 A 
ATOM      3  C   UNL     1       1.807   8.645  18.698  0.00  0.00    +0.000 A 
ATOM      4  C   UNL     1       1.324   9.648  19.557  0.00  0.00    +0.000 A 
ATOM      5  S   UNL     1       1.002  11.300  19.187  0.00  0.00    +0.000 S 
ATOM      6  C   UNL     1       0.568  11.665  20.801  0.00  0.00    +0.000 A 
ATOM      7  C   UNL     1       0.530  10.522  21.571  0.00  0.00    +0.000 A 
ATOM      8  C   UNL     1       1.041   9.374  20.892  0.00  0.00    +0.000 A 
ATOM      9  C   UNL     1       1.280   8.070  21.374  0.00  0.00    +0.000 A 
ENDROOT
BRANCH   6  10
ATOM     10  C   UNL     1       0.251  13.036  21.177  0.00  0.00    +0.000 C 
ATOM     11  O   UNL     1       1.102  13.801  21.635  0.00  0.00    +0.000 OA
ATOM     12  N   UNL     1      -1.073  13.479  20.982  0.00  0.00    +0.000 N 
ATOM     13  C   UNL     1      -1.346  14.866  21.367  0.00  0.00    +0.000 C 
ATOM     14  C   UNL     1      -2.677  15.403  20.806  0.00  0.00    +0.000 C 
ATOM     15  N   UNL     1      -3.846  14.522  21.007  0.00  0.00    +0.000 NA
ATOM     16  C   UNL     1      -4.279  14.502  22.403  0.00  0.00    +0.000 C 
ATOM     17  C   UNL     1      -3.518  13.169  20.521  0.00  0.00    +0.000 C 
ATOM     18  C   UNL     1      -2.227  12.575  21.115  0.00  0.00    +0.000 C 
ENDBRANCH   6  10
BRANCH   1  24
ATOM     19  C   UNL     1       4.309   3.870  19.056  0.00  0.00    +0.000 A 
ATOM     20  C   UNL     1       4.167   2.605  19.583  0.00  0.00    +0.000 A 
ATOM     21  C   UNL     1       3.236   2.466  20.585  0.00  0.00    +0.000 A 
ATOM     22  N   UNL     1       2.491   3.482  21.060  0.00  0.00    +0.000 NA
ATOM     23  C   UNL     1       2.678   4.681  20.494  0.00  0.00    +0.000 A 
ATOM     24  N   UNL     1       1.928   5.737  21.008  0.00  0.00    +0.000 N 
ATOM     25  N   UNL     1       3.563   4.899  19.511  0.00  0.00    +0.000 NA
ATOM     26  H   UNL     1       1.420   5.454  21.831  0.00  0.00    +0.000 HD
BRANCH  19  31
ATOM     27  C   UNL     1       5.856   4.444  15.639  0.00  0.00    +0.000 A 
ATOM     28  C   UNL     1       7.154   4.738  16.028  0.00  0.00    +0.000 A 
ATOM     29  C   UNL     1       7.440   4.748  17.382  0.00  0.00    +0.000 A 
ATOM     30  N   UNL     1       6.540   4.473  18.349  0.00  0.00    +0.000 NA
ATOM     31  C   UNL     1       5.267   4.181  17.967  0.00  0.00    +0.000 A 
ATOM     32  C   UNL     1       4.903   4.167  16.620  0.00  0.00    +0.000 A 
BRANCH  27  34
ATOM     33  C   UNL     1       6.274   3.842  13.374  0.00  0.00    +0.000 C 
ATOM     34  O   UNL     1       5.397   4.394  14.352  0.00  0.00    +0.000 OA
ENDBRANCH  27  34
ENDBRANCH  19  31
ENDBRANCH   1  24
TORSDOF 4
ENDMDL
MODEL 3
REMARK VINA RESULT:      -9.1      2.089      3.137
REMARK  Name = 
REMARK  6 active torsions:
REMARK  status: ('A' for Active; 'I' for Inactive)
REMARK    1  A    between atoms: C_1  and  O_2
REMARK    2  A    between atoms: O_2  and  C_3
REMARK    3  A    between atoms: C_7  and  C_8
REMARK    4  A    between atoms: N_13  and  C_14
REMARK    5  A    between atoms: C_19  and  C_20
REMARK    6  A    between atoms: N_25  and  C_26
REMARK                            x       y       z     vdW  Elec       q    Type
REMARK                         _______ _______ _______ _____ _____    ______ ____
ROOT
ATOM      1  C   UNL     1       1.762   7.200  20.437  0.00  0.00    +0.000 A 
ATOM      2  C   UNL     1       2.095   7.439  19.103  0.00  0.00    +0.000 A 
ATOM      3  C   UNL     1       1.886   8.692  18.504  0.00  0.00    +0.000 A 
ATOM      4  C   UNL     1       1.330   9.730  19.273  0.00  0.00    +0.000 A 
ATOM      5  S   UNL     1       1.005  11.352  18.793  0.00  0.00    +0.000 S 
ATOM      6  C   UNL     1       0.458  11.794  20.352  0.00  0.00    +0.000 A 
ATOM      7  C   UNL     1       0.388  10.694  21.180  0.00  0.00    +0.000 A 
ATOM      8  C   UNL     1       0.964   9.522  20.600  0.00  0.00    +0.000 A 
ATOM      9  C   UNL     1       1.192   8.251  21.168  0.00  0.00    +0.000 A 
ENDROOT
BRANCH   6  10
ATOM     10  C   UNL     1       0.092  13.177  20.630  0.00  0.00    +0.000 C 
ATOM     11  O   UNL     1      -1.038  13.611  20.402  0.00  0.00    +0.000 OA
ATOM     12  N   UNL     1       1.078  14.015  21.192  0.00  0.00    +0.000 N 
ATOM     13  C   UNL     1       0.665  15.395  21.460  0.00  0.00    +0.000 C 
ATOM     14  C   UNL     1       1.635  16.149  22.390  0.00  0.00    +0.000 C 
ATOM     15  N   UNL     1       3.063  16.049  22.027  0.00  0.00    +0.000 NA
ATOM     16  C   UNL     1       3.377  16.830  20.831  0.00  0.00    +0.000 C 
ATOM     17  C   UNL     1       3.417  14.628  21.854  0.00  0.00    +0.000 C 
ATOM     18  C   UNL     1       2.507  13.859  20.877  0.00  0.00    +0.000 C 
ENDBRANCH   6  10
BRANCH   1  24
ATOM     19  C   UNL     1       4.275   3.918  19.141  0.00  0.00    +0.000 A 
ATOM     20  C   UNL     1       4.125   2.690  19.746  0.00  0.00    +0.000 A 
ATOM     21  C   UNL     1       3.193   2.618  20.754  0.00  0.00    +0.000 A 
ATOM     22  N   UNL     1       2.454   3.665  21.165  0.00  0.00    +0.000 NA
ATOM     23  C   UNL     1       2.648   4.826  20.526  0.00  0.00    +0.000 A 
ATOM     24  N   UNL     1       1.904   5.916  20.973  0.00  0.00    +0.000 N 
ATOM     25  N   UNL     1       3.534   4.977  19.531  0.00  0.00    +0.000 NA
ATOM     26  H   UNL     1       1.395   5.688  21.812  0.00  0.00    +0.000 HD
BRANCH  19  31
ATOM     27  C   UNL     1       5.823   4.282  15.696  0.00  0.00    +0.000 A 
ATOM     28  C   UNL     1       7.125   4.580  16.067  0.00  0.00    +0.000 A 
ATOM     29  C   UNL     1       7.414   4.661  17.418  0.00  0.00    +0.000 A 
ATOM     30  N   UNL     1       6.512   4.452  18.400  0.00  0.00    +0.000 NA
ATOM     31  C   UNL     1       5.235   4.155  18.036  0.00  0.00    +0.000 A 
ATOM     32  C   UNL     1       4.868   4.072  16.692  0.00  0.00    +0.000 A 
BRANCH  27  34
ATOM     33  C   UNL     1       6.319   3.849  13.409  0.00  0.00    +0.000 C 
ATOM     34  O   UNL     1       5.361   4.167  14.415  0.00  0.00    +0.000 OA
ENDBRANCH  27  34
ENDBRANCH  19  31
ENDBRANCH   1  24
TORSDOF 4
ENDMDL
MODEL 4
REMARK VINA RESULT:      -9.0      1.684      2.619
REMARK  Name = 
REMARK  6 active torsions:
REMARK  status: ('A' for Active; 'I' for Inactive)
REMARK    1  A    between atoms: C_1  and  O_2
REMARK    2  A    between atoms: O_2  and  C_3
REMARK    3  A    between atoms: C_7  and  C_8
REMARK    4  A    between atoms: N_13  and  C_14
REMARK    5  A    between atoms: C_19  and  C_20
REMARK    6  A    between atoms: N_25  and  C_26
REMARK                            x       y       z     vdW  Elec       q    Type
REMARK                         _______ _______ _______ _____ _____    ______ ____
ROOT
ATOM      1  C   UNL     1       1.840   7.240  20.316  0.00  0.00    +0.000 A 
ATOM      2  C   UNL     1       2.146   7.555  18.992  0.00  0.00    +0.000 A 
ATOM      3  C   UNL     1       1.865   8.821  18.451  0.00  0.00    +0.000 A 
ATOM      4  C   UNL     1       1.264   9.793  19.271  0.00  0.00    +0.000 A 
ATOM      5  S   UNL     1       0.849  11.415  18.867  0.00  0.00    +0.000 S 
ATOM      6  C   UNL     1       0.297  11.758  20.449  0.00  0.00    +0.000 A 
ATOM      7  C   UNL     1       0.294  10.620  21.227  0.00  0.00    +0.000 A 
ATOM      8  C   UNL     1       0.923   9.507  20.590  0.00  0.00    +0.000 A 
ATOM      9  C   UNL     1       1.224   8.226  21.098  0.00  0.00    +0.000 A 
ENDROOT
BRANCH   6  10
ATOM     10  C   UNL     1      -0.137  13.106  20.792  0.00  0.00    +0.000 C 
ATOM     11  O   UNL     1      -1.307  13.468  20.658  0.00  0.00    +0.000 OA
ATOM     12  N   UNL     1       0.830  13.995  21.305  0.00  0.00    +0.000 N 
ATOM     13  C   UNL     1       0.348  15.337  21.642  0.00  0.00    +0.000 C 
ATOM     14  C   UNL     1       1.331  16.133  22.521  0.00  0.00    +0.000 C 
ATOM     15  N   UNL     1       2.733  16.138  22.054  0.00  0.00    +0.000 NA
ATOM     16  C   UNL     1       2.907  16.967  20.863  0.00  0.00    +0.000 C 
ATOM     17  C   UNL     1       3.165  14.748  21.816  0.00  0.00    +0.000 C 
ATOM     18  C   UNL     1       2.239  13.944  20.885  0.00  0.00    +0.000 C 
ENDBRANCH   6  10
BRANCH   1  24
ATOM     19  C   UNL     1       4.370   4.093  18.747  0.00  0.00    +0.000 A 
ATOM     20  C   UNL     1       4.297   2.839  19.312  0.00  0.00    +0.000 A 
ATOM     21  C   UNL     1       3.431   2.700  20.371  0.00  0.00    +0.000 A 
ATOM     22  N   UNL     1       2.685   3.706  20.865  0.00  0.00    +0.000 NA
ATOM     23  C   UNL     1       2.804   4.895  20.261  0.00  0.00    +0.000 A 
ATOM     24  N   UNL     1       2.055   5.943  20.794  0.00  0.00    +0.000 N 
ATOM     25  N   UNL     1       3.623   5.112  19.222  0.00  0.00    +0.000 NA
ATOM     26  H   UNL     1       1.605   5.666  21.652  0.00  0.00    +0.000 HD
BRANCH  19  31
ATOM     27  C   UNL     1       6.886   5.768  16.453  0.00  0.00    +0.000 A 
ATOM     28  C   UNL     1       6.822   4.896  15.377  0.00  0.00    +0.000 A 
ATOM     29  C   UNL     1       5.975   3.807  15.473  0.00  0.00    +0.000 A 
ATOM     30  N   UNL     1       5.193   3.546  16.542  0.00  0.00    +0.000 NA
ATOM     31  C   UNL     1       5.254   4.403  17.597  0.00  0.00    +0.000 A 
ATOM     32  C   UNL     1       6.097   5.515  17.576  0.00  0.00    +0.000 A 
BRANCH  27  34
ATOM     33  C   UNL     1       7.701   7.564  17.787  0.00  0.00    +0.000 C 
ATOM     34  O   UNL     1       7.668   6.887  16.533  0.00  0.00    +0.000 OA
ENDBRANCH  27  34
ENDBRANCH  19  31
ENDBRANCH   1  24
TORSDOF 4
ENDMDL
MODEL 5
REMARK VINA RESULT:      -8.7      1.112      1.206
REMARK  Name = 
REMARK  6 active torsions:
REMARK  status: ('A' for Active; 'I' for Inactive)
REMARK    1  A    between atoms: C_1  and  O_2
REMARK    2  A    between atoms: O_2  and  C_3
REMARK    3  A    between atoms: C_7  and  C_8
REMARK    4  A    between atoms: N_13  and  C_14
REMARK    5  A    between atoms: C_19  and  C_20
REMARK    6  A    between atoms: N_25  and  C_26
REMARK                            x       y       z     vdW  Elec       q    Type
REMARK                         _______ _______ _______ _____ _____    ______ ____
ROOT
ATOM      1  C   UNL     1       1.732   7.346  20.289  0.00  0.00    +0.000 A 
ATOM      2  C   UNL     1       2.249   7.702  19.043  0.00  0.00    +0.000 A 
ATOM      3  C   UNL     1       1.947   8.936  18.444  0.00  0.00    +0.000 A 
ATOM      4  C   UNL     1       1.103   9.833  19.123  0.00  0.00    +0.000 A 
ATOM      5  S   UNL     1       0.607  11.407  18.628  0.00  0.00    +0.000 S 
ATOM      6  C   UNL     1      -0.268  11.678  20.073  0.00  0.00    +0.000 A 
ATOM      7  C   UNL     1      -0.302  10.539  20.849  0.00  0.00    +0.000 A 
ATOM      8  C   UNL     1       0.550   9.503  20.357  0.00  0.00    +0.000 A 
ATOM      9  C   UNL     1       0.879   8.256  20.928  0.00  0.00    +0.000 A 
ENDROOT
BRANCH   6  10
ATOM     10  C   UNL     1      -0.897  12.971  20.311  0.00  0.00    +0.000 C 
ATOM     11  O   UNL     1      -0.640  13.958  19.620  0.00  0.00    +0.000 OA
ATOM     12  N   UNL     1      -1.835  13.060  21.360  0.00  0.00    +0.000 N 
ATOM     13  C   UNL     1      -2.447  14.376  21.559  0.00  0.00    +0.000 C 
ATOM     14  C   UNL     1      -3.703  14.334  22.450  0.00  0.00    +0.000 C 
ATOM     15  N   UNL     1      -3.554  13.585  23.715  0.00  0.00    +0.000 NA
ATOM     16  C   UNL     1      -2.721  14.303  24.678  0.00  0.00    +0.000 C 
ATOM     17  C   UNL     1      -3.011  12.246  23.419  0.00  0.00    +0.000 C 
ATOM     18  C   UNL     1      -1.715  12.255  22.586  0.00  0.00    +0.000 C 
ENDBRANCH   6  10
BRANCH   1  24
ATOM     19  C   UNL     1       4.326   4.206  18.815  0.00  0.00    +0.000 A 
ATOM     20  C   UNL     1       4.291   2.974  19.428  0.00  0.00    +0.000 A 
ATOM     21  C   UNL     1       3.440   2.854  20.501  0.00  0.00    +0.000 A 
ATOM     22  N   UNL     1       2.673   3.859  20.964  0.00  0.00    +0.000 NA
ATOM     23  C   UNL     1       2.755   5.027  20.314  0.00  0.00    +0.000 A 
ATOM     24  N   UNL     1       1.985   6.074  20.814  0.00  0.00    +0.000 N 
ATOM     25  N   UNL     1       3.557   5.224  19.258  0.00  0.00    +0.000 NA
ATOM     26  H   UNL     1       1.551   5.820  21.687  0.00  0.00    +0.000 HD
BRANCH  19  31
ATOM     27  C   UNL     1       6.889   5.769  16.493  0.00  0.00    +0.000 A 
ATOM     28  C   UNL     1       6.710   4.955  15.384  0.00  0.00    +0.000 A 
ATOM     29  C   UNL     1       5.778   3.937  15.469  0.00  0.00    +0.000 A 
ATOM     30  N   UNL     1       5.017   3.694  16.557  0.00  0.00    +0.000 NA
ATOM     31  C   UNL     1       5.190   4.494  17.643  0.00  0.00    +0.000 A 
ATOM     32  C   UNL     1       6.123   5.531  17.635  0.00  0.00    +0.000 A 
BRANCH  27  34
ATOM     33  C   UNL     1       7.533   7.759  17.629  0.00  0.00    +0.000 C 
ATOM     34  O   UNL     1       7.765   6.814  16.588  0.00  0.00    +0.000 OA
ENDBRANCH  27  34
ENDBRANCH  19  31
ENDBRANCH   1  24
TORSDOF 4
ENDMDL
MODEL 6
REMARK VINA RESULT:      -8.6      1.149      1.620
REMARK  Name = 
REMARK  6 active torsions:
REMARK  status: ('A' for Active; 'I' for Inactive)
REMARK    1  A    between atoms: C_1  and  O_2
REMARK    2  A    between atoms: O_2  and  C_3
REMARK    3  A    between atoms: C_7  and  C_8
REMARK    4  A    between atoms: N_13  and  C_14
REMARK    5  A    between atoms: C_19  and  C_20
REMARK    6  A    between atoms: N_25  and  C_26
REMARK                            x       y       z     vdW  Elec       q    Type
REMARK                         _______ _______ _______ _____ _____    ______ ____
ROOT
ATOM      1  C   UNL     1       1.296   7.433  20.708  0.00  0.00    +0.000 A 
ATOM      2  C   UNL     1       1.698   7.904  19.459  0.00  0.00    +0.000 A 
ATOM      3  C   UNL     1       1.531   9.249  19.088  0.00  0.00    +0.000 A 
ATOM      4  C   UNL     1       0.945  10.139  20.005  0.00  0.00    +0.000 A 
ATOM      5  S   UNL     1       0.659  11.827  19.814  0.00  0.00    +0.000 S 
ATOM      6  C   UNL     1       0.037  11.988  21.400  0.00  0.00    +0.000 A 
ATOM      7  C   UNL     1      -0.084  10.757  22.008  0.00  0.00    +0.000 A 
ATOM      8  C   UNL     1       0.510   9.700  21.253  0.00  0.00    +0.000 A 
ATOM      9  C   UNL     1       0.699   8.343  21.590  0.00  0.00    +0.000 A 
ENDROOT
BRANCH   6  10
ATOM     10  C   UNL     1      -0.330  13.303  21.907  0.00  0.00    +0.000 C 
ATOM     11  O   UNL     1       0.475  14.022  22.501  0.00  0.00    +0.000 OA
ATOM     12  N   UNL     1      -1.649  13.748  21.680  0.00  0.00    +0.000 N 
ATOM     13  C   UNL     1      -1.973  15.078  22.201  0.00  0.00    +0.000 C 
ATOM     14  C   UNL     1      -3.278  15.657  21.622  0.00  0.00    +0.000 C 
ATOM     15  N   UNL     1      -4.439  14.745  21.648  0.00  0.00    +0.000 NA
ATOM     16  C   UNL     1      -4.956  14.560  23.003  0.00  0.00    +0.000 C 
ATOM     17  C   UNL     1      -4.054  13.460  21.035  0.00  0.00    +0.000 C 
ATOM     18  C   UNL     1      -2.790  12.819  21.637  0.00  0.00    +0.000 C 
ENDBRANCH   6  10
BRANCH   1  24
ATOM     19  C   UNL     1       4.328   4.563  19.551  0.00  0.00    +0.000 A 
ATOM     20  C   UNL     1       4.129   3.233  19.846  0.00  0.00    +0.000 A 
ATOM     21  C   UNL     1       2.974   2.928  20.527  0.00  0.00    +0.000 A 
ATOM     22  N   UNL     1       2.067   3.845  20.910  0.00  0.00    +0.000 NA
ATOM     23  C   UNL     1       2.324   5.118  20.583  0.00  0.00    +0.000 A 
ATOM     24  N   UNL     1       1.400   6.070  21.008  0.00  0.00    +0.000 N 
ATOM     25  N   UNL     1       3.425   5.497  19.918  0.00  0.00    +0.000 NA
ATOM     26  H   UNL     1       0.709   5.659  21.616  0.00  0.00    +0.000 HD
BRANCH  19  31
ATOM     27  C   UNL     1       6.724   5.584  16.791  0.00  0.00    +0.000 A 
ATOM     28  C   UNL     1       7.818   5.939  17.566  0.00  0.00    +0.000 A 
ATOM     29  C   UNL     1       7.700   5.840  18.941  0.00  0.00    +0.000 A 
ATOM     30  N   UNL     1       6.593   5.404  19.578  0.00  0.00    +0.000 NA
ATOM     31  C   UNL     1       5.521   5.052  18.818  0.00  0.00    +0.000 A 
ATOM     32  C   UNL     1       5.563   5.140  17.426  0.00  0.00    +0.000 A 
BRANCH  27  34
ATOM     33  C   UNL     1       5.576   4.936  14.809  0.00  0.00    +0.000 C 
ATOM     34  O   UNL     1       6.661   5.624  15.426  0.00  0.00    +0.000 OA
ENDBRANCH  27  34
ENDBRANCH  19  31
ENDBRANCH   1  24
TORSDOF 4
ENDMDL
MODEL 7
REMARK VINA RESULT:      -8.5      1.382      1.774
REMARK  Name = 
REMARK  6 active torsions:
REMARK  status: ('A' for Active; 'I' for Inactive)
REMARK    1  A    between atoms: C_1  and  O_2
REMARK    2  A    between atoms: O_2  and  C_3
REMARK    3  A    between atoms: C_7  and  C_8
REMARK    4  A    between atoms: N_13  and  C_14
REMARK    5  A    between atoms: C_19  and  C_20
REMARK    6  A    between atoms: N_25  and  C_26
REMARK                            x       y       z     vdW  Elec       q    Type
REMARK                         _______ _______ _______ _____ _____    ______ ____
ROOT
ATOM      1  C   UNL     1       1.498   7.638  20.755  0.00  0.00    +0.000 A 
ATOM      2  C   UNL     1       1.724   8.069  19.447  0.00  0.00    +0.000 A 
ATOM      3  C   UNL     1       1.377   9.363  19.026  0.00  0.00    +0.000 A 
ATOM      4  C   UNL     1       0.791  10.245  19.951  0.00  0.00    +0.000 A 
ATOM      5  S   UNL     1       0.307  11.880  19.702  0.00  0.00    +0.000 S 
ATOM      6  C   UNL     1      -0.172  12.076  21.333  0.00  0.00    +0.000 A 
ATOM      7  C   UNL     1      -0.100  10.880  22.014  0.00  0.00    +0.000 A 
ATOM      8  C   UNL     1       0.529   9.843  21.258  0.00  0.00    +0.000 A 
ATOM      9  C   UNL     1       0.895   8.537  21.645  0.00  0.00    +0.000 A 
ENDROOT
BRANCH   6  10
ATOM     10  C   UNL     1      -0.628  13.376  21.806  0.00  0.00    +0.000 C 
ATOM     11  O   UNL     1       0.084  14.104  22.500  0.00  0.00    +0.000 OA
ATOM     12  N   UNL     1      -1.920  13.794  21.427  0.00  0.00    +0.000 N 
ATOM     13  C   UNL     1      -2.335  15.110  21.919  0.00  0.00    +0.000 C 
ATOM     14  C   UNL     1      -3.575  15.668  21.194  0.00  0.00    +0.000 C 
ATOM     15  N   UNL     1      -4.709  14.729  21.071  0.00  0.00    +0.000 NA
ATOM     16  C   UNL     1      -5.380  14.516  22.353  0.00  0.00    +0.000 C 
ATOM     17  C   UNL     1      -4.223  13.461  20.495  0.00  0.00    +0.000 C 
ATOM     18  C   UNL     1      -3.025  12.841  21.239  0.00  0.00    +0.000 C 
ENDBRANCH   6  10
BRANCH   1  24
ATOM     19  C   UNL     1       3.722   4.598  18.616  0.00  0.00    +0.000 A 
ATOM     20  C   UNL     1       3.730   3.312  19.110  0.00  0.00    +0.000 A 
ATOM     21  C   UNL     1       3.044   3.107  20.283  0.00  0.00    +0.000 A 
ATOM     22  N   UNL     1       2.394   4.080  20.949  0.00  0.00    +0.000 NA
ATOM     23  C   UNL     1       2.423   5.304  20.407  0.00  0.00    +0.000 A 
ATOM     24  N   UNL     1       1.777   6.315  21.113  0.00  0.00    +0.000 N 
ATOM     25  N   UNL     1       3.067   5.585  19.264  0.00  0.00    +0.000 NA
ATOM     26  H   UNL     1       1.468   5.987  22.015  0.00  0.00    +0.000 HD
BRANCH  19  31
ATOM     27  C   UNL     1       5.624   4.457  15.336  0.00  0.00    +0.000 A 
ATOM     28  C   UNL     1       5.709   5.815  15.069  0.00  0.00    +0.000 A 
ATOM     29  C   UNL     1       5.126   6.691  15.966  0.00  0.00    +0.000 A 
ATOM     30  N   UNL     1       4.492   6.311  17.096  0.00  0.00    +0.000 NA
ATOM     31  C   UNL     1       4.412   4.978  17.360  0.00  0.00    +0.000 A 
ATOM     32  C   UNL     1       4.965   4.036  16.492  0.00  0.00    +0.000 A 
BRANCH  27  34
ATOM     33  C   UNL     1       6.135   3.662  13.151  0.00  0.00    +0.000 C 
ATOM     34  O   UNL     1       6.137   3.454  14.561  0.00  0.00    +0.000 OA
ENDBRANCH  27  34
ENDBRANCH  19  31
ENDBRANCH   1  24
TORSDOF 4
ENDMDL
MODEL 8
REMARK VINA RESULT:      -8.5      2.639     10.856
REMARK  Name = 
REMARK  6 active torsions:
REMARK  status: ('A' for Active; 'I' for Inactive)
REMARK    1  A    between atoms: C_1  and  O_2
REMARK    2  A    between atoms: O_2  and  C_3
REMARK    3  A    between atoms: C_7  and  C_8
REMARK    4  A    between atoms: N_13  and  C_14
REMARK    5  A    between atoms: C_19  and  C_20
REMARK    6  A    between atoms: N_25  and  C_26
REMARK                            x       y       z     vdW  Elec       q    Type
REMARK                         _______ _______ _______ _____ _____    ______ ____
ROOT
ATOM      1  C   UNL     1       0.345  11.187  20.930  0.00  0.00    +0.000 A 
ATOM      2  C   UNL     1       0.466  11.661  19.623  0.00  0.00    +0.000 A 
ATOM      3  C   UNL     1       0.989  10.861  18.594  0.00  0.00    +0.000 A 
ATOM      4  C   UNL     1       1.397   9.549  18.893  0.00  0.00    +0.000 A 
ATOM      5  S   UNL     1       2.036   8.363  17.818  0.00  0.00    +0.000 S 
ATOM      6  C   UNL     1       2.125   7.175  19.046  0.00  0.00    +0.000 A 
ATOM      7  C   UNL     1       1.812   7.714  20.275  0.00  0.00    +0.000 A 
ATOM      8  C   UNL     1       1.313   9.050  20.190  0.00  0.00    +0.000 A 
ATOM      9  C   UNL     1       0.779   9.882  21.196  0.00  0.00    +0.000 A 
ENDROOT
BRANCH   6  10
ATOM     10  C   UNL     1       2.542   5.819  18.716  0.00  0.00    +0.000 C 
ATOM     11  O   UNL     1       1.982   4.830  19.193  0.00  0.00    +0.000 OA
ATOM     12  N   UNL     1       3.609   5.664  17.808  0.00  0.00    +0.000 N 
ATOM     13  C   UNL     1       3.991   4.283  17.500  0.00  0.00    +0.000 C 
ATOM     14  C   UNL     1       4.891   4.164  16.255  0.00  0.00    +0.000 C 
ATOM     15  N   UNL     1       6.042   5.088  16.219  0.00  0.00    +0.000 NA
ATOM     16  C   UNL     1       7.078   4.706  17.178  0.00  0.00    +0.000 C 
ATOM     17  C   UNL     1       5.564   6.463  16.457  0.00  0.00    +0.000 C 
ATOM     18  C   UNL     1       4.716   6.631  17.732  0.00  0.00    +0.000 C 
ENDBRANCH   6  10
BRANCH   1  24
ATOM     19  C   UNL     1      -3.600  12.830  21.640  0.00  0.00    +0.000 A 
ATOM     20  C   UNL     1      -3.756  13.777  22.627  0.00  0.00    +0.000 A 
ATOM     21  C   UNL     1      -2.626  14.103  23.340  0.00  0.00    +0.000 A 
ATOM     22  N   UNL     1      -1.420  13.547  23.125  0.00  0.00    +0.000 NA
ATOM     23  C   UNL     1      -1.342  12.638  22.145  0.00  0.00    +0.000 A 
ATOM     24  N   UNL     1      -0.099  12.041  21.945  0.00  0.00    +0.000 N 
ATOM     25  N   UNL     1      -2.395  12.268  21.402  0.00  0.00    +0.000 NA
ATOM     26  H   UNL     1       0.552  12.310  22.666  0.00  0.00    +0.000 HD
BRANCH  19  31
ATOM     27  C   UNL     1      -5.679  11.770  18.648  0.00  0.00    +0.000 A 
ATOM     28  C   UNL     1      -6.895  11.564  19.283  0.00  0.00    +0.000 A 
ATOM     29  C   UNL     1      -6.956  11.767  20.650  0.00  0.00    +0.000 A 
ATOM     30  N   UNL     1      -5.912  12.169  21.405  0.00  0.00    +0.000 NA
ATOM     31  C   UNL     1      -4.721  12.374  20.782  0.00  0.00    +0.000 A 
ATOM     32  C   UNL     1      -4.581  12.175  19.408  0.00  0.00    +0.000 A 
BRANCH  27  34
ATOM     33  C   UNL     1      -4.077  11.443  16.919  0.00  0.00    +0.000 C 
ATOM     34  O   UNL     1      -5.436  11.613  17.312  0.00  0.00    +0.000 OA
ENDBRANCH  27  34
ENDBRANCH  19  31
ENDBRANCH   1  24
TORSDOF 4
ENDMDL
MODEL 9
REMARK VINA RESULT:      -8.5      3.902      9.866
REMARK  Name = 
REMARK  6 active torsions:
REMARK  status: ('A' for Active; 'I' for Inactive)
REMARK    1  A    between atoms: C_1  and  O_2
REMARK    2  A    between atoms: O_2  and  C_3
REMARK    3  A    between atoms: C_7  and  C_8
REMARK    4  A    between atoms: N_13  and  C_14
REMARK    5  A    between atoms: C_19  and  C_20
REMARK    6  A    between atoms: N_25  and  C_26
REMARK                            x       y       z     vdW  Elec       q    Type
REMARK                         _______ _______ _______ _____ _____    ______ ____
ROOT
ATOM      1  C   UNL     1       0.777  10.919  19.242  0.00  0.00    +0.000 A 
ATOM      2  C   UNL     1       0.827  10.481  20.566  0.00  0.00    +0.000 A 
ATOM      3  C   UNL     1       1.259   9.187  20.900  0.00  0.00    +0.000 A 
ATOM      4  C   UNL     1       1.652   8.315  19.870  0.00  0.00    +0.000 A 
ATOM      5  S   UNL     1       2.246   6.703  20.010  0.00  0.00    +0.000 S 
ATOM      6  C   UNL     1       2.497   6.559  18.324  0.00  0.00    +0.000 A 
ATOM      7  C   UNL     1       2.004   7.659  17.656  0.00  0.00    +0.000 A 
ATOM      8  C   UNL     1       1.594   8.708  18.536  0.00  0.00    +0.000 A 
ATOM      9  C   UNL     1       1.158  10.017  18.240  0.00  0.00    +0.000 A 
ENDROOT
BRANCH   6  10
ATOM     10  C   UNL     1       3.114   5.356  17.781  0.00  0.00    +0.000 C 
ATOM     11  O   UNL     1       2.496   4.294  17.681  0.00  0.00    +0.000 OA
ATOM     12  N   UNL     1       4.454   5.444  17.351  0.00  0.00    +0.000 N 
ATOM     13  C   UNL     1       5.032   4.212  16.806  0.00  0.00    +0.000 C 
ATOM     14  C   UNL     1       6.341   4.447  16.029  0.00  0.00    +0.000 C 
ATOM     15  N   UNL     1       7.344   5.282  16.720  0.00  0.00    +0.000 NA
ATOM     16  C   UNL     1       7.968   4.572  17.836  0.00  0.00    +0.000 C 
ATOM     17  C   UNL     1       6.704   6.534  17.164  0.00  0.00    +0.000 C 
ATOM     18  C   UNL     1       5.427   6.334  18.003  0.00  0.00    +0.000 C 
ENDBRANCH   6  10
BRANCH   1  24
ATOM     19  C   UNL     1       2.760  14.769  19.136  0.00  0.00    +0.000 A 
ATOM     20  C   UNL     1       1.998  15.903  18.961  0.00  0.00    +0.000 A 
ATOM     21  C   UNL     1       0.647  15.707  18.798  0.00  0.00    +0.000 A 
ATOM     22  N   UNL     1       0.062  14.496  18.795  0.00  0.00    +0.000 NA
ATOM     23  C   UNL     1       0.864  13.439  18.977  0.00  0.00    +0.000 A 
ATOM     24  N   UNL     1       0.260  12.184  18.943  0.00  0.00    +0.000 N 
ATOM     25  N   UNL     1       2.190  13.545  19.146  0.00  0.00    +0.000 NA
ATOM     26  H   UNL     1      -0.706  12.254  18.665  0.00  0.00    +0.000 HD
BRANCH  19  31
ATOM     27  C   UNL     1       6.504  14.632  18.531  0.00  0.00    +0.000 A 
ATOM     28  C   UNL     1       6.947  14.880  19.821  0.00  0.00    +0.000 A 
ATOM     29  C   UNL     1       5.998  15.094  20.804  0.00  0.00    +0.000 A 
ATOM     30  N   UNL     1       4.665  15.060  20.593  0.00  0.00    +0.000 NA
ATOM     31  C   UNL     1       4.230  14.813  19.328  0.00  0.00    +0.000 A 
ATOM     32  C   UNL     1       5.131  14.603  18.283  0.00  0.00    +0.000 A 
BRANCH  27  34
ATOM     33  C   UNL     1       7.730  13.064  17.226  0.00  0.00    +0.000 C 
ATOM     34  O   UNL     1       7.296  14.404  17.441  0.00  0.00    +0.000 OA
ENDBRANCH  27  34
ENDBRANCH  19  31
ENDBRANCH   1  24
TORSDOF 4
ENDMDL
