MODEL 1
REMARK VINA RESULT:      -7.7      0.000      0.000
REMARK  Name = 
REMARK  6 active torsions:
REMARK  status: ('A' for Active; 'I' for Inactive)
REMARK    1  A    between atoms: C_1  and  C_2
REMARK    2  A    between atoms: C_2  and  C_3
REMARK    3  A    between atoms: N_17  and  C_18
REMARK    4  A    between atoms: C_18  and  C_19
REMARK    5  A    between atoms: C_18  and  C_20
REMARK    6  A    between atoms: C_20  and  C_21
REMARK                            x       y       z     vdW  Elec       q    Type
REMARK                         _______ _______ _______ _____ _____    ______ ____
ROOT
ATOM      1  C   UNL     1       2.232   5.811  19.821  0.00  0.00    +0.000 A 
ATOM      2  C   UNL     1       3.334   6.297  19.148  0.00  0.00    +0.000 A 
ATOM      3  C   UNL     1       3.798   5.326  18.231  0.00  0.00    +0.000 A 
ATOM      4  C   UNL     1       4.835   5.302  17.229  0.00  0.00    +0.000 A 
ATOM      5  C   UNL     1       5.692   6.363  16.889  0.00  0.00    +0.000 A 
ATOM      6  N   UNL     1       5.661   7.605  17.528  0.00  0.00    +0.000 N 
ATOM      7  N   UNL     1       6.618   6.279  15.923  0.00  0.00    +0.000 NA
ATOM      8  C   UNL     1       6.692   5.132  15.258  0.00  0.00    +0.000 A 
ATOM      9  N   UNL     1       7.615   5.047  14.237  0.00  0.00    +0.000 N 
ATOM     10  N   UNL     1       5.961   4.046  15.515  0.00  0.00    +0.000 NA
ATOM     11  C   UNL     1       5.043   4.137  16.487  0.00  0.00    +0.000 A 
ATOM     12  C   UNL     1       4.264   3.025  16.746  0.00  0.00    +0.000 A 
ATOM     13  C   UNL     1       3.246   3.016  17.710  0.00  0.00    +0.000 A 
ATOM     14  C   UNL     1       3.002   4.189  18.437  0.00  0.00    +0.000 A 
ATOM     15  N   UNL     1       2.047   4.498  19.408  0.00  0.00    +0.000 N 
ATOM     16  H   UNL     1       4.733   8.011  17.465  0.00  0.00    +0.000 HD
ATOM     17  H   UNL     1       6.348   8.189  17.060  0.00  0.00    +0.000 HD
ATOM     18  H   UNL     1       8.355   5.716  14.392  0.00  0.00    +0.000 HD
ATOM     19  H   UNL     1       7.878   4.084  14.090  0.00  0.00    +0.000 HD
ENDROOT
BRANCH   1  21
ATOM     20  C   UNL     1       1.540   8.078  20.623  0.00  0.00    +0.000 C 
ATOM     21  C   UNL     1       1.411   6.569  20.826  0.00  0.00    +0.000 C 
ENDBRANCH   1  21
BRANCH  15  22
ATOM     22  C   UNL     1       0.999   3.589  19.894  0.00  0.00    +0.000 C 
ATOM     23  C   UNL     1       0.622   2.516  18.864  0.00  0.00    +0.000 C 
BRANCH  22  24
ATOM     24  C   UNL     1       1.288   2.951  21.267  0.00  0.00    +0.000 C 
ATOM     25  C   UNL     1       2.750   2.581  21.480  0.00  0.00    +0.000 C 
ENDBRANCH  22  24
ENDBRANCH  15  22
TORSDOF 3
ENDMDL
MODEL 2
REMARK VINA RESULT:      -7.5      2.772      5.509
REMARK  Name = 
REMARK  6 active torsions:
REMARK  status: ('A' for Active; 'I' for Inactive)
REMARK    1  A    between atoms: C_1  and  C_2
REMARK    2  A    between atoms: C_2  and  C_3
REMARK    3  A    between atoms: N_17  and  C_18
REMARK    4  A    between atoms: C_18  and  C_19
REMARK    5  A    between atoms: C_18  and  C_20
REMARK    6  A    between atoms: C_20  and  C_21
REMARK                            x       y       z     vdW  Elec       q    Type
REMARK                         _______ _______ _______ _____ _____    ______ ____
ROOT
ATOM      1  C   UNL     1       2.530   4.671  20.501  0.00  0.00    +0.000 A 
ATOM      2  C   UNL     1       1.982   5.898  20.815  0.00  0.00    +0.000 A 
ATOM      3  C   UNL     1       2.203   6.804  19.752  0.00  0.00    +0.000 A 
ATOM      4  C   UNL     1       1.802   8.164  19.489  0.00  0.00    +0.000 A 
ATOM      5  C   UNL     1       0.994   8.970  20.310  0.00  0.00    +0.000 A 
ATOM      6  N   UNL     1       0.492   8.543  21.543  0.00  0.00    +0.000 N 
ATOM      7  N   UNL     1       0.636  10.222  19.988  0.00  0.00    +0.000 NA
ATOM      8  C   UNL     1       1.062  10.687  18.819  0.00  0.00    +0.000 A 
ATOM      9  N   UNL     1       0.668  11.960  18.461  0.00  0.00    +0.000 N 
ATOM     10  N   UNL     1       1.861  10.032  17.977  0.00  0.00    +0.000 NA
ATOM     11  C   UNL     1       2.220   8.786  18.311  0.00  0.00    +0.000 A 
ATOM     12  C   UNL     1       3.030   8.089  17.433  0.00  0.00    +0.000 A 
ATOM     13  C   UNL     1       3.435   6.766  17.657  0.00  0.00    +0.000 A 
ATOM     14  C   UNL     1       2.993   6.117  18.818  0.00  0.00    +0.000 A 
ATOM     15  N   UNL     1       3.183   4.815  19.284  0.00  0.00    +0.000 N 
ATOM     16  H   UNL     1      -0.050   7.693  21.427  0.00  0.00    +0.000 HD
ATOM     17  H   UNL     1      -0.087   9.300  21.896  0.00  0.00    +0.000 HD
ATOM     18  H   UNL     1       0.441  12.491  19.288  0.00  0.00    +0.000 HD
ATOM     19  H   UNL     1       1.336  12.357  17.817  0.00  0.00    +0.000 HD
ENDROOT
BRANCH   1  21
ATOM     20  C   UNL     1       1.118   2.702  21.125  0.00  0.00    +0.000 C 
ATOM     21  C   UNL     1       2.444   3.429  21.342  0.00  0.00    +0.000 C 
ENDBRANCH   1  21
BRANCH  15  22
ATOM     22  C   UNL     1       3.932   3.760  18.586  0.00  0.00    +0.000 C 
ATOM     23  C   UNL     1       3.116   3.096  17.468  0.00  0.00    +0.000 C 
BRANCH  22  24
ATOM     24  C   UNL     1       5.319   4.191  18.069  0.00  0.00    +0.000 C 
ATOM     25  C   UNL     1       5.495   4.030  16.566  0.00  0.00    +0.000 C 
ENDBRANCH  22  24
ENDBRANCH  15  22
TORSDOF 3
ENDMDL
MODEL 3
REMARK VINA RESULT:      -7.5      1.099      1.203
REMARK  Name = 
REMARK  6 active torsions:
REMARK  status: ('A' for Active; 'I' for Inactive)
REMARK    1  A    between atoms: C_1  and  C_2
REMARK    2  A    between atoms: C_2  and  C_3
REMARK    3  A    between atoms: N_17  and  C_18
REMARK    4  A    between atoms: C_18  and  C_19
REMARK    5  A    between atoms: C_18  and  C_20
REMARK    6  A    between atoms: C_20  and  C_21
REMARK                            x       y       z     vdW  Elec       q    Type
REMARK                         _______ _______ _______ _____ _____    ______ ____
ROOT
ATOM      1  C   UNL     1       2.539   6.660  19.313  0.00  0.00    +0.000 A 
ATOM      2  C   UNL     1       3.436   6.830  18.279  0.00  0.00    +0.000 A 
ATOM      3  C   UNL     1       3.828   5.567  17.777  0.00  0.00    +0.000 A 
ATOM      4  C   UNL     1       4.658   5.133  16.680  0.00  0.00    +0.000 A 
ATOM      5  C   UNL     1       5.314   5.960  15.751  0.00  0.00    +0.000 A 
ATOM      6  N   UNL     1       5.264   7.356  15.802  0.00  0.00    +0.000 N 
ATOM      7  N   UNL     1       6.049   5.486  14.735  0.00  0.00    +0.000 NA
ATOM      8  C   UNL     1       6.125   4.165  14.612  0.00  0.00    +0.000 A 
ATOM      9  N   UNL     1       6.847   3.666  13.549  0.00  0.00    +0.000 N 
ATOM     10  N   UNL     1       5.580   3.284  15.451  0.00  0.00    +0.000 NA
ATOM     11  C   UNL     1       4.853   3.767  16.467  0.00  0.00    +0.000 A 
ATOM     12  C   UNL     1       4.264   2.860  17.329  0.00  0.00    +0.000 A 
ATOM     13  C   UNL     1       3.450   3.249  18.402  0.00  0.00    +0.000 A 
ATOM     14  C   UNL     1       3.215   4.615  18.605  0.00  0.00    +0.000 A 
ATOM     15  N   UNL     1       2.428   5.294  19.537  0.00  0.00    +0.000 N 
ATOM     16  H   UNL     1       4.301   7.675  15.776  0.00  0.00    +0.000 HD
ATOM     17  H   UNL     1       5.783   7.694  14.996  0.00  0.00    +0.000 HD
ATOM     18  H   UNL     1       7.524   4.351  13.246  0.00  0.00    +0.000 HD
ATOM     19  H   UNL     1       7.184   2.740  13.766  0.00  0.00    +0.000 HD
ENDROOT
BRANCH   1  21
ATOM     20  C   UNL     1       1.497   8.927  19.133  0.00  0.00    +0.000 C 
ATOM     21  C   UNL     1       1.839   7.761  20.058  0.00  0.00    +0.000 C 
ENDBRANCH   1  21
BRANCH  15  22
ATOM     22  C   UNL     1       1.596   4.663  20.572  0.00  0.00    +0.000 C 
ATOM     23  C   UNL     1       0.507   3.756  19.984  0.00  0.00    +0.000 C 
BRANCH  22  24
ATOM     24  C   UNL     1       2.387   3.927  21.672  0.00  0.00    +0.000 C 
ATOM     25  C   UNL     1       1.997   2.465  21.838  0.00  0.00    +0.000 C 
ENDBRANCH  22  24
ENDBRANCH  15  22
TORSDOF 3
ENDMDL
MODEL 4
REMARK VINA RESULT:      -7.5      2.655      5.334
REMARK  Name = 
REMARK  6 active torsions:
REMARK  status: ('A' for Active; 'I' for Inactive)
REMARK    1  A    between atoms: C_1  and  C_2
REMARK    2  A    between atoms: C_2  and  C_3
REMARK    3  A    between atoms: N_17  and  C_18
REMARK    4  A    between atoms: C_18  and  C_19
REMARK    5  A    between atoms: C_18  and  C_20
REMARK    6  A    between atoms: C_20  and  C_21
REMARK                            x       y       z     vdW  Elec       q    Type
REMARK                         _______ _______ _______ _____ _____    ______ ____
ROOT
ATOM      1  C   UNL     1       0.386   8.638  21.086  0.00  0.00    +0.000 A 
ATOM      2  C   UNL     1       1.033   7.419  21.031  0.00  0.00    +0.000 A 
ATOM      3  C   UNL     1       1.876   7.379  19.897  0.00  0.00    +0.000 A 
ATOM      4  C   UNL     1       2.827   6.423  19.383  0.00  0.00    +0.000 A 
ATOM      5  C   UNL     1       3.182   5.198  19.974  0.00  0.00    +0.000 A 
ATOM      6  N   UNL     1       2.609   4.727  21.159  0.00  0.00    +0.000 N 
ATOM      7  N   UNL     1       4.099   4.370  19.454  0.00  0.00    +0.000 NA
ATOM      8  C   UNL     1       4.701   4.763  18.337  0.00  0.00    +0.000 A 
ATOM      9  N   UNL     1       5.672   3.936  17.814  0.00  0.00    +0.000 N 
ATOM     10  N   UNL     1       4.421   5.881  17.667  0.00  0.00    +0.000 NA
ATOM     11  C   UNL     1       3.499   6.699  18.190  0.00  0.00    +0.000 A 
ATOM     12  C   UNL     1       3.219   7.873  17.515  0.00  0.00    +0.000 A 
ATOM     13  C   UNL     1       2.303   8.823  17.989  0.00  0.00    +0.000 A 
ATOM     14  C   UNL     1       1.649   8.577  19.204  0.00  0.00    +0.000 A 
ATOM     15  N   UNL     1       0.740   9.339  19.941  0.00  0.00    +0.000 N 
ATOM     16  H   UNL     1       2.735   5.403  21.905  0.00  0.00    +0.000 HD
ATOM     17  H   UNL     1       3.075   3.851  21.377  0.00  0.00    +0.000 HD
ATOM     18  H   UNL     1       5.518   2.989  18.128  0.00  0.00    +0.000 HD
ATOM     19  H   UNL     1       5.757   4.091  16.820  0.00  0.00    +0.000 HD
ENDROOT
BRANCH   1  21
ATOM     20  C   UNL     1       0.238   9.537  23.415  0.00  0.00    +0.000 C 
ATOM     21  C   UNL     1      -0.539   9.092  22.178  0.00  0.00    +0.000 C 
ENDBRANCH   1  21
BRANCH  15  22
ATOM     22  C   UNL     1       0.256  10.679  19.575  0.00  0.00    +0.000 C 
ATOM     23  C   UNL     1       1.358  11.745  19.644  0.00  0.00    +0.000 C 
BRANCH  22  24
ATOM     24  C   UNL     1      -0.489  10.747  18.228  0.00  0.00    +0.000 C 
ATOM     25  C   UNL     1      -1.880  10.129  18.260  0.00  0.00    +0.000 C 
ENDBRANCH  22  24
ENDBRANCH  15  22
TORSDOF 3
ENDMDL
MODEL 5
REMARK VINA RESULT:      -7.4      3.448      6.414
REMARK  Name = 
REMARK  6 active torsions:
REMARK  status: ('A' for Active; 'I' for Inactive)
REMARK    1  A    between atoms: C_1  and  C_2
REMARK    2  A    between atoms: C_2  and  C_3
REMARK    3  A    between atoms: N_17  and  C_18
REMARK    4  A    between atoms: C_18  and  C_19
REMARK    5  A    between atoms: C_18  and  C_20
REMARK    6  A    between atoms: C_20  and  C_21
REMARK                            x       y       z     vdW  Elec       q    Type
REMARK                         _______ _______ _______ _____ _____    ______ ____
ROOT
ATOM      1  C   UNL     1       2.253   5.636  20.387  0.00  0.00    +0.000 A 
ATOM      2  C   UNL     1       1.552   6.704  20.911  0.00  0.00    +0.000 A 
ATOM      3  C   UNL     1       1.570   7.780  19.994  0.00  0.00    +0.000 A 
ATOM      4  C   UNL     1       0.959   9.086  19.963  0.00  0.00    +0.000 A 
ATOM      5  C   UNL     1       0.095   9.628  20.931  0.00  0.00    +0.000 A 
ATOM      6  N   UNL     1      -0.260   8.951  22.101  0.00  0.00    +0.000 N 
ATOM      7  N   UNL     1      -0.462  10.843  20.823  0.00  0.00    +0.000 NA
ATOM      8  C   UNL     1      -0.184  11.536  19.724  0.00  0.00    +0.000 A 
ATOM      9  N   UNL     1      -0.781  12.771  19.585  0.00  0.00    +0.000 N 
ATOM     10  N   UNL     1       0.648  11.144  18.759  0.00  0.00    +0.000 NA
ATOM     11  C   UNL     1       1.205   9.932  18.879  0.00  0.00    +0.000 A 
ATOM     12  C   UNL     1       2.051   9.507  17.871  0.00  0.00    +0.000 A 
ATOM     13  C   UNL     1       2.658   8.243  17.870  0.00  0.00    +0.000 A 
ATOM     14  C   UNL     1       2.390   7.370  18.932  0.00  0.00    +0.000 A 
ATOM     15  N   UNL     1       2.798   6.058  19.182  0.00  0.00    +0.000 N 
ATOM     16  H   UNL     1      -0.677   8.054  21.877  0.00  0.00    +0.000 HD
ATOM     17  H   UNL     1      -0.919   9.548  22.592  0.00  0.00    +0.000 HD
ATOM     18  H   UNL     1      -1.030  13.133  20.493  0.00  0.00    +0.000 HD
ATOM     19  H   UNL     1      -0.222  13.358  18.985  0.00  0.00    +0.000 HD
ENDROOT
BRANCH   1  21
ATOM     20  C   UNL     1       1.177   3.411  20.772  0.00  0.00    +0.000 C 
ATOM     21  C   UNL     1       2.402   4.286  21.028  0.00  0.00    +0.000 C 
ENDBRANCH   1  21
BRANCH  15  22
ATOM     22  C   UNL     1       3.648   5.246  18.298  0.00  0.00    +0.000 C 
ATOM     23  C   UNL     1       4.902   4.715  19.006  0.00  0.00    +0.000 C 
BRANCH  22  24
ATOM     24  C   UNL     1       2.909   4.108  17.566  0.00  0.00    +0.000 C 
ATOM     25  C   UNL     1       3.503   2.728  17.813  0.00  0.00    +0.000 C 
ENDBRANCH  22  24
ENDBRANCH  15  22
TORSDOF 3
ENDMDL
MODEL 6
REMARK VINA RESULT:      -7.3      2.712      5.464
REMARK  Name = 
REMARK  6 active torsions:
REMARK  status: ('A' for Active; 'I' for Inactive)
REMARK    1  A    between atoms: C_1  and  C_2
REMARK    2  A    between atoms: C_2  and  C_3
REMARK    3  A    between atoms: N_17  and  C_18
REMARK    4  A    between atoms: C_18  and  C_19
REMARK    5  A    between atoms: C_18  and  C_20
REMARK    6  A    between atoms: C_20  and  C_21
REMARK                            x       y       z     vdW  Elec       q    Type
REMARK                         _______ _______ _______ _____ _____    ______ ____
ROOT
ATOM      1  C   UNL     1       0.461   8.775  21.087  0.00  0.00    +0.000 A 
ATOM      2  C   UNL     1       1.049   7.526  21.061  0.00  0.00    +0.000 A 
ATOM      3  C   UNL     1       1.877   7.414  19.922  0.00  0.00    +0.000 A 
ATOM      4  C   UNL     1       2.776   6.400  19.427  0.00  0.00    +0.000 A 
ATOM      5  C   UNL     1       3.079   5.176  20.049  0.00  0.00    +0.000 A 
ATOM      6  N   UNL     1       2.496   4.766  21.252  0.00  0.00    +0.000 N 
ATOM      7  N   UNL     1       3.950   4.290  19.545  0.00  0.00    +0.000 NA
ATOM      8  C   UNL     1       4.558   4.622  18.412  0.00  0.00    +0.000 A 
ATOM      9  N   UNL     1       5.484   3.735  17.903  0.00  0.00    +0.000 N 
ATOM     10  N   UNL     1       4.325   5.734  17.713  0.00  0.00    +0.000 NA
ATOM     11  C   UNL     1       3.448   6.610  18.221  0.00  0.00    +0.000 A 
ATOM     12  C   UNL     1       3.217   7.776  17.515  0.00  0.00    +0.000 A 
ATOM     13  C   UNL     1       2.353   8.782  17.969  0.00  0.00    +0.000 A 
ATOM     14  C   UNL     1       1.701   8.601  19.196  0.00  0.00    +0.000 A 
ATOM     15  N   UNL     1       0.836   9.426  19.919  0.00  0.00    +0.000 N 
ATOM     16  H   UNL     1       2.662   5.456  21.977  0.00  0.00    +0.000 HD
ATOM     17  H   UNL     1       2.922   3.875  21.491  0.00  0.00    +0.000 HD
ATOM     18  H   UNL     1       5.288   2.807  18.246  0.00  0.00    +0.000 HD
ATOM     19  H   UNL     1       5.566   3.858  16.906  0.00  0.00    +0.000 HD
ENDROOT
BRANCH   1  21
ATOM     20  C   UNL     1       0.331   9.463  23.489  0.00  0.00    +0.000 C 
ATOM     21  C   UNL     1      -0.430   9.304  22.174  0.00  0.00    +0.000 C 
ENDBRANCH   1  21
BRANCH  15  22
ATOM     22  C   UNL     1       0.413  10.777  19.520  0.00  0.00    +0.000 C 
ATOM     23  C   UNL     1      -1.086  10.858  19.204  0.00  0.00    +0.000 C 
BRANCH  22  24
ATOM     24  C   UNL     1       0.828  11.895  20.498  0.00  0.00    +0.000 C 
ATOM     25  C   UNL     1      -0.302  12.848  20.860  0.00  0.00    +0.000 C 
ENDBRANCH  22  24
ENDBRANCH  15  22
TORSDOF 3
ENDMDL
MODEL 7
REMARK VINA RESULT:      -7.2      2.819      5.302
REMARK  Name = 
REMARK  6 active torsions:
REMARK  status: ('A' for Active; 'I' for Inactive)
REMARK    1  A    between atoms: C_1  and  C_2
REMARK    2  A    between atoms: C_2  and  C_3
REMARK    3  A    between atoms: N_17  and  C_18
REMARK    4  A    between atoms: C_18  and  C_19
REMARK    5  A    between atoms: C_18  and  C_20
REMARK    6  A    between atoms: C_20  and  C_21
REMARK                            x       y       z     vdW  Elec       q    Type
REMARK                         _______ _______ _______ _____ _____    ______ ____
ROOT
ATOM      1  C   UNL     1       2.473   4.684  20.620  0.00  0.00    +0.000 A 
ATOM      2  C   UNL     1       1.936   5.936  20.838  0.00  0.00    +0.000 A 
ATOM      3  C   UNL     1       2.245   6.784  19.750  0.00  0.00    +0.000 A 
ATOM      4  C   UNL     1       1.894   8.138  19.397  0.00  0.00    +0.000 A 
ATOM      5  C   UNL     1       1.055   9.000  20.124  0.00  0.00    +0.000 A 
ATOM      6  N   UNL     1       0.465   8.644  21.340  0.00  0.00    +0.000 N 
ATOM      7  N   UNL     1       0.748  10.241  19.720  0.00  0.00    +0.000 NA
ATOM      8  C   UNL     1       1.258  10.639  18.560  0.00  0.00    +0.000 A 
ATOM      9  N   UNL     1       0.919  11.900  18.116  0.00  0.00    +0.000 N 
ATOM     10  N   UNL     1       2.094   9.927  17.804  0.00  0.00    +0.000 NA
ATOM     11  C   UNL     1       2.401   8.692  18.219  0.00  0.00    +0.000 A 
ATOM     12  C   UNL     1       3.249   7.936  17.430  0.00  0.00    +0.000 A 
ATOM     13  C   UNL     1       3.607   6.617  17.743  0.00  0.00    +0.000 A 
ATOM     14  C   UNL     1       3.076   6.036  18.902  0.00  0.00    +0.000 A 
ATOM     15  N   UNL     1       3.205   4.755  19.442  0.00  0.00    +0.000 N 
ATOM     16  H   UNL     1      -0.088   7.801  21.231  0.00  0.00    +0.000 HD
ATOM     17  H   UNL     1      -0.117   9.429  21.619  0.00  0.00    +0.000 HD
ATOM     18  H   UNL     1       0.652  12.476  18.901  0.00  0.00    +0.000 HD
ATOM     19  H   UNL     1       1.635  12.252  17.499  0.00  0.00    +0.000 HD
ENDROOT
BRANCH   1  21
ATOM     20  C   UNL     1       1.083   2.662  21.109  0.00  0.00    +0.000 C 
ATOM     21  C   UNL     1       2.304   3.488  21.512  0.00  0.00    +0.000 C 
ENDBRANCH   1  21
BRANCH  15  22
ATOM     22  C   UNL     1       3.972   3.651  18.845  0.00  0.00    +0.000 C 
ATOM     23  C   UNL     1       4.847   2.916  19.869  0.00  0.00    +0.000 C 
BRANCH  22  24
ATOM     24  C   UNL     1       3.129   2.652  18.028  0.00  0.00    +0.000 C 
ATOM     25  C   UNL     1       1.961   3.290  17.289  0.00  0.00    +0.000 C 
ENDBRANCH  22  24
ENDBRANCH  15  22
TORSDOF 3
ENDMDL
MODEL 8
REMARK VINA RESULT:      -7.1      3.386      6.395
REMARK  Name = 
REMARK  6 active torsions:
REMARK  status: ('A' for Active; 'I' for Inactive)
REMARK    1  A    between atoms: C_1  and  C_2
REMARK    2  A    between atoms: C_2  and  C_3
REMARK    3  A    between atoms: N_17  and  C_18
REMARK    4  A    between atoms: C_18  and  C_19
REMARK    5  A    between atoms: C_18  and  C_20
REMARK    6  A    between atoms: C_20  and  C_21
REMARK                            x       y       z     vdW  Elec       q    Type
REMARK                         _______ _______ _______ _____ _____    ______ ____
ROOT
ATOM      1  C   UNL     1       2.116   5.531  20.421  0.00  0.00    +0.000 A 
ATOM      2  C   UNL     1       1.587   6.674  20.987  0.00  0.00    +0.000 A 
ATOM      3  C   UNL     1       1.608   7.726  20.044  0.00  0.00    +0.000 A 
ATOM      4  C   UNL     1       1.129   9.087  20.042  0.00  0.00    +0.000 A 
ATOM      5  C   UNL     1       0.437   9.729  21.084  0.00  0.00    +0.000 A 
ATOM      6  N   UNL     1       0.150   9.113  22.304  0.00  0.00    +0.000 N 
ATOM      7  N   UNL     1      -0.007  10.992  21.002  0.00  0.00    +0.000 NA
ATOM      8  C   UNL     1       0.214  11.635  19.860  0.00  0.00    +0.000 A 
ATOM      9  N   UNL     1      -0.271  12.921  19.751  0.00  0.00    +0.000 N 
ATOM     10  N   UNL     1       0.889  11.143  18.821  0.00  0.00    +0.000 NA
ATOM     11  C   UNL     1       1.335   9.884  18.914  0.00  0.00    +0.000 A 
ATOM     12  C   UNL     1       2.016   9.357  17.832  0.00  0.00    +0.000 A 
ATOM     13  C   UNL     1       2.492   8.039  17.801  0.00  0.00    +0.000 A 
ATOM     14  C   UNL     1       2.260   7.216  18.911  0.00  0.00    +0.000 A 
ATOM     15  N   UNL     1       2.562   5.874  19.152  0.00  0.00    +0.000 N 
ATOM     16  H   UNL     1      -0.376   8.259  22.153  0.00  0.00    +0.000 HD
ATOM     17  H   UNL     1      -0.388   9.782  22.847  0.00  0.00    +0.000 HD
ATOM     18  H   UNL     1      -0.380  13.322  20.671  0.00  0.00    +0.000 HD
ATOM     19  H   UNL     1       0.273  13.438  19.077  0.00  0.00    +0.000 HD
ENDROOT
BRANCH   1  21
ATOM     20  C   UNL     1       1.009   3.306  20.709  0.00  0.00    +0.000 C 
ATOM     21  C   UNL     1       2.203   4.184  21.080  0.00  0.00    +0.000 C 
ENDBRANCH   1  21
BRANCH  15  22
ATOM     22  C   UNL     1       3.223   4.965  18.204  0.00  0.00    +0.000 C 
ATOM     23  C   UNL     1       2.224   4.167  17.355  0.00  0.00    +0.000 C 
BRANCH  22  24
ATOM     24  C   UNL     1       4.290   5.631  17.313  0.00  0.00    +0.000 C 
ATOM     25  C   UNL     1       5.016   4.661  16.390  0.00  0.00    +0.000 C 
ENDBRANCH  22  24
ENDBRANCH  15  22
TORSDOF 3
ENDMDL
MODEL 9
REMARK VINA RESULT:      -6.9      2.262      4.512
REMARK  Name = 
REMARK  6 active torsions:
REMARK  status: ('A' for Active; 'I' for Inactive)
REMARK    1  A    between atoms: C_1  and  C_2
REMARK    2  A    between atoms: C_2  and  C_3
REMARK    3  A    between atoms: N_17  and  C_18
REMARK    4  A    between atoms: C_18  and  C_19
REMARK    5  A    between atoms: C_18  and  C_20
REMARK    6  A    between atoms: C_20  and  C_21
REMARK                            x       y       z     vdW  Elec       q    Type
REMARK                         _______ _______ _______ _____ _____    ______ ____
ROOT
ATOM      1  C   UNL     1       2.103   8.424  18.715  0.00  0.00    +0.000 A 
ATOM      2  C   UNL     1       2.825   7.396  18.143  0.00  0.00    +0.000 A 
ATOM      3  C   UNL     1       2.694   6.228  18.928  0.00  0.00    +0.000 A 
ATOM      4  C   UNL     1       3.147   4.865  18.788  0.00  0.00    +0.000 A 
ATOM      5  C   UNL     1       3.876   4.334  17.710  0.00  0.00    +0.000 A 
ATOM      6  N   UNL     1       4.295   5.100  16.620  0.00  0.00    +0.000 N 
ATOM      7  N   UNL     1       4.239   3.045  17.633  0.00  0.00    +0.000 NA
ATOM      8  C   UNL     1       3.858   2.251  18.627  0.00  0.00    +0.000 A 
ATOM      9  N   UNL     1       4.193   0.916  18.539  0.00  0.00    +0.000 N 
ATOM     10  N   UNL     1       3.198   2.648  19.716  0.00  0.00    +0.000 NA
ATOM     11  C   UNL     1       2.846   3.938  19.789  0.00  0.00    +0.000 A 
ATOM     12  C   UNL     1       2.141   4.354  20.903  0.00  0.00    +0.000 A 
ATOM     13  C   UNL     1       1.685   5.669  21.068  0.00  0.00    +0.000 A 
ATOM     14  C   UNL     1       1.947   6.601  20.055  0.00  0.00    +0.000 A 
ATOM     15  N   UNL     1       1.589   7.943  19.912  0.00  0.00    +0.000 N 
ATOM     16  H   UNL     1       3.500   5.549  16.178  0.00  0.00    +0.000 HD
ATOM     17  H   UNL     1       4.757   4.462  15.978  0.00  0.00    +0.000 HD
ATOM     18  H   UNL     1       4.998   0.807  17.940  0.00  0.00    +0.000 HD
ATOM     19  H   UNL     1       4.239   0.512  19.462  0.00  0.00    +0.000 HD
ENDROOT
BRANCH   1  21
ATOM     20  C   UNL     1       0.462  10.125  17.895  0.00  0.00    +0.000 C 
ATOM     21  C   UNL     1       1.934   9.802  18.143  0.00  0.00    +0.000 C 
ENDBRANCH   1  21
BRANCH  15  22
ATOM     22  C   UNL     1       0.776   8.715  20.864  0.00  0.00    +0.000 C 
ATOM     23  C   UNL     1      -0.595   8.077  21.125  0.00  0.00    +0.000 C 
BRANCH  22  24
ATOM     24  C   UNL     1       1.486   9.050  22.191  0.00  0.00    +0.000 C 
ATOM     25  C   UNL     1       0.537   9.420  23.322  0.00  0.00    +0.000 C 
ENDBRANCH  22  24
ENDBRANCH  15  22
TORSDOF 3
ENDMDL
