MODEL 1
REMARK VINA RESULT:      -6.0      0.000      0.000
REMARK  Name = 
REMARK  9 active torsions:
REMARK  status: ('A' for Active; 'I' for Inactive)
REMARK    1  A    between atoms: C_1  and  O_2
REMARK    2  A    between atoms: O_2  and  C_3
REMARK    3  A    between atoms: C_8  and  C_9
REMARK    4  A    between atoms: C_10  and  C_11
REMARK    5  A    between atoms: C_11  and  C_13
REMARK    6  A    between atoms: C_13  and  C_14
REMARK    7  A    between atoms: C_14  and  O_15
REMARK    8  A    between atoms: N_25  and  C_26
REMARK    9  A    between atoms: C_29  and  C_30
REMARK                            x       y       z     vdW  Elec       q    Type
REMARK                         _______ _______ _______ _____ _____    ______ ____
ROOT
ATOM      1  C   UNL     1       8.903  15.887  20.617  0.00  0.00    +0.000 C 
ATOM      2  C   UNL     1       9.702  15.995  19.281  0.00  0.00    +0.000 C 
ATOM      3  C   UNL     1       8.826  16.981  18.548  0.00  0.00    +0.000 C 
ATOM      4  O   UNL     1       9.138  17.571  17.525  0.00  0.00    +0.000 OA
ATOM      5  C   UNL     1       7.453  17.081  19.217  0.00  0.00    +0.000 C 
ATOM      6  O   UNL     1       6.543  17.760  18.790  0.00  0.00    +0.000 OA
ATOM      7  N   UNL     1       7.519  16.273  20.326  0.00  0.00    +0.000 N 
ENDROOT
BRANCH   1  13
ATOM      8  C   UNL     1       9.096  14.662  22.873  0.00  0.00    +0.000 A 
ATOM      9  C   UNL     1       8.774  13.524  23.629  0.00  0.00    +0.000 A 
ATOM     10  C   UNL     1       8.340  12.347  23.021  0.00  0.00    +0.000 A 
ATOM     11  C   UNL     1       8.260  12.284  21.640  0.00  0.00    +0.000 A 
ATOM     12  C   UNL     1       8.589  13.400  20.880  0.00  0.00    +0.000 A 
ATOM     13  C   UNL     1       8.978  14.628  21.466  0.00  0.00    +0.000 A 
BRANCH   8  15
ATOM     14  C   UNL     1       9.443  15.613  25.038  0.00  0.00    +0.000 C 
ATOM     15  O   UNL     1       9.278  15.783  23.635  0.00  0.00    +0.000 OA
ENDBRANCH   8  15
ENDBRANCH   1  13
BRANCH   7  16
ATOM     16  C   UNL     1       6.506  16.206  21.315  0.00  0.00    +0.000 A 
ATOM     17  C   UNL     1       6.494  17.223  22.273  0.00  0.00    +0.000 A 
ATOM     18  C   UNL     1       5.380  17.418  23.097  0.00  0.00    +0.000 A 
ATOM     19  C   UNL     1       4.273  16.560  23.015  0.00  0.00    +0.000 A 
ATOM     20  C   UNL     1       4.323  15.492  22.109  0.00  0.00    +0.000 A 
ATOM     21  C   UNL     1       5.424  15.324  21.239  0.00  0.00    +0.000 A 
BRANCH  19  22
ATOM     22  C   UNL     1       3.099  16.807  23.859  0.00  0.00    +0.000 A 
ATOM     23  C   UNL     1       1.769  17.105  23.444  0.00  0.00    +0.000 A 
ATOM     24  C   UNL     1       1.071  17.294  24.606  0.00  0.00    +0.000 A 
ATOM     25  O   UNL     1       1.899  17.104  25.659  0.00  0.00    +0.000 OA
ATOM     26  N   UNL     1       3.164  16.782  25.201  0.00  0.00    +0.000 NA
ENDBRANCH  19  22
ENDBRANCH   7  16
BRANCH   2  27
ATOM     27  C   UNL     1       9.915  14.774  18.378  0.00  0.00    +0.000 C 
ATOM     28  O   UNL     1       8.926  14.236  17.859  0.00  0.00    +0.000 OA
BRANCH  27  29
ATOM     29  C   UNL     1      11.348  14.342  17.927  0.00  0.00    +0.000 C 
ATOM     30  C   UNL     1      12.332  14.074  19.084  0.00  0.00    +0.000 C 
ATOM     31  C   UNL     1      11.929  12.870  19.931  0.00  0.00    +0.000 C 
ATOM     32  C   UNL     1      11.764  11.605  19.097  0.00  0.00    +0.000 C 
ATOM     33  C   UNL     1      10.874  11.812  17.877  0.00  0.00    +0.000 C 
ATOM     34  C   UNL     1      11.278  13.046  17.069  0.00  0.00    +0.000 C 
BRANCH  29  35
ATOM     35  C   UNL     1      11.900  15.457  17.010  0.00  0.00    +0.000 C 
BRANCH  35  36
ATOM     36  O   UNL     1      10.962  15.792  15.997  0.00  0.00    +0.000 OA
ATOM     37  H   UNL     1      10.833  15.000  15.429  0.00  0.00    +0.000 HD
ENDBRANCH  35  36
ENDBRANCH  29  35
ENDBRANCH  27  29
ENDBRANCH   2  27
TORSDOF 8
ENDMDL
MODEL 2
REMARK VINA RESULT:      -5.9      6.203      9.698
REMARK  Name = 
REMARK  9 active torsions:
REMARK  status: ('A' for Active; 'I' for Inactive)
REMARK    1  A    between atoms: C_1  and  O_2
REMARK    2  A    between atoms: O_2  and  C_3
REMARK    3  A    between atoms: C_8  and  C_9
REMARK    4  A    between atoms: C_10  and  C_11
REMARK    5  A    between atoms: C_11  and  C_13
REMARK    6  A    between atoms: C_13  and  C_14
REMARK    7  A    between atoms: C_14  and  O_15
REMARK    8  A    between atoms: N_25  and  C_26
REMARK    9  A    between atoms: C_29  and  C_30
REMARK                            x       y       z     vdW  Elec       q    Type
REMARK                         _______ _______ _______ _____ _____    ______ ____
ROOT
ATOM      1  C   UNL     1      -0.069  14.635  22.091  0.00  0.00    +0.000 C 
ATOM      2  C   UNL     1       1.065  15.706  22.087  0.00  0.00    +0.000 C 
ATOM      3  C   UNL     1       0.357  16.818  22.822  0.00  0.00    +0.000 C 
ATOM      4  O   UNL     1       0.899  17.815  23.276  0.00  0.00    +0.000 OA
ATOM      5  C   UNL     1      -1.153  16.568  22.850  0.00  0.00    +0.000 C 
ATOM      6  O   UNL     1      -1.955  17.341  23.328  0.00  0.00    +0.000 OA
ATOM      7  N   UNL     1      -1.340  15.349  22.245  0.00  0.00    +0.000 N 
ENDROOT
BRANCH   1  13
ATOM      8  C   UNL     1      -0.157  12.191  21.288  0.00  0.00    +0.000 A 
ATOM      9  C   UNL     1      -0.606  11.283  20.315  0.00  0.00    +0.000 A 
ATOM     10  C   UNL     1      -1.033  11.716  19.061  0.00  0.00    +0.000 A 
ATOM     11  C   UNL     1      -0.979  13.065  18.752  0.00  0.00    +0.000 A 
ATOM     12  C   UNL     1      -0.524  13.971  19.702  0.00  0.00    +0.000 A 
ATOM     13  C   UNL     1      -0.137  13.573  21.005  0.00  0.00    +0.000 A 
BRANCH   8  15
ATOM     14  C   UNL     1      -0.904  10.592  22.901  0.00  0.00    +0.000 C 
ATOM     15  O   UNL     1       0.001  11.623  22.523  0.00  0.00    +0.000 OA
ENDBRANCH   8  15
ENDBRANCH   1  13
BRANCH   7  16
ATOM     16  C   UNL     1      -2.582  14.669  22.206  0.00  0.00    +0.000 A 
ATOM     17  C   UNL     1      -3.429  14.964  21.135  0.00  0.00    +0.000 A 
ATOM     18  C   UNL     1      -4.525  14.146  20.840  0.00  0.00    +0.000 A 
ATOM     19  C   UNL     1      -4.829  13.043  21.651  0.00  0.00    +0.000 A 
ATOM     20  C   UNL     1      -4.026  12.798  22.773  0.00  0.00    +0.000 A 
ATOM     21  C   UNL     1      -2.887  13.591  23.042  0.00  0.00    +0.000 A 
BRANCH  19  22
ATOM     22  C   UNL     1      -5.959  12.175  21.302  0.00  0.00    +0.000 A 
ATOM     23  C   UNL     1      -6.314  11.676  20.015  0.00  0.00    +0.000 A 
ATOM     24  C   UNL     1      -7.463  10.961  20.220  0.00  0.00    +0.000 A 
ATOM     25  O   UNL     1      -7.782  10.995  21.534  0.00  0.00    +0.000 OA
ATOM     26  N   UNL     1      -6.836  11.736  22.220  0.00  0.00    +0.000 NA
ENDBRANCH  19  22
ENDBRANCH   7  16
BRANCH   2  27
ATOM     27  C   UNL     1       1.622  16.273  20.775  0.00  0.00    +0.000 C 
ATOM     28  O   UNL     1       0.911  17.037  20.106  0.00  0.00    +0.000 OA
BRANCH  27  29
ATOM     29  C   UNL     1       3.126  16.089  20.389  0.00  0.00    +0.000 C 
ATOM     30  C   UNL     1       3.708  14.700  20.722  0.00  0.00    +0.000 C 
ATOM     31  C   UNL     1       3.069  13.583  19.904  0.00  0.00    +0.000 C 
ATOM     32  C   UNL     1       3.171  13.833  18.403  0.00  0.00    +0.000 C 
ATOM     33  C   UNL     1       2.696  15.224  18.002  0.00  0.00    +0.000 C 
ATOM     34  C   UNL     1       3.325  16.320  18.864  0.00  0.00    +0.000 C 
BRANCH  29  35
ATOM     35  C   UNL     1       3.928  17.190  21.118  0.00  0.00    +0.000 C 
BRANCH  35  36
ATOM     36  O   UNL     1       4.413  18.159  20.198  0.00  0.00    +0.000 OA
ATOM     37  H   UNL     1       5.207  18.582  20.594  0.00  0.00    +0.000 HD
ENDBRANCH  35  36
ENDBRANCH  29  35
ENDBRANCH  27  29
ENDBRANCH   2  27
TORSDOF 8
ENDMDL
MODEL 3
REMARK VINA RESULT:      -5.9      6.383     11.073
REMARK  Name = 
REMARK  9 active torsions:
REMARK  status: ('A' for Active; 'I' for Inactive)
REMARK    1  A    between atoms: C_1  and  O_2
REMARK    2  A    between atoms: O_2  and  C_3
REMARK    3  A    between atoms: C_8  and  C_9
REMARK    4  A    between atoms: C_10  and  C_11
REMARK    5  A    between atoms: C_11  and  C_13
REMARK    6  A    between atoms: C_13  and  C_14
REMARK    7  A    between atoms: C_14  and  O_15
REMARK    8  A    between atoms: N_25  and  C_26
REMARK    9  A    between atoms: C_29  and  C_30
REMARK                            x       y       z     vdW  Elec       q    Type
REMARK                         _______ _______ _______ _____ _____    ______ ____
ROOT
ATOM      1  C   UNL     1      -0.261  13.552  22.009  0.00  0.00    +0.000 C 
ATOM      2  C   UNL     1      -1.220  14.677  22.508  0.00  0.00    +0.000 C 
ATOM      3  C   UNL     1      -2.158  13.846  23.348  0.00  0.00    +0.000 C 
ATOM      4  O   UNL     1      -2.971  14.294  24.143  0.00  0.00    +0.000 OA
ATOM      5  C   UNL     1      -2.013  12.361  23.008  0.00  0.00    +0.000 C 
ATOM      6  O   UNL     1      -2.695  11.487  23.500  0.00  0.00    +0.000 OA
ATOM      7  N   UNL     1      -0.999  12.288  22.084  0.00  0.00    +0.000 N 
ENDROOT
BRANCH   1  13
ATOM      8  C   UNL     1       1.894  13.605  20.602  0.00  0.00    +0.000 A 
ATOM      9  C   UNL     1       2.499  13.358  19.359  0.00  0.00    +0.000 A 
ATOM     10  C   UNL     1       1.740  13.205  18.200  0.00  0.00    +0.000 A 
ATOM     11  C   UNL     1       0.363  13.335  18.266  0.00  0.00    +0.000 A 
ATOM     12  C   UNL     1      -0.246  13.593  19.488  0.00  0.00    +0.000 A 
ATOM     13  C   UNL     1       0.488  13.698  20.694  0.00  0.00    +0.000 A 
BRANCH   8  15
ATOM     14  C   UNL     1       3.958  14.266  21.610  0.00  0.00    +0.000 C 
ATOM     15  O   UNL     1       2.762  13.498  21.654  0.00  0.00    +0.000 OA
ENDBRANCH   8  15
ENDBRANCH   1  13
BRANCH   7  16
ATOM     16  C   UNL     1      -0.437  11.071  21.624  0.00  0.00    +0.000 A 
ATOM     17  C   UNL     1      -0.723  10.704  20.307  0.00  0.00    +0.000 A 
ATOM     18  C   UNL     1       0.010   9.698  19.667  0.00  0.00    +0.000 A 
ATOM     19  C   UNL     1       1.012   9.000  20.356  0.00  0.00    +0.000 A 
ATOM     20  C   UNL     1       1.241   9.315  21.702  0.00  0.00    +0.000 A 
ATOM     21  C   UNL     1       0.539  10.366  22.334  0.00  0.00    +0.000 A 
BRANCH  19  22
ATOM     22  C   UNL     1       1.797   7.977  19.654  0.00  0.00    +0.000 A 
ATOM     23  C   UNL     1       2.337   8.039  18.337  0.00  0.00    +0.000 A 
ATOM     24  C   UNL     1       2.934   6.823  18.145  0.00  0.00    +0.000 A 
ATOM     25  O   UNL     1       2.795   6.075  19.264  0.00  0.00    +0.000 OA
ATOM     26  N   UNL     1       2.101   6.796  20.218  0.00  0.00    +0.000 NA
ENDBRANCH  19  22
ENDBRANCH   7  16
BRANCH   2  27
ATOM     27  C   UNL     1      -2.056  15.506  21.526  0.00  0.00    +0.000 C 
ATOM     28  O   UNL     1      -3.024  14.969  20.966  0.00  0.00    +0.000 OA
BRANCH  27  29
ATOM     29  C   UNL     1      -1.853  17.050  21.394  0.00  0.00    +0.000 C 
ATOM     30  C   UNL     1      -0.519  17.573  21.968  0.00  0.00    +0.000 C 
ATOM     31  C   UNL     1       0.692  17.062  21.195  0.00  0.00    +0.000 C 
ATOM     32  C   UNL     1       0.612  17.390  19.708  0.00  0.00    +0.000 C 
ATOM     33  C   UNL     1      -0.717  16.985  19.084  0.00  0.00    +0.000 C 
ATOM     34  C   UNL     1      -1.913  17.479  19.900  0.00  0.00    +0.000 C 
BRANCH  29  35
ATOM     35  C   UNL     1      -3.041  17.736  22.106  0.00  0.00    +0.000 C 
BRANCH  35  36
ATOM     36  O   UNL     1      -3.421  17.014  23.269  0.00  0.00    +0.000 OA
ATOM     37  H   UNL     1      -3.068  16.100  23.188  0.00  0.00    +0.000 HD
ENDBRANCH  35  36
ENDBRANCH  29  35
ENDBRANCH  27  29
ENDBRANCH   2  27
TORSDOF 8
ENDMDL
MODEL 4
REMARK VINA RESULT:      -5.9      6.235     10.000
REMARK  Name = 
REMARK  9 active torsions:
REMARK  status: ('A' for Active; 'I' for Inactive)
REMARK    1  A    between atoms: C_1  and  O_2
REMARK    2  A    between atoms: O_2  and  C_3
REMARK    3  A    between atoms: C_8  and  C_9
REMARK    4  A    between atoms: C_10  and  C_11
REMARK    5  A    between atoms: C_11  and  C_13
REMARK    6  A    between atoms: C_13  and  C_14
REMARK    7  A    between atoms: C_14  and  O_15
REMARK    8  A    between atoms: N_25  and  C_26
REMARK    9  A    between atoms: C_29  and  C_30
REMARK                            x       y       z     vdW  Elec       q    Type
REMARK                         _______ _______ _______ _____ _____    ______ ____
ROOT
ATOM      1  C   UNL     1      -0.661  14.285  19.951  0.00  0.00    +0.000 C 
ATOM      2  C   UNL     1       0.791  14.106  19.410  0.00  0.00    +0.000 C 
ATOM      3  C   UNL     1       0.702  12.678  18.931  0.00  0.00    +0.000 C 
ATOM      4  O   UNL     1       1.524  12.125  18.215  0.00  0.00    +0.000 OA
ATOM      5  C   UNL     1      -0.523  11.984  19.532  0.00  0.00    +0.000 C 
ATOM      6  O   UNL     1      -0.792  10.816  19.353  0.00  0.00    +0.000 OA
ATOM      7  N   UNL     1      -1.176  12.948  20.261  0.00  0.00    +0.000 N 
ENDROOT
BRANCH   1  13
ATOM      8  C   UNL     1      -1.912  16.316  20.920  0.00  0.00    +0.000 A 
ATOM      9  C   UNL     1      -2.427  16.950  22.061  0.00  0.00    +0.000 A 
ATOM     10  C   UNL     1      -2.014  16.586  23.342  0.00  0.00    +0.000 A 
ATOM     11  C   UNL     1      -1.048  15.605  23.493  0.00  0.00    +0.000 A 
ATOM     12  C   UNL     1      -0.521  14.980  22.370  0.00  0.00    +0.000 A 
ATOM     13  C   UNL     1      -0.959  15.284  21.058  0.00  0.00    +0.000 A 
BRANCH   8  15
ATOM     14  C   UNL     1      -2.220  17.823  19.091  0.00  0.00    +0.000 C 
ATOM     15  O   UNL     1      -2.591  16.633  19.775  0.00  0.00    +0.000 OA
ENDBRANCH   8  15
ENDBRANCH   1  13
BRANCH   7  16
ATOM     16  C   UNL     1      -2.451  12.763  20.852  0.00  0.00    +0.000 A 
ATOM     17  C   UNL     1      -2.476  12.489  22.221  0.00  0.00    +0.000 A 
ATOM     18  C   UNL     1      -3.666  12.586  22.950  0.00  0.00    +0.000 A 
ATOM     19  C   UNL     1      -4.871  12.907  22.308  0.00  0.00    +0.000 A 
ATOM     20  C   UNL     1      -4.857  13.100  20.920  0.00  0.00    +0.000 A 
ATOM     21  C   UNL     1      -3.647  13.055  20.190  0.00  0.00    +0.000 A 
BRANCH  19  22
ATOM     22  C   UNL     1      -6.101  13.044  23.097  0.00  0.00    +0.000 A 
ATOM     23  C   UNL     1      -6.643  14.228  23.675  0.00  0.00    +0.000 A 
ATOM     24  C   UNL     1      -7.763  13.813  24.342  0.00  0.00    +0.000 A 
ATOM     25  O   UNL     1      -7.916  12.479  24.171  0.00  0.00    +0.000 OA
ATOM     26  N   UNL     1      -6.891  11.994  23.379  0.00  0.00    +0.000 NA
ENDBRANCH  19  22
ENDBRANCH   7  16
BRANCH   2  27
ATOM     27  C   UNL     1       2.008  14.229  20.335  0.00  0.00    +0.000 C 
ATOM     28  O   UNL     1       2.181  13.369  21.211  0.00  0.00    +0.000 OA
BRANCH  27  29
ATOM     29  C   UNL     1       3.136  15.273  20.052  0.00  0.00    +0.000 C 
ATOM     30  C   UNL     1       2.662  16.548  19.323  0.00  0.00    +0.000 C 
ATOM     31  C   UNL     1       1.708  17.386  20.167  0.00  0.00    +0.000 C 
ATOM     32  C   UNL     1       2.306  17.763  21.518  0.00  0.00    +0.000 C 
ATOM     33  C   UNL     1       2.880  16.565  22.264  0.00  0.00    +0.000 C 
ATOM     34  C   UNL     1       3.804  15.723  21.383  0.00  0.00    +0.000 C 
BRANCH  29  35
ATOM     35  C   UNL     1       4.227  14.562  19.221  0.00  0.00    +0.000 C 
BRANCH  35  36
ATOM     36  O   UNL     1       3.783  14.331  17.891  0.00  0.00    +0.000 OA
ATOM     37  H   UNL     1       3.654  13.363  17.779  0.00  0.00    +0.000 HD
ENDBRANCH  35  36
ENDBRANCH  29  35
ENDBRANCH  27  29
ENDBRANCH   2  27
TORSDOF 8
ENDMDL
MODEL 5
REMARK VINA RESULT:      -5.8      6.589     11.462
REMARK  Name = 
REMARK  9 active torsions:
REMARK  status: ('A' for Active; 'I' for Inactive)
REMARK    1  A    between atoms: C_1  and  O_2
REMARK    2  A    between atoms: O_2  and  C_3
REMARK    3  A    between atoms: C_8  and  C_9
REMARK    4  A    between atoms: C_10  and  C_11
REMARK    5  A    between atoms: C_11  and  C_13
REMARK    6  A    between atoms: C_13  and  C_14
REMARK    7  A    between atoms: C_14  and  O_15
REMARK    8  A    between atoms: N_25  and  C_26
REMARK    9  A    between atoms: C_29  and  C_30
REMARK                            x       y       z     vdW  Elec       q    Type
REMARK                         _______ _______ _______ _____ _____    ______ ____
ROOT
ATOM      1  C   UNL     1      -0.736  14.069  22.494  0.00  0.00    +0.000 C 
ATOM      2  C   UNL     1      -1.736  15.029  23.212  0.00  0.00    +0.000 C 
ATOM      3  C   UNL     1      -2.635  14.007  23.862  0.00  0.00    +0.000 C 
ATOM      4  O   UNL     1      -3.460  14.249  24.730  0.00  0.00    +0.000 OA
ATOM      5  C   UNL     1      -2.433  12.630  23.225  0.00  0.00    +0.000 C 
ATOM      6  O   UNL     1      -3.077  11.647  23.526  0.00  0.00    +0.000 OA
ATOM      7  N   UNL     1      -1.423  12.788  22.308  0.00  0.00    +0.000 N 
ENDROOT
BRANCH   1  13
ATOM      8  C   UNL     1       1.407  14.545  21.150  0.00  0.00    +0.000 A 
ATOM      9  C   UNL     1       2.028  14.578  19.891  0.00  0.00    +0.000 A 
ATOM     10  C   UNL     1       1.282  14.583  18.714  0.00  0.00    +0.000 A 
ATOM     11  C   UNL     1      -0.101  14.594  18.785  0.00  0.00    +0.000 A 
ATOM     12  C   UNL     1      -0.727  14.576  20.025  0.00  0.00    +0.000 A 
ATOM     13  C   UNL     1      -0.001  14.512  21.239  0.00  0.00    +0.000 A 
BRANCH   8  15
ATOM     14  C   UNL     1       3.641  14.683  21.989  0.00  0.00    +0.000 C 
ATOM     15  O   UNL     1       2.281  14.312  22.176  0.00  0.00    +0.000 OA
ENDBRANCH   8  15
ENDBRANCH   1  13
BRANCH   7  16
ATOM     16  C   UNL     1      -0.816  11.715  21.609  0.00  0.00    +0.000 A 
ATOM     17  C   UNL     1      -1.225  11.511  20.289  0.00  0.00    +0.000 A 
ATOM     18  C   UNL     1      -0.489  10.690  19.429  0.00  0.00    +0.000 A 
ATOM     19  C   UNL     1       0.646  10.009  19.891  0.00  0.00    +0.000 A 
ATOM     20  C   UNL     1       1.008  10.152  21.238  0.00  0.00    +0.000 A 
ATOM     21  C   UNL     1       0.297  11.022  22.095  0.00  0.00    +0.000 A 
BRANCH  19  22
ATOM     22  C   UNL     1       1.427   9.185  18.962  0.00  0.00    +0.000 A 
ATOM     23  C   UNL     1       2.026   7.915  19.208  0.00  0.00    +0.000 A 
ATOM     24  C   UNL     1       2.674   7.601  18.045  0.00  0.00    +0.000 A 
ATOM     25  O   UNL     1       2.475   8.587  17.141  0.00  0.00    +0.000 OA
ATOM     26  N   UNL     1       1.681   9.573  17.700  0.00  0.00    +0.000 NA
ENDBRANCH  19  22
ENDBRANCH   7  16
BRANCH   2  27
ATOM     27  C   UNL     1      -2.611  16.007  22.419  0.00  0.00    +0.000 C 
ATOM     28  O   UNL     1      -3.538  15.555  21.731  0.00  0.00    +0.000 OA
BRANCH  27  29
ATOM     29  C   UNL     1      -2.500  17.551  22.638  0.00  0.00    +0.000 C 
ATOM     30  C   UNL     1      -1.275  17.995  23.463  0.00  0.00    +0.000 C 
ATOM     31  C   UNL     1       0.045  17.716  22.752  0.00  0.00    +0.000 C 
ATOM     32  C   UNL     1       0.104  18.353  21.368  0.00  0.00    +0.000 C 
ATOM     33  C   UNL     1      -1.120  18.034  20.518  0.00  0.00    +0.000 C 
ATOM     34  C   UNL     1      -2.428  18.288  21.270  0.00  0.00    +0.000 C 
BRANCH  29  35
ATOM     35  C   UNL     1      -3.802  18.015  23.329  0.00  0.00    +0.000 C 
BRANCH  35  36
ATOM     36  O   UNL     1      -4.258  17.042  24.259  0.00  0.00    +0.000 OA
ATOM     37  H   UNL     1      -4.434  17.497  25.112  0.00  0.00    +0.000 HD
ENDBRANCH  35  36
ENDBRANCH  29  35
ENDBRANCH  27  29
ENDBRANCH   2  27
TORSDOF 8
ENDMDL
MODEL 6
REMARK VINA RESULT:      -5.7      5.833      9.242
REMARK  Name = 
REMARK  9 active torsions:
REMARK  status: ('A' for Active; 'I' for Inactive)
REMARK    1  A    between atoms: C_1  and  O_2
REMARK    2  A    between atoms: O_2  and  C_3
REMARK    3  A    between atoms: C_8  and  C_9
REMARK    4  A    between atoms: C_10  and  C_11
REMARK    5  A    between atoms: C_11  and  C_13
REMARK    6  A    between atoms: C_13  and  C_14
REMARK    7  A    between atoms: C_14  and  O_15
REMARK    8  A    between atoms: N_25  and  C_26
REMARK    9  A    between atoms: C_29  and  C_30
REMARK                            x       y       z     vdW  Elec       q    Type
REMARK                         _______ _______ _______ _____ _____    ______ ____
ROOT
ATOM      1  C   UNL     1       0.652  14.377  21.906  0.00  0.00    +0.000 C 
ATOM      2  C   UNL     1       1.747  15.482  22.035  0.00  0.00    +0.000 C 
ATOM      3  C   UNL     1       1.048  16.410  22.998  0.00  0.00    +0.000 C 
ATOM      4  O   UNL     1       1.582  17.332  23.596  0.00  0.00    +0.000 OA
ATOM      5  C   UNL     1      -0.448  16.092  23.062  0.00  0.00    +0.000 C 
ATOM      6  O   UNL     1      -1.245  16.730  23.716  0.00  0.00    +0.000 OA
ATOM      7  N   UNL     1      -0.630  14.995  22.256  0.00  0.00    +0.000 N 
ENDROOT
BRANCH   1  13
ATOM      8  C   UNL     1       0.512  12.116  20.684  0.00  0.00    +0.000 A 
ATOM      9  C   UNL     1       0.037  11.403  19.572  0.00  0.00    +0.000 A 
ATOM     10  C   UNL     1      -0.396  12.058  18.420  0.00  0.00    +0.000 A 
ATOM     11  C   UNL     1      -0.321  13.439  18.355  0.00  0.00    +0.000 A 
ATOM     12  C   UNL     1       0.160  14.155  19.444  0.00  0.00    +0.000 A 
ATOM     13  C   UNL     1       0.553  13.527  20.650  0.00  0.00    +0.000 A 
BRANCH   8  15
ATOM     14  C   UNL     1       0.822   9.934  21.609  0.00  0.00    +0.000 C 
ATOM     15  O   UNL     1       0.673  11.336  21.796  0.00  0.00    +0.000 OA
ENDBRANCH   8  15
ENDBRANCH   1  13
BRANCH   7  16
ATOM     16  C   UNL     1      -1.849  14.278  22.162  0.00  0.00    +0.000 A 
ATOM     17  C   UNL     1      -2.141  13.393  23.203  0.00  0.00    +0.000 A 
ATOM     18  C   UNL     1      -3.429  12.872  23.361  0.00  0.00    +0.000 A 
ATOM     19  C   UNL     1      -4.442  13.185  22.442  0.00  0.00    +0.000 A 
ATOM     20  C   UNL     1      -4.125  14.008  21.353  0.00  0.00    +0.000 A 
ATOM     21  C   UNL     1      -2.839  14.578  21.221  0.00  0.00    +0.000 A 
BRANCH  19  22
ATOM     22  C   UNL     1      -5.797  12.661  22.649  0.00  0.00    +0.000 A 
ATOM     23  C   UNL     1      -6.628  12.809  23.797  0.00  0.00    +0.000 A 
ATOM     24  C   UNL     1      -7.760  12.098  23.506  0.00  0.00    +0.000 A 
ATOM     25  O   UNL     1      -7.650  11.570  22.266  0.00  0.00    +0.000 OA
ATOM     26  N   UNL     1      -6.433  11.932  21.716  0.00  0.00    +0.000 NA
ENDBRANCH  19  22
ENDBRANCH   7  16
BRANCH   2  27
ATOM     27  C   UNL     1       2.202  16.299  20.820  0.00  0.00    +0.000 C 
ATOM     28  O   UNL     1       1.428  17.143  20.345  0.00  0.00    +0.000 OA
BRANCH  27  29
ATOM     29  C   UNL     1       3.683  16.249  20.322  0.00  0.00    +0.000 C 
ATOM     30  C   UNL     1       4.235  14.827  20.093  0.00  0.00    +0.000 C 
ATOM     31  C   UNL     1       3.530  14.099  18.954  0.00  0.00    +0.000 C 
ATOM     32  C   UNL     1       3.580  14.882  17.647  0.00  0.00    +0.000 C 
ATOM     33  C   UNL     1       3.132  16.330  17.808  0.00  0.00    +0.000 C 
ATOM     34  C   UNL     1       3.829  17.023  18.980  0.00  0.00    +0.000 C 
BRANCH  29  35
ATOM     35  C   UNL     1       4.548  16.993  21.364  0.00  0.00    +0.000 C 
BRANCH  35  36
ATOM     36  O   UNL     1       3.919  18.198  21.779  0.00  0.00    +0.000 OA
ATOM     37  H   UNL     1       3.160  18.366  21.177  0.00  0.00    +0.000 HD
ENDBRANCH  35  36
ENDBRANCH  29  35
ENDBRANCH  27  29
ENDBRANCH   2  27
TORSDOF 8
ENDMDL
MODEL 7
REMARK VINA RESULT:      -5.7      6.216     11.103
REMARK  Name = 
REMARK  9 active torsions:
REMARK  status: ('A' for Active; 'I' for Inactive)
REMARK    1  A    between atoms: C_1  and  O_2
REMARK    2  A    between atoms: O_2  and  C_3
REMARK    3  A    between atoms: C_8  and  C_9
REMARK    4  A    between atoms: C_10  and  C_11
REMARK    5  A    between atoms: C_11  and  C_13
REMARK    6  A    between atoms: C_13  and  C_14
REMARK    7  A    between atoms: C_14  and  O_15
REMARK    8  A    between atoms: N_25  and  C_26
REMARK    9  A    between atoms: C_29  and  C_30
REMARK                            x       y       z     vdW  Elec       q    Type
REMARK                         _______ _______ _______ _____ _____    ______ ____
ROOT
ATOM      1  C   UNL     1       0.144  13.433  21.993  0.00  0.00    +0.000 C 
ATOM      2  C   UNL     1      -0.968  14.378  22.545  0.00  0.00    +0.000 C 
ATOM      3  C   UNL     1      -1.806  13.365  23.286  0.00  0.00    +0.000 C 
ATOM      4  O   UNL     1      -2.689  13.636  24.085  0.00  0.00    +0.000 OA
ATOM      5  C   UNL     1      -1.455  11.945  22.837  0.00  0.00    +0.000 C 
ATOM      6  O   UNL     1      -2.025  10.951  23.236  0.00  0.00    +0.000 OA
ATOM      7  N   UNL     1      -0.419  12.081  21.944  0.00  0.00    +0.000 N 
ENDROOT
BRANCH   1  13
ATOM      8  C   UNL     1       2.307  13.758  20.633  0.00  0.00    +0.000 A 
ATOM      9  C   UNL     1       2.930  13.704  19.377  0.00  0.00    +0.000 A 
ATOM     10  C   UNL     1       2.187  13.678  18.198  0.00  0.00    +0.000 A 
ATOM     11  C   UNL     1       0.805  13.746  18.263  0.00  0.00    +0.000 A 
ATOM     12  C   UNL     1       0.177  13.814  19.501  0.00  0.00    +0.000 A 
ATOM     13  C   UNL     1       0.898  13.784  20.719  0.00  0.00    +0.000 A 
BRANCH   8  15
ATOM     14  C   UNL     1       4.384  14.283  21.692  0.00  0.00    +0.000 C 
ATOM     15  O   UNL     1       3.169  13.544  21.674  0.00  0.00    +0.000 OA
ENDBRANCH   8  15
ENDBRANCH   1  13
BRANCH   7  16
ATOM     16  C   UNL     1       0.311  10.991  21.411  0.00  0.00    +0.000 A 
ATOM     17  C   UNL     1       0.942  10.146  22.327  0.00  0.00    +0.000 A 
ATOM     18  C   UNL     1       1.427   8.895  21.934  0.00  0.00    +0.000 A 
ATOM     19  C   UNL     1       1.338   8.485  20.595  0.00  0.00    +0.000 A 
ATOM     20  C   UNL     1       0.778   9.368  19.663  0.00  0.00    +0.000 A 
ATOM     21  C   UNL     1       0.240  10.611  20.067  0.00  0.00    +0.000 A 
BRANCH  19  22
ATOM     22  C   UNL     1       1.816   7.152  20.211  0.00  0.00    +0.000 A 
ATOM     23  C   UNL     1       1.549   5.908  20.853  0.00  0.00    +0.000 A 
ATOM     24  C   UNL     1       2.261   4.983  20.138  0.00  0.00    +0.000 A 
ATOM     25  O   UNL     1       2.900   5.602  19.119  0.00  0.00    +0.000 OA
ATOM     26  N   UNL     1       2.612   6.955  19.147  0.00  0.00    +0.000 NA
ENDBRANCH  19  22
ENDBRANCH   7  16
BRANCH   2  27
ATOM     27  C   UNL     1      -1.885  15.166  21.602  0.00  0.00    +0.000 C 
ATOM     28  O   UNL     1      -2.704  14.545  20.908  0.00  0.00    +0.000 OA
BRANCH  27  29
ATOM     29  C   UNL     1      -1.962  16.726  21.668  0.00  0.00    +0.000 C 
ATOM     30  C   UNL     1      -0.639  17.418  22.055  0.00  0.00    +0.000 C 
ATOM     31  C   UNL     1       0.450  17.234  21.003  0.00  0.00    +0.000 C 
ATOM     32  C   UNL     1       0.010  17.710  19.623  0.00  0.00    +0.000 C 
ATOM     33  C   UNL     1      -1.339  17.138  19.204  0.00  0.00    +0.000 C 
ATOM     34  C   UNL     1      -2.401  17.305  20.291  0.00  0.00    +0.000 C 
BRANCH  29  35
ATOM     35  C   UNL     1      -3.069  17.093  22.682  0.00  0.00    +0.000 C 
BRANCH  35  36
ATOM     36  O   UNL     1      -4.042  16.061  22.767  0.00  0.00    +0.000 OA
ATOM     37  H   UNL     1      -4.331  15.841  21.853  0.00  0.00    +0.000 HD
ENDBRANCH  35  36
ENDBRANCH  29  35
ENDBRANCH  27  29
ENDBRANCH   2  27
TORSDOF 8
ENDMDL
MODEL 8
REMARK VINA RESULT:      -5.6      5.919      9.561
REMARK  Name = 
REMARK  9 active torsions:
REMARK  status: ('A' for Active; 'I' for Inactive)
REMARK    1  A    between atoms: C_1  and  O_2
REMARK    2  A    between atoms: O_2  and  C_3
REMARK    3  A    between atoms: C_8  and  C_9
REMARK    4  A    between atoms: C_10  and  C_11
REMARK    5  A    between atoms: C_11  and  C_13
REMARK    6  A    between atoms: C_13  and  C_14
REMARK    7  A    between atoms: C_14  and  O_15
REMARK    8  A    between atoms: N_25  and  C_26
REMARK    9  A    between atoms: C_29  and  C_30
REMARK                            x       y       z     vdW  Elec       q    Type
REMARK                         _______ _______ _______ _____ _____    ______ ____
ROOT
ATOM      1  C   UNL     1       0.106  14.716  22.250  0.00  0.00    +0.000 C 
ATOM      2  C   UNL     1       1.293  15.706  22.036  0.00  0.00    +0.000 C 
ATOM      3  C   UNL     1       0.836  16.835  22.926  0.00  0.00    +0.000 C 
ATOM      4  O   UNL     1       1.532  17.774  23.282  0.00  0.00    +0.000 OA
ATOM      5  C   UNL     1      -0.651  16.689  23.259  0.00  0.00    +0.000 C 
ATOM      6  O   UNL     1      -1.278  17.497  23.910  0.00  0.00    +0.000 OA
ATOM      7  N   UNL     1      -1.049  15.510  22.678  0.00  0.00    +0.000 N 
ENDROOT
BRANCH   1  13
ATOM      8  C   UNL     1      -0.382  12.322  21.440  0.00  0.00    +0.000 A 
ATOM      9  C   UNL     1      -1.087  11.498  20.547  0.00  0.00    +0.000 A 
ATOM     10  C   UNL     1      -1.674  12.014  19.393  0.00  0.00    +0.000 A 
ATOM     11  C   UNL     1      -1.530  13.360  19.099  0.00  0.00    +0.000 A 
ATOM     12  C   UNL     1      -0.823  14.182  19.968  0.00  0.00    +0.000 A 
ATOM     13  C   UNL     1      -0.263  13.704  21.177  0.00  0.00    +0.000 A 
BRANCH   8  15
ATOM     14  C   UNL     1      -0.867  10.583  23.007  0.00  0.00    +0.000 C 
ATOM     15  O   UNL     1      -0.076  11.700  22.619  0.00  0.00    +0.000 OA
ENDBRANCH   8  15
ENDBRANCH   1  13
BRANCH   7  16
ATOM     16  C   UNL     1      -2.321  14.920  22.882  0.00  0.00    +0.000 A 
ATOM     17  C   UNL     1      -3.332  15.279  21.987  0.00  0.00    +0.000 A 
ATOM     18  C   UNL     1      -4.519  14.542  21.912  0.00  0.00    +0.000 A 
ATOM     19  C   UNL     1      -4.741  13.459  22.775  0.00  0.00    +0.000 A 
ATOM     20  C   UNL     1      -3.759  13.152  23.727  0.00  0.00    +0.000 A 
ATOM     21  C   UNL     1      -2.537  13.862  23.769  0.00  0.00    +0.000 A 
BRANCH  19  22
ATOM     22  C   UNL     1      -5.974  12.674  22.653  0.00  0.00    +0.000 A 
ATOM     23  C   UNL     1      -7.033  12.554  23.599  0.00  0.00    +0.000 A 
ATOM     24  C   UNL     1      -7.916  11.677  23.030  0.00  0.00    +0.000 A 
ATOM     25  O   UNL     1      -7.451  11.300  21.817  0.00  0.00    +0.000 OA
ATOM     26  N   UNL     1      -6.247  11.933  21.566  0.00  0.00    +0.000 NA
ENDBRANCH  19  22
ENDBRANCH   7  16
BRANCH   2  27
ATOM     27  C   UNL     1       1.611  16.282  20.651  0.00  0.00    +0.000 C 
ATOM     28  O   UNL     1       0.824  17.097  20.148  0.00  0.00    +0.000 OA
BRANCH  27  29
ATOM     29  C   UNL     1       2.999  16.037  19.973  0.00  0.00    +0.000 C 
ATOM     30  C   UNL     1       3.765  14.809  20.506  0.00  0.00    +0.000 C 
ATOM     31  C   UNL     1       3.061  13.494  20.189  0.00  0.00    +0.000 C 
ATOM     32  C   UNL     1       2.797  13.323  18.697  0.00  0.00    +0.000 C 
ATOM     33  C   UNL     1       2.120  14.538  18.074  0.00  0.00    +0.000 C 
ATOM     34  C   UNL     1       2.826  15.844  18.439  0.00  0.00    +0.000 C 
BRANCH  29  35
ATOM     35  C   UNL     1       3.843  17.316  20.172  0.00  0.00    +0.000 C 
BRANCH  35  36
ATOM     36  O   UNL     1       4.926  17.358  19.252  0.00  0.00    +0.000 OA
ATOM     37  H   UNL     1       4.553  17.314  18.343  0.00  0.00    +0.000 HD
ENDBRANCH  35  36
ENDBRANCH  29  35
ENDBRANCH  27  29
ENDBRANCH   2  27
TORSDOF 8
ENDMDL
MODEL 9
REMARK VINA RESULT:      -5.5      7.620     12.835
REMARK  Name = 
REMARK  9 active torsions:
REMARK  status: ('A' for Active; 'I' for Inactive)
REMARK    1  A    between atoms: C_1  and  O_2
REMARK    2  A    between atoms: O_2  and  C_3
REMARK    3  A    between atoms: C_8  and  C_9
REMARK    4  A    between atoms: C_10  and  C_11
REMARK    5  A    between atoms: C_11  and  C_13
REMARK    6  A    between atoms: C_13  and  C_14
REMARK    7  A    between atoms: C_14  and  O_15
REMARK    8  A    between atoms: N_25  and  C_26
REMARK    9  A    between atoms: C_29  and  C_30
REMARK                            x       y       z     vdW  Elec       q    Type
REMARK                         _______ _______ _______ _____ _____    ______ ____
ROOT
ATOM      1  C   UNL     1      -2.985  12.068  20.338  0.00  0.00    +0.000 C 
ATOM      2  C   UNL     1      -4.474  11.869  19.919  0.00  0.00    +0.000 C 
ATOM      3  C   UNL     1      -4.270  11.395  18.501  0.00  0.00    +0.000 C 
ATOM      4  O   UNL     1      -5.133  10.888  17.800  0.00  0.00    +0.000 OA
ATOM      5  C   UNL     1      -2.850  11.712  18.027  0.00  0.00    +0.000 C 
ATOM      6  O   UNL     1      -2.448  11.488  16.905  0.00  0.00    +0.000 OA
ATOM      7  N   UNL     1      -2.211  12.267  19.109  0.00  0.00    +0.000 N 
ENDROOT
BRANCH   1  13
ATOM      8  C   UNL     1      -2.133  12.683  22.688  0.00  0.00    +0.000 A 
ATOM      9  C   UNL     1      -1.445  13.608  23.490  0.00  0.00    +0.000 A 
ATOM     10  C   UNL     1      -1.223  14.916  23.061  0.00  0.00    +0.000 A 
ATOM     11  C   UNL     1      -1.722  15.325  21.836  0.00  0.00    +0.000 A 
ATOM     12  C   UNL     1      -2.416  14.422  21.040  0.00  0.00    +0.000 A 
ATOM     13  C   UNL     1      -2.610  13.071  21.418  0.00  0.00    +0.000 A 
BRANCH   8  15
ATOM     14  C   UNL     1      -0.804  10.734  23.073  0.00  0.00    +0.000 C 
ATOM     15  O   UNL     1      -2.057  11.401  23.159  0.00  0.00    +0.000 OA
ENDBRANCH   8  15
ENDBRANCH   1  13
BRANCH   7  16
ATOM     16  C   UNL     1      -0.825  12.558  19.143  0.00  0.00    +0.000 A 
ATOM     17  C   UNL     1      -0.422  13.772  18.581  0.00  0.00    +0.000 A 
ATOM     18  C   UNL     1       0.856  14.286  18.826  0.00  0.00    +0.000 A 
ATOM     19  C   UNL     1       1.779  13.565  19.597  0.00  0.00    +0.000 A 
ATOM     20  C   UNL     1       1.400  12.310  20.091  0.00  0.00    +0.000 A 
ATOM     21  C   UNL     1       0.092  11.812  19.890  0.00  0.00    +0.000 A 
BRANCH  19  22
ATOM     22  C   UNL     1       3.099  14.141  19.875  0.00  0.00    +0.000 A 
ATOM     23  C   UNL     1       3.744  14.284  21.138  0.00  0.00    +0.000 A 
ATOM     24  C   UNL     1       4.924  14.918  20.861  0.00  0.00    +0.000 A 
ATOM     25  O   UNL     1       5.015  15.130  19.528  0.00  0.00    +0.000 OA
ATOM     26  N   UNL     1       3.887  14.631  18.902  0.00  0.00    +0.000 NA
ENDBRANCH  19  22
ENDBRANCH   7  16
BRANCH   2  27
ATOM     27  C   UNL     1      -5.461  13.043  19.898  0.00  0.00    +0.000 C 
ATOM     28  O   UNL     1      -5.352  13.898  19.006  0.00  0.00    +0.000 OA
BRANCH  27  29
ATOM     29  C   UNL     1      -6.717  13.060  20.828  0.00  0.00    +0.000 C 
ATOM     30  C   UNL     1      -6.411  12.835  22.324  0.00  0.00    +0.000 C 
ATOM     31  C   UNL     1      -5.594  13.970  22.933  0.00  0.00    +0.000 C 
ATOM     32  C   UNL     1      -6.261  15.329  22.747  0.00  0.00    +0.000 C 
ATOM     33  C   UNL     1      -6.677  15.590  21.304  0.00  0.00    +0.000 C 
ATOM     34  C   UNL     1      -7.462  14.421  20.708  0.00  0.00    +0.000 C 
BRANCH  29  35
ATOM     35  C   UNL     1      -7.687  11.971  20.316  0.00  0.00    +0.000 C 
BRANCH  35  36
ATOM     36  O   UNL     1      -7.730  11.957  18.896  0.00  0.00    +0.000 OA
ATOM     37  H   UNL     1      -8.515  11.432  18.622  0.00  0.00    +0.000 HD
ENDBRANCH  35  36
ENDBRANCH  29  35
ENDBRANCH  27  29
ENDBRANCH   2  27
TORSDOF 8
ENDMDL
