MODEL 1
REMARK VINA RESULT:      -8.4      0.000      0.000
REMARK  Name = 
REMARK  5 active torsions:
REMARK  status: ('A' for Active; 'I' for Inactive)
REMARK    1  A    between atoms: C_1  and  C_2
REMARK    2  A    between atoms: C_2  and  C_3
REMARK    3  A    between atoms: C_3  and  C_4
REMARK    4  A    between atoms: N_6  and  C_7
REMARK    5  A    between atoms: N_11  and  C_12
REMARK                            x       y       z     vdW  Elec       q    Type
REMARK                         _______ _______ _______ _____ _____    ______ ____
ROOT
ATOM      1  C   UNL     1       6.729   4.865  15.424  0.00  0.00    +0.000 A 
ATOM      2  N   UNL     1       7.507   5.826  15.957  0.00  0.00    +0.000 NA
ATOM      3  N   UNL     1       7.062   5.943  17.233  0.00  0.00    +0.000 N 
ATOM      4  C   UNL     1       7.735   6.829  18.154  0.00  0.00    +0.000 C 
ATOM      5  C   UNL     1       6.004   5.134  17.497  0.00  0.00    +0.000 A 
ATOM      6  C   UNL     1       5.199   4.968  18.653  0.00  0.00    +0.000 A 
ATOM      7  O   UNL     1       5.391   5.629  19.669  0.00  0.00    +0.000 OA
ATOM      8  N   UNL     1       4.220   3.970  18.470  0.00  0.00    +0.000 N 
ATOM      9  N   UNL     1       4.114   3.216  17.296  0.00  0.00    +0.000 NA
ATOM     10  N   UNL     1       4.836   3.424  16.286  0.00  0.00    +0.000 NA
ATOM     11  C   UNL     1       5.807   4.407  16.372  0.00  0.00    +0.000 A 
ENDROOT
BRANCH   8  12
ATOM     12  C   UNL     1       3.238   3.629  19.455  0.00  0.00    +0.000 A 
ATOM     13  C   UNL     1       3.530   2.794  20.544  0.00  0.00    +0.000 A 
ATOM     14  C   UNL     1       2.558   2.485  21.500  0.00  0.00    +0.000 A 
ATOM     15  C   UNL     1       1.270   2.997  21.382  0.00  0.00    +0.000 A 
ATOM     16  C   UNL     1       0.956   3.830  20.313  0.00  0.00    +0.000 A 
ATOM     17  C   UNL     1       1.934   4.152  19.367  0.00  0.00    +0.000 A 
ENDBRANCH   8  12
BRANCH   1  18
ATOM     18  C   UNL     1       6.890   4.441  14.005  0.00  0.00    +0.000 C 
BRANCH  18  20
ATOM     19  C   UNL     1       5.799   3.177  12.124  0.00  0.00    +0.000 C 
ATOM     20  C   UNL     1       5.567   4.047  13.349  0.00  0.00    +0.000 C 
ENDBRANCH  18  20
ENDBRANCH   1  18
TORSDOF 3
ENDMDL
MODEL 2
REMARK VINA RESULT:      -8.4      0.052      1.076
REMARK  Name = 
REMARK  5 active torsions:
REMARK  status: ('A' for Active; 'I' for Inactive)
REMARK    1  A    between atoms: C_1  and  C_2
REMARK    2  A    between atoms: C_2  and  C_3
REMARK    3  A    between atoms: C_3  and  C_4
REMARK    4  A    between atoms: N_6  and  C_7
REMARK    5  A    between atoms: N_11  and  C_12
REMARK                            x       y       z     vdW  Elec       q    Type
REMARK                         _______ _______ _______ _____ _____    ______ ____
ROOT
ATOM      1  C   UNL     1       6.724   4.832  15.454  0.00  0.00    +0.000 A 
ATOM      2  N   UNL     1       7.513   5.788  15.979  0.00  0.00    +0.000 NA
ATOM      3  N   UNL     1       7.068   5.922  17.254  0.00  0.00    +0.000 N 
ATOM      4  C   UNL     1       7.750   6.807  18.168  0.00  0.00    +0.000 C 
ATOM      5  C   UNL     1       5.999   5.128  17.523  0.00  0.00    +0.000 A 
ATOM      6  C   UNL     1       5.189   4.984  18.679  0.00  0.00    +0.000 A 
ATOM      7  O   UNL     1       5.388   5.650  19.689  0.00  0.00    +0.000 OA
ATOM      8  N   UNL     1       4.198   3.996  18.503  0.00  0.00    +0.000 N 
ATOM      9  N   UNL     1       4.085   3.233  17.335  0.00  0.00    +0.000 NA
ATOM     10  N   UNL     1       4.811   3.423  16.325  0.00  0.00    +0.000 NA
ATOM     11  C   UNL     1       5.795   4.394  16.404  0.00  0.00    +0.000 A 
ENDROOT
BRANCH   8  12
ATOM     12  C   UNL     1       3.210   3.676  19.489  0.00  0.00    +0.000 A 
ATOM     13  C   UNL     1       1.912   4.206  19.445  0.00  0.00    +0.000 A 
ATOM     14  C   UNL     1       0.960   3.869  20.413  0.00  0.00    +0.000 A 
ATOM     15  C   UNL     1       1.290   3.003  21.450  0.00  0.00    +0.000 A 
ATOM     16  C   UNL     1       2.570   2.461  21.513  0.00  0.00    +0.000 A 
ATOM     17  C   UNL     1       3.515   2.786  20.536  0.00  0.00    +0.000 A 
ENDBRANCH   8  12
BRANCH   1  18
ATOM     18  C   UNL     1       6.882   4.392  14.039  0.00  0.00    +0.000 C 
BRANCH  18  20
ATOM     19  C   UNL     1       5.766   3.203  12.124  0.00  0.00    +0.000 C 
ATOM     20  C   UNL     1       5.552   4.044  13.373  0.00  0.00    +0.000 C 
ENDBRANCH  18  20
ENDBRANCH   1  18
TORSDOF 3
ENDMDL
MODEL 3
REMARK VINA RESULT:      -7.7      0.699      1.001
REMARK  Name = 
REMARK  5 active torsions:
REMARK  status: ('A' for Active; 'I' for Inactive)
REMARK    1  A    between atoms: C_1  and  C_2
REMARK    2  A    between atoms: C_2  and  C_3
REMARK    3  A    between atoms: C_3  and  C_4
REMARK    4  A    between atoms: N_6  and  C_7
REMARK    5  A    between atoms: N_11  and  C_12
REMARK                            x       y       z     vdW  Elec       q    Type
REMARK                         _______ _______ _______ _____ _____    ______ ____
ROOT
ATOM      1  C   UNL     1       6.603   5.024  15.325  0.00  0.00    +0.000 A 
ATOM      2  N   UNL     1       7.454   5.901  15.892  0.00  0.00    +0.000 NA
ATOM      3  N   UNL     1       7.059   5.952  17.189  0.00  0.00    +0.000 N 
ATOM      4  C   UNL     1       7.813   6.733  18.143  0.00  0.00    +0.000 C 
ATOM      5  C   UNL     1       5.965   5.187  17.437  0.00  0.00    +0.000 A 
ATOM      6  C   UNL     1       5.190   4.987  18.609  0.00  0.00    +0.000 A 
ATOM      7  O   UNL     1       5.455   5.562  19.659  0.00  0.00    +0.000 OA
ATOM      8  N   UNL     1       4.150   4.060  18.395  0.00  0.00    +0.000 N 
ATOM      9  N   UNL     1       3.960   3.397  17.177  0.00  0.00    +0.000 NA
ATOM     10  N   UNL     1       4.659   3.634  16.157  0.00  0.00    +0.000 NA
ATOM     11  C   UNL     1       5.688   4.553  16.273  0.00  0.00    +0.000 A 
ENDROOT
BRANCH   8  12
ATOM     12  C   UNL     1       3.182   3.706  19.391  0.00  0.00    +0.000 A 
ATOM     13  C   UNL     1       3.478   2.820  20.437  0.00  0.00    +0.000 A 
ATOM     14  C   UNL     1       2.520   2.499  21.405  0.00  0.00    +0.000 A 
ATOM     15  C   UNL     1       1.245   3.051  21.341  0.00  0.00    +0.000 A 
ATOM     16  C   UNL     1       0.929   3.935  20.314  0.00  0.00    +0.000 A 
ATOM     17  C   UNL     1       1.892   4.268  19.357  0.00  0.00    +0.000 A 
ENDBRANCH   8  12
BRANCH   1  18
ATOM     18  C   UNL     1       6.692   4.691  13.876  0.00  0.00    +0.000 C 
BRANCH  18  20
ATOM     19  C   UNL     1       7.949   5.961  12.105  0.00  0.00    +0.000 C 
ATOM     20  C   UNL     1       8.064   4.999  13.278  0.00  0.00    +0.000 C 
ENDBRANCH  18  20
ENDBRANCH   1  18
TORSDOF 3
ENDMDL
MODEL 4
REMARK VINA RESULT:      -7.4      1.748      3.749
REMARK  Name = 
REMARK  5 active torsions:
REMARK  status: ('A' for Active; 'I' for Inactive)
REMARK    1  A    between atoms: C_1  and  C_2
REMARK    2  A    between atoms: C_2  and  C_3
REMARK    3  A    between atoms: C_3  and  C_4
REMARK    4  A    between atoms: N_6  and  C_7
REMARK    5  A    between atoms: N_11  and  C_12
REMARK                            x       y       z     vdW  Elec       q    Type
REMARK                         _______ _______ _______ _____ _____    ______ ____
ROOT
ATOM      1  C   UNL     1       7.281   6.557  17.503  0.00  0.00    +0.000 A 
ATOM      2  N   UNL     1       7.502   6.137  16.244  0.00  0.00    +0.000 NA
ATOM      3  N   UNL     1       6.464   5.303  15.986  0.00  0.00    +0.000 N 
ATOM      4  C   UNL     1       6.311   4.725  14.671  0.00  0.00    +0.000 C 
ATOM      5  C   UNL     1       5.638   5.146  17.053  0.00  0.00    +0.000 A 
ATOM      6  C   UNL     1       4.486   4.343  17.252  0.00  0.00    +0.000 A 
ATOM      7  O   UNL     1       4.058   3.602  16.372  0.00  0.00    +0.000 OA
ATOM      8  N   UNL     1       3.929   4.537  18.533  0.00  0.00    +0.000 N 
ATOM      9  N   UNL     1       4.445   5.455  19.455  0.00  0.00    +0.000 NA
ATOM     10  N   UNL     1       5.490   6.122  19.238  0.00  0.00    +0.000 NA
ATOM     11  C   UNL     1       6.116   5.972  18.012  0.00  0.00    +0.000 A 
ENDROOT
BRANCH   8  12
ATOM     12  C   UNL     1       2.791   3.818  19.024  0.00  0.00    +0.000 A 
ATOM     13  C   UNL     1       1.863   3.212  18.164  0.00  0.00    +0.000 A 
ATOM     14  C   UNL     1       0.766   2.505  18.667  0.00  0.00    +0.000 A 
ATOM     15  C   UNL     1       0.570   2.398  20.039  0.00  0.00    +0.000 A 
ATOM     16  C   UNL     1       1.479   2.986  20.913  0.00  0.00    +0.000 A 
ATOM     17  C   UNL     1       2.584   3.678  20.409  0.00  0.00    +0.000 A 
ENDBRANCH   8  12
BRANCH   1  18
ATOM     18  C   UNL     1       8.220   7.495  18.180  0.00  0.00    +0.000 C 
BRANCH  18  20
ATOM     19  C   UNL     1       8.885   9.885  18.593  0.00  0.00    +0.000 C 
ATOM     20  C   UNL     1       7.973   8.956  17.808  0.00  0.00    +0.000 C 
ENDBRANCH  18  20
ENDBRANCH   1  18
TORSDOF 3
ENDMDL
MODEL 5
REMARK VINA RESULT:      -7.3      1.776      3.750
REMARK  Name = 
REMARK  5 active torsions:
REMARK  status: ('A' for Active; 'I' for Inactive)
REMARK    1  A    between atoms: C_1  and  C_2
REMARK    2  A    between atoms: C_2  and  C_3
REMARK    3  A    between atoms: C_3  and  C_4
REMARK    4  A    between atoms: N_6  and  C_7
REMARK    5  A    between atoms: N_11  and  C_12
REMARK                            x       y       z     vdW  Elec       q    Type
REMARK                         _______ _______ _______ _____ _____    ______ ____
ROOT
ATOM      1  C   UNL     1       7.311   6.614  17.491  0.00  0.00    +0.000 A 
ATOM      2  N   UNL     1       7.544   6.221  16.224  0.00  0.00    +0.000 NA
ATOM      3  N   UNL     1       6.501   5.404  15.934  0.00  0.00    +0.000 N 
ATOM      4  C   UNL     1       6.359   4.858  14.604  0.00  0.00    +0.000 C 
ATOM      5  C   UNL     1       5.661   5.229  16.987  0.00  0.00    +0.000 A 
ATOM      6  C   UNL     1       4.498   4.433  17.154  0.00  0.00    +0.000 A 
ATOM      7  O   UNL     1       4.075   3.718  16.251  0.00  0.00    +0.000 OA
ATOM      8  N   UNL     1       3.928   4.603  18.432  0.00  0.00    +0.000 N 
ATOM      9  N   UNL     1       4.441   5.494  19.381  0.00  0.00    +0.000 NA
ATOM     10  N   UNL     1       5.495   6.156  19.193  0.00  0.00    +0.000 NA
ATOM     11  C   UNL     1       6.134   6.028  17.972  0.00  0.00    +0.000 A 
ENDROOT
BRANCH   8  12
ATOM     12  C   UNL     1       2.777   3.884  18.891  0.00  0.00    +0.000 A 
ATOM     13  C   UNL     1       2.098   4.234  20.068  0.00  0.00    +0.000 A 
ATOM     14  C   UNL     1       0.969   3.525  20.490  0.00  0.00    +0.000 A 
ATOM     15  C   UNL     1       0.501   2.445  19.748  0.00  0.00    +0.000 A 
ATOM     16  C   UNL     1       1.155   2.080  18.575  0.00  0.00    +0.000 A 
ATOM     17  C   UNL     1       2.274   2.801  18.147  0.00  0.00    +0.000 A 
ENDBRANCH   8  12
BRANCH   1  18
ATOM     18  C   UNL     1       8.251   7.526  18.201  0.00  0.00    +0.000 C 
BRANCH  18  20
ATOM     19  C   UNL     1       8.950   9.898  18.659  0.00  0.00    +0.000 C 
ATOM     20  C   UNL     1       8.020   8.998  17.862  0.00  0.00    +0.000 C 
ENDBRANCH  18  20
ENDBRANCH   1  18
TORSDOF 3
ENDMDL
MODEL 6
REMARK VINA RESULT:      -7.1      1.585      3.496
REMARK  Name = 
REMARK  5 active torsions:
REMARK  status: ('A' for Active; 'I' for Inactive)
REMARK    1  A    between atoms: C_1  and  C_2
REMARK    2  A    between atoms: C_2  and  C_3
REMARK    3  A    between atoms: C_3  and  C_4
REMARK    4  A    between atoms: N_6  and  C_7
REMARK    5  A    between atoms: N_11  and  C_12
REMARK                            x       y       z     vdW  Elec       q    Type
REMARK                         _______ _______ _______ _____ _____    ______ ____
ROOT
ATOM      1  C   UNL     1       7.217   6.354  17.342  0.00  0.00    +0.000 A 
ATOM      2  N   UNL     1       7.264   5.823  16.105  0.00  0.00    +0.000 NA
ATOM      3  N   UNL     1       6.206   4.975  16.069  0.00  0.00    +0.000 N 
ATOM      4  C   UNL     1       5.876   4.284  14.844  0.00  0.00    +0.000 C 
ATOM      5  C   UNL     1       5.537   4.917  17.250  0.00  0.00    +0.000 A 
ATOM      6  C   UNL     1       4.430   4.140  17.678  0.00  0.00    +0.000 A 
ATOM      7  O   UNL     1       3.890   3.328  16.934  0.00  0.00    +0.000 OA
ATOM      8  N   UNL     1       4.056   4.450  19.002  0.00  0.00    +0.000 N 
ATOM      9  N   UNL     1       4.688   5.443  19.758  0.00  0.00    +0.000 NA
ATOM     10  N   UNL     1       5.688   6.083  19.340  0.00  0.00    +0.000 NA
ATOM     11  C   UNL     1       6.138   5.822  18.057  0.00  0.00    +0.000 A 
ENDROOT
BRANCH   8  12
ATOM     12  C   UNL     1       3.002   3.783  19.707  0.00  0.00    +0.000 A 
ATOM     13  C   UNL     1       3.245   2.989  20.837  0.00  0.00    +0.000 A 
ATOM     14  C   UNL     1       2.198   2.358  21.517  0.00  0.00    +0.000 A 
ATOM     15  C   UNL     1       0.887   2.500  21.074  0.00  0.00    +0.000 A 
ATOM     16  C   UNL     1       0.620   3.285  19.956  0.00  0.00    +0.000 A 
ATOM     17  C   UNL     1       1.666   3.929  19.289  0.00  0.00    +0.000 A 
ENDBRANCH   8  12
BRANCH   1  18
ATOM     18  C   UNL     1       8.234   7.343  17.796  0.00  0.00    +0.000 C 
BRANCH  18  20
ATOM     19  C   UNL     1       8.709   9.745  18.369  0.00  0.00    +0.000 C 
ATOM     20  C   UNL     1       7.755   8.788  17.673  0.00  0.00    +0.000 C 
ENDBRANCH  18  20
ENDBRANCH   1  18
TORSDOF 3
ENDMDL
MODEL 7
REMARK VINA RESULT:      -7.1      1.891      6.343
REMARK  Name = 
REMARK  5 active torsions:
REMARK  status: ('A' for Active; 'I' for Inactive)
REMARK    1  A    between atoms: C_1  and  C_2
REMARK    2  A    between atoms: C_2  and  C_3
REMARK    3  A    between atoms: C_3  and  C_4
REMARK    4  A    between atoms: N_6  and  C_7
REMARK    5  A    between atoms: N_11  and  C_12
REMARK                            x       y       z     vdW  Elec       q    Type
REMARK                         _______ _______ _______ _____ _____    ______ ____
ROOT
ATOM      1  C   UNL     1       3.194   4.765  19.335  0.00  0.00    +0.000 A 
ATOM      2  N   UNL     1       2.863   6.065  19.455  0.00  0.00    +0.000 NA
ATOM      3  N   UNL     1       3.321   6.630  18.310  0.00  0.00    +0.000 N 
ATOM      4  C   UNL     1       3.058   8.024  18.037  0.00  0.00    +0.000 C 
ATOM      5  C   UNL     1       3.972   5.746  17.510  0.00  0.00    +0.000 A 
ATOM      6  C   UNL     1       4.648   5.902  16.273  0.00  0.00    +0.000 A 
ATOM      7  O   UNL     1       4.736   6.995  15.723  0.00  0.00    +0.000 OA
ATOM      8  N   UNL     1       5.150   4.675  15.793  0.00  0.00    +0.000 N 
ATOM      9  N   UNL     1       4.945   3.459  16.455  0.00  0.00    +0.000 NA
ATOM     10  N   UNL     1       4.362   3.380  17.568  0.00  0.00    +0.000 NA
ATOM     11  C   UNL     1       3.861   4.545  18.124  0.00  0.00    +0.000 A 
ENDROOT
BRANCH   8  12
ATOM     12  C   UNL     1       5.919   4.545  14.592  0.00  0.00    +0.000 A 
ATOM     13  C   UNL     1       7.136   5.218  14.407  0.00  0.00    +0.000 A 
ATOM     14  C   UNL     1       7.875   5.065  13.229  0.00  0.00    +0.000 A 
ATOM     15  C   UNL     1       7.408   4.245  12.209  0.00  0.00    +0.000 A 
ATOM     16  C   UNL     1       6.205   3.564  12.370  0.00  0.00    +0.000 A 
ATOM     17  C   UNL     1       5.476   3.704  13.554  0.00  0.00    +0.000 A 
ENDBRANCH   8  12
BRANCH   1  18
ATOM     18  C   UNL     1       2.874   3.785  20.410  0.00  0.00    +0.000 C 
BRANCH  18  20
ATOM     19  C   UNL     1       0.827   2.817  19.317  0.00  0.00    +0.000 C 
ATOM     20  C   UNL     1       1.375   3.522  20.547  0.00  0.00    +0.000 C 
ENDBRANCH  18  20
ENDBRANCH   1  18
TORSDOF 3
ENDMDL
MODEL 8
REMARK VINA RESULT:      -7.0      3.282      4.352
REMARK  Name = 
REMARK  5 active torsions:
REMARK  status: ('A' for Active; 'I' for Inactive)
REMARK    1  A    between atoms: C_1  and  C_2
REMARK    2  A    between atoms: C_2  and  C_3
REMARK    3  A    between atoms: C_3  and  C_4
REMARK    4  A    between atoms: N_6  and  C_7
REMARK    5  A    between atoms: N_11  and  C_12
REMARK                            x       y       z     vdW  Elec       q    Type
REMARK                         _______ _______ _______ _____ _____    ______ ____
ROOT
ATOM      1  C   UNL     1       5.078   4.075  16.607  0.00  0.00    +0.000 A 
ATOM      2  N   UNL     1       4.531   2.918  17.025  0.00  0.00    +0.000 NA
ATOM      3  N   UNL     1       3.475   3.306  17.783  0.00  0.00    +0.000 N 
ATOM      4  C   UNL     1       2.578   2.316  18.333  0.00  0.00    +0.000 C 
ATOM      5  C   UNL     1       3.378   4.656  17.898  0.00  0.00    +0.000 A 
ATOM      6  C   UNL     1       2.486   5.486  18.623  0.00  0.00    +0.000 A 
ATOM      7  O   UNL     1       1.594   5.015  19.321  0.00  0.00    +0.000 OA
ATOM      8  N   UNL     1       2.753   6.854  18.409  0.00  0.00    +0.000 N 
ATOM      9  N   UNL     1       3.753   7.306  17.539  0.00  0.00    +0.000 NA
ATOM     10  N   UNL     1       4.539   6.524  16.942  0.00  0.00    +0.000 NA
ATOM     11  C   UNL     1       4.362   5.163  17.119  0.00  0.00    +0.000 A 
ENDROOT
BRANCH   8  12
ATOM     12  C   UNL     1       2.040   7.915  19.055  0.00  0.00    +0.000 A 
ATOM     13  C   UNL     1       1.733   7.885  20.423  0.00  0.00    +0.000 A 
ATOM     14  C   UNL     1       1.046   8.939  21.034  0.00  0.00    +0.000 A 
ATOM     15  C   UNL     1       0.645  10.041  20.287  0.00  0.00    +0.000 A 
ATOM     16  C   UNL     1       0.941  10.097  18.928  0.00  0.00    +0.000 A 
ATOM     17  C   UNL     1       1.642   9.050  18.323  0.00  0.00    +0.000 A 
ENDBRANCH   8  12
BRANCH   1  18
ATOM     18  C   UNL     1       6.292   4.086  15.744  0.00  0.00    +0.000 C 
BRANCH  18  20
ATOM     19  C   UNL     1       6.222   3.713  13.258  0.00  0.00    +0.000 C 
ATOM     20  C   UNL     1       6.045   4.725  14.379  0.00  0.00    +0.000 C 
ENDBRANCH  18  20
ENDBRANCH   1  18
TORSDOF 3
ENDMDL
MODEL 9
REMARK VINA RESULT:      -6.9      3.748      4.761
REMARK  Name = 
REMARK  5 active torsions:
REMARK  status: ('A' for Active; 'I' for Inactive)
REMARK    1  A    between atoms: C_1  and  C_2
REMARK    2  A    between atoms: C_2  and  C_3
REMARK    3  A    between atoms: C_3  and  C_4
REMARK    4  A    between atoms: N_6  and  C_7
REMARK    5  A    between atoms: N_11  and  C_12
REMARK                            x       y       z     vdW  Elec       q    Type
REMARK                         _______ _______ _______ _____ _____    ______ ____
ROOT
ATOM      1  C   UNL     1       4.558   5.096  17.239  0.00  0.00    +0.000 A 
ATOM      2  N   UNL     1       4.463   3.924  17.895  0.00  0.00    +0.000 NA
ATOM      3  N   UNL     1       3.591   4.179  18.902  0.00  0.00    +0.000 N 
ATOM      4  C   UNL     1       3.163   3.111  19.775  0.00  0.00    +0.000 C 
ATOM      5  C   UNL     1       3.184   5.475  18.931  0.00  0.00    +0.000 A 
ATOM      6  C   UNL     1       2.340   6.187  19.821  0.00  0.00    +0.000 A 
ATOM      7  O   UNL     1       1.825   5.641  20.792  0.00  0.00    +0.000 OA
ATOM      8  N   UNL     1       2.177   7.530  19.425  0.00  0.00    +0.000 N 
ATOM      9  N   UNL     1       2.751   8.055  18.261  0.00  0.00    +0.000 NA
ATOM     10  N   UNL     1       3.518   7.386  17.520  0.00  0.00    +0.000 NA
ATOM     11  C   UNL     1       3.753   6.062  17.852  0.00  0.00    +0.000 A 
ENDROOT
BRANCH   8  12
ATOM     12  C   UNL     1       1.419   8.492  20.167  0.00  0.00    +0.000 A 
ATOM     13  C   UNL     1       1.353   8.473  21.568  0.00  0.00    +0.000 A 
ATOM     14  C   UNL     1       0.616   9.430  22.272  0.00  0.00    +0.000 A 
ATOM     15  C   UNL     1      -0.079  10.422  21.588  0.00  0.00    +0.000 A 
ATOM     16  C   UNL     1      -0.027  10.465  20.198  0.00  0.00    +0.000 A 
ATOM     17  C   UNL     1       0.724   9.517  19.497  0.00  0.00    +0.000 A 
ENDBRANCH   8  12
BRANCH   1  18
ATOM     18  C   UNL     1       5.446   5.245  16.052  0.00  0.00    +0.000 C 
BRANCH  18  20
ATOM     19  C   UNL     1       6.271   4.081  13.980  0.00  0.00    +0.000 C 
ATOM     20  C   UNL     1       5.831   3.906  15.426  0.00  0.00    +0.000 C 
ENDBRANCH  18  20
ENDBRANCH   1  18
TORSDOF 3
ENDMDL
