MODEL 1
REMARK VINA RESULT:      -7.1      0.000      0.000
REMARK  Name = 
REMARK  12 active torsions:
REMARK  status: ('A' for Active; 'I' for Inactive)
REMARK    1  A    between atoms: C_1  and  O_2
REMARK    2  A    between atoms: O_2  and  C_3
REMARK    3  A    between atoms: C_5  and  C_6
REMARK    4  A    between atoms: C_6  and  C_7
REMARK    5  A    between atoms: C_7  and  O_9
REMARK    6  A    between atoms: O_9  and  C_10
REMARK    7  A    between atoms: C_10  and  C_11
REMARK    8  A    between atoms: C_18  and  C_19
REMARK    9  A    between atoms: C_21  and  O_22
REMARK   10  A    between atoms: O_22  and  C_23
REMARK   11  A    between atoms: C_24  and  O_25
REMARK   12  A    between atoms: O_25  and  C_26
REMARK                            x       y       z     vdW  Elec       q    Type
REMARK                         _______ _______ _______ _____ _____    ______ ____
ROOT
ATOM      1  C   UNL     1       1.865   8.589  17.912  0.00  0.00    +0.000 C 
ENDROOT
BRANCH   1   4
ATOM      2  C   UNL     1       0.075  10.665  20.622  0.00  0.00    +0.000 A 
ATOM      3  C   UNL     1       0.935   9.736  20.005  0.00  0.00    +0.000 A 
ATOM      4  C   UNL     1       0.849   9.445  18.645  0.00  0.00    +0.000 A 
ATOM      5  C   UNL     1      -0.211  10.021  17.932  0.00  0.00    +0.000 A 
ATOM      6  C   UNL     1      -1.138  10.893  18.539  0.00  0.00    +0.000 A 
ATOM      7  C   UNL     1      -1.000  11.230  19.904  0.00  0.00    +0.000 A 
BRANCH   2   9
ATOM      8  C   UNL     1      -0.437  10.219  22.894  0.00  0.00    +0.000 C 
ATOM      9  O   UNL     1       0.274  11.007  21.938  0.00  0.00    +0.000 OA
ENDBRANCH   2   9
BRANCH   6  10
ATOM     10  O   UNL     1      -2.081  11.325  17.639  0.00  0.00    +0.000 OA
ATOM     11  C   UNL     1      -2.461  10.486  16.558  0.00  0.00    +0.000 C 
ENDBRANCH   6  10
BRANCH   7  12
ATOM     12  O   UNL     1      -1.955  12.064  20.420  0.00  0.00    +0.000 OA
ATOM     13  C   UNL     1      -1.776  13.471  20.405  0.00  0.00    +0.000 C 
ENDBRANCH   7  12
ENDBRANCH   1   4
BRANCH   1  14
ATOM     14  C   UNL     1       2.514   7.474  18.711  0.00  0.00    +0.000 C 
ATOM     15  O   UNL     1       2.102   7.056  19.788  0.00  0.00    +0.000 OA
BRANCH  14  16
ATOM     16  O   UNL     1       3.658   7.034  18.104  0.00  0.00    +0.000 OA
BRANCH  16  17
ATOM     17  C   UNL     1       3.622   5.666  17.676  0.00  0.00    +0.000 C 
BRANCH  17  18
ATOM     18  C   UNL     1       4.122   4.667  18.731  0.00  0.00    +0.000 C 
ATOM     19  O   UNL     1       5.304   4.676  19.088  0.00  0.00    +0.000 OA
ATOM     20  N   UNL     1       3.181   3.812  19.314  0.00  0.00    +0.000 N 
ATOM     21  C   UNL     1       3.619   2.930  20.400  0.00  0.00    +0.000 C 
ATOM     22  C   UNL     1       2.674   3.018  21.597  0.00  0.00    +0.000 C 
ATOM     23  C   UNL     1       1.221   2.787  21.193  0.00  0.00    +0.000 C 
ATOM     24  C   UNL     1       0.822   3.703  20.038  0.00  0.00    +0.000 C 
ATOM     25  C   UNL     1       1.793   3.617  18.850  0.00  0.00    +0.000 C 
ATOM     26  C   UNL     1       1.638   2.296  18.085  0.00  0.00    +0.000 C 
ENDBRANCH  17  18
ENDBRANCH  16  17
ENDBRANCH  14  16
ENDBRANCH   1  14
TORSDOF 8
ENDMDL
MODEL 2
REMARK VINA RESULT:      -7.0      6.186      9.733
REMARK  Name = 
REMARK  12 active torsions:
REMARK  status: ('A' for Active; 'I' for Inactive)
REMARK    1  A    between atoms: C_1  and  O_2
REMARK    2  A    between atoms: O_2  and  C_3
REMARK    3  A    between atoms: C_5  and  C_6
REMARK    4  A    between atoms: C_6  and  C_7
REMARK    5  A    between atoms: C_7  and  O_9
REMARK    6  A    between atoms: O_9  and  C_10
REMARK    7  A    between atoms: C_10  and  C_11
REMARK    8  A    between atoms: C_18  and  C_19
REMARK    9  A    between atoms: C_21  and  O_22
REMARK   10  A    between atoms: O_22  and  C_23
REMARK   11  A    between atoms: C_24  and  O_25
REMARK   12  A    between atoms: O_25  and  C_26
REMARK                            x       y       z     vdW  Elec       q    Type
REMARK                         _______ _______ _______ _____ _____    ______ ____
ROOT
ATOM      1  C   UNL     1       7.774   6.344  18.601  0.00  0.00    +0.000 C 
ENDROOT
BRANCH   1   4
ATOM      2  C   UNL     1       4.175   4.988  18.871  0.00  0.00    +0.000 A 
ATOM      3  C   UNL     1       5.436   5.503  19.228  0.00  0.00    +0.000 A 
ATOM      4  C   UNL     1       6.467   5.633  18.299  0.00  0.00    +0.000 A 
ATOM      5  C   UNL     1       6.245   5.113  17.018  0.00  0.00    +0.000 A 
ATOM      6  C   UNL     1       5.021   4.517  16.652  0.00  0.00    +0.000 A 
ATOM      7  C   UNL     1       3.961   4.452  17.584  0.00  0.00    +0.000 A 
BRANCH   2   9
ATOM      8  C   UNL     1       3.086   3.842  20.638  0.00  0.00    +0.000 C 
ATOM      9  O   UNL     1       3.153   4.990  19.790  0.00  0.00    +0.000 OA
ENDBRANCH   2   9
BRANCH   6  10
ATOM     10  O   UNL     1       5.045   4.084  15.348  0.00  0.00    +0.000 OA
ATOM     11  C   UNL     1       6.287   3.776  14.731  0.00  0.00    +0.000 C 
ENDBRANCH   6  10
BRANCH   7  12
ATOM     12  O   UNL     1       2.815   3.838  17.155  0.00  0.00    +0.000 OA
ATOM     13  C   UNL     1       2.581   2.466  17.425  0.00  0.00    +0.000 C 
ENDBRANCH   7  12
ENDBRANCH   1   4
BRANCH   1  14
ATOM     14  C   UNL     1       7.930   7.743  18.035  0.00  0.00    +0.000 C 
ATOM     15  O   UNL     1       7.496   8.109  16.947  0.00  0.00    +0.000 OA
BRANCH  14  16
ATOM     16  O   UNL     1       8.673   8.533  18.869  0.00  0.00    +0.000 OA
BRANCH  16  17
ATOM     17  C   UNL     1       8.892   9.867  18.395  0.00  0.00    +0.000 C 
BRANCH  17  18
ATOM     18  C   UNL     1       9.341  10.854  19.485  0.00  0.00    +0.000 C 
ATOM     19  O   UNL     1       9.508  10.467  20.645  0.00  0.00    +0.000 OA
ATOM     20  N   UNL     1       9.618  12.169  19.097  0.00  0.00    +0.000 N 
ATOM     21  C   UNL     1      10.153  13.093  20.101  0.00  0.00    +0.000 C 
ATOM     22  C   UNL     1      11.384  13.827  19.574  0.00  0.00    +0.000 C 
ATOM     23  C   UNL     1      11.116  14.500  18.231  0.00  0.00    +0.000 C 
ATOM     24  C   UNL     1      10.529  13.506  17.231  0.00  0.00    +0.000 C 
ATOM     25  C   UNL     1       9.302  12.762  17.783  0.00  0.00    +0.000 C 
ATOM     26  C   UNL     1       8.072  13.676  17.861  0.00  0.00    +0.000 C 
ENDBRANCH  17  18
ENDBRANCH  16  17
ENDBRANCH  14  16
ENDBRANCH   1  14
TORSDOF 8
ENDMDL
MODEL 3
REMARK VINA RESULT:      -6.9      1.408      1.684
REMARK  Name = 
REMARK  12 active torsions:
REMARK  status: ('A' for Active; 'I' for Inactive)
REMARK    1  A    between atoms: C_1  and  O_2
REMARK    2  A    between atoms: O_2  and  C_3
REMARK    3  A    between atoms: C_5  and  C_6
REMARK    4  A    between atoms: C_6  and  C_7
REMARK    5  A    between atoms: C_7  and  O_9
REMARK    6  A    between atoms: O_9  and  C_10
REMARK    7  A    between atoms: C_10  and  C_11
REMARK    8  A    between atoms: C_18  and  C_19
REMARK    9  A    between atoms: C_21  and  O_22
REMARK   10  A    between atoms: O_22  and  C_23
REMARK   11  A    between atoms: C_24  and  O_25
REMARK   12  A    between atoms: O_25  and  C_26
REMARK                            x       y       z     vdW  Elec       q    Type
REMARK                         _______ _______ _______ _____ _____    ______ ____
ROOT
ATOM      1  C   UNL     1       1.594   8.405  17.706  0.00  0.00    +0.000 C 
ENDROOT
BRANCH   1   4
ATOM      2  C   UNL     1       1.033  12.008  18.958  0.00  0.00    +0.000 A 
ATOM      3  C   UNL     1       1.641  10.761  18.710  0.00  0.00    +0.000 A 
ATOM      4  C   UNL     1       0.935   9.698  18.151  0.00  0.00    +0.000 A 
ATOM      5  C   UNL     1      -0.441   9.873  17.957  0.00  0.00    +0.000 A 
ATOM      6  C   UNL     1      -1.096  11.082  18.270  0.00  0.00    +0.000 A 
ATOM      7  C   UNL     1      -0.356  12.174  18.776  0.00  0.00    +0.000 A 
BRANCH   2   9
ATOM      8  C   UNL     1       2.457  13.814  18.381  0.00  0.00    +0.000 C 
ATOM      9  O   UNL     1       1.796  13.062  19.400  0.00  0.00    +0.000 OA
ENDBRANCH   2   9
BRANCH   6  10
ATOM     10  O   UNL     1      -2.439  11.010  17.994  0.00  0.00    +0.000 OA
ATOM     11  C   UNL     1      -3.022   9.760  17.650  0.00  0.00    +0.000 C 
ENDBRANCH   6  10
BRANCH   7  12
ATOM     12  O   UNL     1      -1.071  13.302  19.076  0.00  0.00    +0.000 OA
ATOM     13  C   UNL     1      -1.606  13.501  20.373  0.00  0.00    +0.000 C 
ENDBRANCH   7  12
ENDBRANCH   1   4
BRANCH   1  14
ATOM     14  C   UNL     1       2.406   7.664  18.753  0.00  0.00    +0.000 C 
ATOM     15  O   UNL     1       2.065   7.510  19.921  0.00  0.00    +0.000 OA
BRANCH  14  16
ATOM     16  O   UNL     1       3.601   7.239  18.239  0.00  0.00    +0.000 OA
BRANCH  16  17
ATOM     17  C   UNL     1       3.608   5.881  17.779  0.00  0.00    +0.000 C 
BRANCH  17  18
ATOM     18  C   UNL     1       4.112   4.870  18.820  0.00  0.00    +0.000 C 
ATOM     19  O   UNL     1       5.279   4.917  19.221  0.00  0.00    +0.000 OA
ATOM     20  N   UNL     1       3.188   3.957  19.341  0.00  0.00    +0.000 N 
ATOM     21  C   UNL     1       3.625   3.060  20.414  0.00  0.00    +0.000 C 
ATOM     22  C   UNL     1       2.635   3.069  21.577  0.00  0.00    +0.000 C 
ATOM     23  C   UNL     1       1.208   2.790  21.113  0.00  0.00    +0.000 C 
ATOM     24  C   UNL     1       0.812   3.726  19.973  0.00  0.00    +0.000 C 
ATOM     25  C   UNL     1       1.828   3.720  18.819  0.00  0.00    +0.000 C 
ATOM     26  C   UNL     1       1.758   2.419  18.008  0.00  0.00    +0.000 C 
ENDBRANCH  17  18
ENDBRANCH  16  17
ENDBRANCH  14  16
ENDBRANCH   1  14
TORSDOF 8
ENDMDL
MODEL 4
REMARK VINA RESULT:      -6.9      5.725      8.906
REMARK  Name = 
REMARK  12 active torsions:
REMARK  status: ('A' for Active; 'I' for Inactive)
REMARK    1  A    between atoms: C_1  and  O_2
REMARK    2  A    between atoms: O_2  and  C_3
REMARK    3  A    between atoms: C_5  and  C_6
REMARK    4  A    between atoms: C_6  and  C_7
REMARK    5  A    between atoms: C_7  and  O_9
REMARK    6  A    between atoms: O_9  and  C_10
REMARK    7  A    between atoms: C_10  and  C_11
REMARK    8  A    between atoms: C_18  and  C_19
REMARK    9  A    between atoms: C_21  and  O_22
REMARK   10  A    between atoms: O_22  and  C_23
REMARK   11  A    between atoms: C_24  and  O_25
REMARK   12  A    between atoms: O_25  and  C_26
REMARK                            x       y       z     vdW  Elec       q    Type
REMARK                         _______ _______ _______ _____ _____    ______ ____
ROOT
ATOM      1  C   UNL     1       6.809   6.482  16.819  0.00  0.00    +0.000 C 
ENDROOT
BRANCH   1   4
ATOM      2  C   UNL     1       4.186   4.182  18.460  0.00  0.00    +0.000 A 
ATOM      3  C   UNL     1       5.357   4.619  17.810  0.00  0.00    +0.000 A 
ATOM      4  C   UNL     1       5.503   5.930  17.360  0.00  0.00    +0.000 A 
ATOM      5  C   UNL     1       4.389   6.772  17.466  0.00  0.00    +0.000 A 
ATOM      6  C   UNL     1       3.174   6.341  18.039  0.00  0.00    +0.000 A 
ATOM      7  C   UNL     1       3.061   5.030  18.550  0.00  0.00    +0.000 A 
BRANCH   2   9
ATOM      8  C   UNL     1       3.681   1.894  18.102  0.00  0.00    +0.000 C 
ATOM      9  O   UNL     1       4.133   2.916  18.991  0.00  0.00    +0.000 OA
ENDBRANCH   2   9
BRANCH   6  10
ATOM     10  O   UNL     1       2.234   7.343  18.029  0.00  0.00    +0.000 OA
ATOM     11  C   UNL     1       2.008   8.109  19.204  0.00  0.00    +0.000 C 
ENDBRANCH   6  10
BRANCH   7  12
ATOM     12  O   UNL     1       1.842   4.685  19.068  0.00  0.00    +0.000 OA
ATOM     13  C   UNL     1       1.637   4.629  20.470  0.00  0.00    +0.000 C 
ENDBRANCH   7  12
ENDBRANCH   1   4
BRANCH   1  14
ATOM     14  C   UNL     1       7.675   7.255  17.797  0.00  0.00    +0.000 C 
ATOM     15  O   UNL     1       8.141   6.794  18.834  0.00  0.00    +0.000 OA
BRANCH  14  16
ATOM     16  O   UNL     1       7.820   8.557  17.404  0.00  0.00    +0.000 OA
BRANCH  16  17
ATOM     17  C   UNL     1       8.605   9.367  18.288  0.00  0.00    +0.000 C 
BRANCH  17  18
ATOM     18  C   UNL     1       8.536  10.873  17.985  0.00  0.00    +0.000 C 
ATOM     19  O   UNL     1       7.706  11.311  17.185  0.00  0.00    +0.000 OA
ATOM     20  N   UNL     1       9.391  11.719  18.700  0.00  0.00    +0.000 N 
ATOM     21  C   UNL     1       9.262  13.166  18.505  0.00  0.00    +0.000 C 
ATOM     22  C   UNL     1       9.186  13.898  19.843  0.00  0.00    +0.000 C 
ATOM     23  C   UNL     1      10.344  13.524  20.763  0.00  0.00    +0.000 C 
ATOM     24  C   UNL     1      10.458  12.007  20.908  0.00  0.00    +0.000 C 
ATOM     25  C   UNL     1      10.514  11.284  19.553  0.00  0.00    +0.000 C 
ATOM     26  C   UNL     1      11.864  11.494  18.853  0.00  0.00    +0.000 C 
ENDBRANCH  17  18
ENDBRANCH  16  17
ENDBRANCH  14  16
ENDBRANCH   1  14
TORSDOF 8
ENDMDL
MODEL 5
REMARK VINA RESULT:      -6.9      1.339      2.410
REMARK  Name = 
REMARK  12 active torsions:
REMARK  status: ('A' for Active; 'I' for Inactive)
REMARK    1  A    between atoms: C_1  and  O_2
REMARK    2  A    between atoms: O_2  and  C_3
REMARK    3  A    between atoms: C_5  and  C_6
REMARK    4  A    between atoms: C_6  and  C_7
REMARK    5  A    between atoms: C_7  and  O_9
REMARK    6  A    between atoms: O_9  and  C_10
REMARK    7  A    between atoms: C_10  and  C_11
REMARK    8  A    between atoms: C_18  and  C_19
REMARK    9  A    between atoms: C_21  and  O_22
REMARK   10  A    between atoms: O_22  and  C_23
REMARK   11  A    between atoms: C_24  and  O_25
REMARK   12  A    between atoms: O_25  and  C_26
REMARK                            x       y       z     vdW  Elec       q    Type
REMARK                         _______ _______ _______ _____ _____    ______ ____
ROOT
ATOM      1  C   UNL     1       2.264   8.753  17.803  0.00  0.00    +0.000 C 
ENDROOT
BRANCH   1   4
ATOM      2  C   UNL     1      -1.176  10.441  18.222  0.00  0.00    +0.000 A 
ATOM      3  C   UNL     1      -0.173   9.543  17.810  0.00  0.00    +0.000 A 
ATOM      4  C   UNL     1       1.176   9.776  18.071  0.00  0.00    +0.000 A 
ATOM      5  C   UNL     1       1.513  11.005  18.651  0.00  0.00    +0.000 A 
ATOM      6  C   UNL     1       0.538  11.962  19.002  0.00  0.00    +0.000 A 
ATOM      7  C   UNL     1      -0.831  11.685  18.792  0.00  0.00    +0.000 A 
BRANCH   2   9
ATOM      8  C   UNL     1      -2.907   9.896  16.695  0.00  0.00    +0.000 C 
ATOM      9  O   UNL     1      -2.499  10.113  18.047  0.00  0.00    +0.000 OA
ENDBRANCH   2   9
BRANCH   6  10
ATOM     10  O   UNL     1       1.112  13.082  19.553  0.00  0.00    +0.000 OA
ATOM     11  C   UNL     1       1.727  14.046  18.709  0.00  0.00    +0.000 C 
ENDBRANCH   6  10
BRANCH   7  12
ATOM     12  O   UNL     1      -1.709  12.676  19.139  0.00  0.00    +0.000 OA
ATOM     13  C   UNL     1      -2.307  12.699  20.424  0.00  0.00    +0.000 C 
ENDBRANCH   7  12
ENDBRANCH   1   4
BRANCH   1  14
ATOM     14  C   UNL     1       2.288   7.536  18.711  0.00  0.00    +0.000 C 
ATOM     15  O   UNL     1       2.251   7.579  19.936  0.00  0.00    +0.000 OA
BRANCH  14  16
ATOM     16  O   UNL     1       2.420   6.383  17.986  0.00  0.00    +0.000 OA
BRANCH  16  17
ATOM     17  C   UNL     1       3.768   5.919  17.838  0.00  0.00    +0.000 C 
BRANCH  17  18
ATOM     18  C   UNL     1       4.219   4.944  18.937  0.00  0.00    +0.000 C 
ATOM     19  O   UNL     1       5.320   5.081  19.479  0.00  0.00    +0.000 OA
ATOM     20  N   UNL     1       3.313   3.959  19.344  0.00  0.00    +0.000 N 
ATOM     21  C   UNL     1       3.684   3.092  20.466  0.00  0.00    +0.000 C 
ATOM     22  C   UNL     1       2.561   3.016  21.499  0.00  0.00    +0.000 C 
ATOM     23  C   UNL     1       1.229   2.628  20.863  0.00  0.00    +0.000 C 
ATOM     24  C   UNL     1       0.903   3.537  19.680  0.00  0.00    +0.000 C 
ATOM     25  C   UNL     1       2.050   3.617  18.660  0.00  0.00    +0.000 C 
ATOM     26  C   UNL     1       2.183   2.320  17.852  0.00  0.00    +0.000 C 
ENDBRANCH  17  18
ENDBRANCH  16  17
ENDBRANCH  14  16
ENDBRANCH   1  14
TORSDOF 8
ENDMDL
MODEL 6
REMARK VINA RESULT:      -6.8      1.857      2.939
REMARK  Name = 
REMARK  12 active torsions:
REMARK  status: ('A' for Active; 'I' for Inactive)
REMARK    1  A    between atoms: C_1  and  O_2
REMARK    2  A    between atoms: O_2  and  C_3
REMARK    3  A    between atoms: C_5  and  C_6
REMARK    4  A    between atoms: C_6  and  C_7
REMARK    5  A    between atoms: C_7  and  O_9
REMARK    6  A    between atoms: O_9  and  C_10
REMARK    7  A    between atoms: C_10  and  C_11
REMARK    8  A    between atoms: C_18  and  C_19
REMARK    9  A    between atoms: C_21  and  O_22
REMARK   10  A    between atoms: O_22  and  C_23
REMARK   11  A    between atoms: C_24  and  O_25
REMARK   12  A    between atoms: O_25  and  C_26
REMARK                            x       y       z     vdW  Elec       q    Type
REMARK                         _______ _______ _______ _____ _____    ______ ____
ROOT
ATOM      1  C   UNL     1       1.286  10.450  18.856  0.00  0.00    +0.000 C 
ENDROOT
BRANCH   1   4
ATOM      2  C   UNL     1      -2.259  11.913  19.252  0.00  0.00    +0.000 A 
ATOM      3  C   UNL     1      -0.923  11.562  19.526  0.00  0.00    +0.000 A 
ATOM      4  C   UNL     1      -0.200  10.709  18.693  0.00  0.00    +0.000 A 
ATOM      5  C   UNL     1      -0.892  10.110  17.633  0.00  0.00    +0.000 A 
ATOM      6  C   UNL     1      -2.253  10.378  17.379  0.00  0.00    +0.000 A 
ATOM      7  C   UNL     1      -2.956  11.295  18.192  0.00  0.00    +0.000 A 
BRANCH   2   9
ATOM      8  C   UNL     1      -2.055  13.879  20.561  0.00  0.00    +0.000 C 
ATOM      9  O   UNL     1      -2.892  12.848  20.034  0.00  0.00    +0.000 OA
ENDBRANCH   2   9
BRANCH   6  10
ATOM     10  O   UNL     1      -2.707   9.674  16.290  0.00  0.00    +0.000 OA
ATOM     11  C   UNL     1      -2.899  10.340  15.050  0.00  0.00    +0.000 C 
ENDBRANCH   6  10
BRANCH   7  12
ATOM     12  O   UNL     1      -4.279  11.481  17.891  0.00  0.00    +0.000 OA
ATOM     13  C   UNL     1      -5.282  10.690  18.506  0.00  0.00    +0.000 C 
ENDBRANCH   7  12
ENDBRANCH   1   4
BRANCH   1  14
ATOM     14  C   UNL     1       1.789   9.087  18.417  0.00  0.00    +0.000 C 
ATOM     15  O   UNL     1       2.160   8.812  17.280  0.00  0.00    +0.000 OA
BRANCH  14  16
ATOM     16  O   UNL     1       1.718   8.182  19.441  0.00  0.00    +0.000 OA
BRANCH  16  17
ATOM     17  C   UNL     1       2.645   7.093  19.345  0.00  0.00    +0.000 C 
BRANCH  17  18
ATOM     18  C   UNL     1       2.156   5.794  20.004  0.00  0.00    +0.000 C 
ATOM     19  O   UNL     1       1.408   5.835  20.984  0.00  0.00    +0.000 OA
ATOM     20  N   UNL     1       2.529   4.584  19.409  0.00  0.00    +0.000 N 
ATOM     21  C   UNL     1       1.980   3.340  19.958  0.00  0.00    +0.000 C 
ATOM     22  C   UNL     1       1.404   2.457  18.854  0.00  0.00    +0.000 C 
ATOM     23  C   UNL     1       2.410   2.218  17.731  0.00  0.00    +0.000 C 
ATOM     24  C   UNL     1       2.977   3.540  17.216  0.00  0.00    +0.000 C 
ATOM     25  C   UNL     1       3.536   4.425  18.342  0.00  0.00    +0.000 C 
ATOM     26  C   UNL     1       4.856   3.873  18.895  0.00  0.00    +0.000 C 
ENDBRANCH  17  18
ENDBRANCH  16  17
ENDBRANCH  14  16
ENDBRANCH   1  14
TORSDOF 8
ENDMDL
MODEL 7
REMARK VINA RESULT:      -6.8      2.403      3.695
REMARK  Name = 
REMARK  12 active torsions:
REMARK  status: ('A' for Active; 'I' for Inactive)
REMARK    1  A    between atoms: C_1  and  O_2
REMARK    2  A    between atoms: O_2  and  C_3
REMARK    3  A    between atoms: C_5  and  C_6
REMARK    4  A    between atoms: C_6  and  C_7
REMARK    5  A    between atoms: C_7  and  O_9
REMARK    6  A    between atoms: O_9  and  C_10
REMARK    7  A    between atoms: C_10  and  C_11
REMARK    8  A    between atoms: C_18  and  C_19
REMARK    9  A    between atoms: C_21  and  O_22
REMARK   10  A    between atoms: O_22  and  C_23
REMARK   11  A    between atoms: C_24  and  O_25
REMARK   12  A    between atoms: O_25  and  C_26
REMARK                            x       y       z     vdW  Elec       q    Type
REMARK                         _______ _______ _______ _____ _____    ______ ____
ROOT
ATOM      1  C   UNL     1      -0.275   9.994  18.097  0.00  0.00    +0.000 C 
ENDROOT
BRANCH   1   4
ATOM      2  C   UNL     1      -0.630  11.082  21.779  0.00  0.00    +0.000 A 
ATOM      3  C   UNL     1      -0.258  10.350  20.635  0.00  0.00    +0.000 A 
ATOM      4  C   UNL     1      -0.781  10.638  19.375  0.00  0.00    +0.000 A 
ATOM      5  C   UNL     1      -1.790  11.607  19.306  0.00  0.00    +0.000 A 
ATOM      6  C   UNL     1      -2.243  12.302  20.447  0.00  0.00    +0.000 A 
ATOM      7  C   UNL     1      -1.658  12.046  21.707  0.00  0.00    +0.000 A 
BRANCH   2   9
ATOM      8  C   UNL     1      -0.009   9.480  23.413  0.00  0.00    +0.000 C 
ATOM      9  O   UNL     1      -0.001  10.840  22.976  0.00  0.00    +0.000 OA
ENDBRANCH   2   9
BRANCH   6  10
ATOM     10  O   UNL     1      -3.234  13.197  20.127  0.00  0.00    +0.000 OA
ATOM     11  C   UNL     1      -4.576  12.748  20.004  0.00  0.00    +0.000 C 
ENDBRANCH   6  10
BRANCH   7  12
ATOM     12  O   UNL     1      -2.171  12.746  22.766  0.00  0.00    +0.000 OA
ATOM     13  C   UNL     1      -3.181  12.186  23.587  0.00  0.00    +0.000 C 
ENDBRANCH   7  12
ENDBRANCH   1   4
BRANCH   1  14
ATOM     14  C   UNL     1       1.224   9.780  17.994  0.00  0.00    +0.000 C 
ATOM     15  O   UNL     1       2.064  10.671  18.076  0.00  0.00    +0.000 OA
BRANCH  14  16
ATOM     16  O   UNL     1       1.518   8.469  17.737  0.00  0.00    +0.000 OA
BRANCH  16  17
ATOM     17  C   UNL     1       2.912   8.141  17.815  0.00  0.00    +0.000 C 
BRANCH  17  18
ATOM     18  C   UNL     1       3.190   6.693  18.251  0.00  0.00    +0.000 C 
ATOM     19  O   UNL     1       2.475   6.148  19.097  0.00  0.00    +0.000 OA
ATOM     20  N   UNL     1       4.224   6.008  17.605  0.00  0.00    +0.000 N 
ATOM     21  C   UNL     1       4.431   4.593  17.929  0.00  0.00    +0.000 C 
ATOM     22  C   UNL     1       4.540   3.748  16.662  0.00  0.00    +0.000 C 
ATOM     23  C   UNL     1       5.589   4.296  15.699  0.00  0.00    +0.000 C 
ATOM     24  C   UNL     1       5.351   5.779  15.419  0.00  0.00    +0.000 C 
ATOM     25  C   UNL     1       5.225   6.613  16.704  0.00  0.00    +0.000 C 
ATOM     26  C   UNL     1       6.580   6.783  17.405  0.00  0.00    +0.000 C 
ENDBRANCH  17  18
ENDBRANCH  16  17
ENDBRANCH  14  16
ENDBRANCH   1  14
TORSDOF 8
ENDMDL
MODEL 8
REMARK VINA RESULT:      -6.8      2.957      8.549
REMARK  Name = 
REMARK  12 active torsions:
REMARK  status: ('A' for Active; 'I' for Inactive)
REMARK    1  A    between atoms: C_1  and  O_2
REMARK    2  A    between atoms: O_2  and  C_3
REMARK    3  A    between atoms: C_5  and  C_6
REMARK    4  A    between atoms: C_6  and  C_7
REMARK    5  A    between atoms: C_7  and  O_9
REMARK    6  A    between atoms: O_9  and  C_10
REMARK    7  A    between atoms: C_10  and  C_11
REMARK    8  A    between atoms: C_18  and  C_19
REMARK    9  A    between atoms: C_21  and  O_22
REMARK   10  A    between atoms: O_22  and  C_23
REMARK   11  A    between atoms: C_24  and  O_25
REMARK   12  A    between atoms: O_25  and  C_26
REMARK                            x       y       z     vdW  Elec       q    Type
REMARK                         _______ _______ _______ _____ _____    ______ ____
ROOT
ATOM      1  C   UNL     1       2.632   7.691  17.778  0.00  0.00    +0.000 C 
ENDROOT
BRANCH   1   4
ATOM      2  C   UNL     1       4.926   4.690  18.550  0.00  0.00    +0.000 A 
ATOM      3  C   UNL     1       4.494   5.972  18.158  0.00  0.00    +0.000 A 
ATOM      4  C   UNL     1       3.141   6.282  18.023  0.00  0.00    +0.000 A 
ATOM      5  C   UNL     1       2.225   5.233  18.170  0.00  0.00    +0.000 A 
ATOM      6  C   UNL     1       2.632   3.920  18.483  0.00  0.00    +0.000 A 
ATOM      7  C   UNL     1       4.001   3.633  18.682  0.00  0.00    +0.000 A 
BRANCH   2   9
ATOM      8  C   UNL     1       7.006   5.593  19.246  0.00  0.00    +0.000 C 
ATOM      9  O   UNL     1       6.261   4.464  18.785  0.00  0.00    +0.000 OA
ENDBRANCH   2   9
BRANCH   6  10
ATOM     10  O   UNL     1       1.556   3.071  18.574  0.00  0.00    +0.000 OA
ATOM     11  C   UNL     1       0.841   2.968  19.798  0.00  0.00    +0.000 C 
ENDBRANCH   6  10
BRANCH   7  12
ATOM     12  O   UNL     1       4.313   2.330  18.960  0.00  0.00    +0.000 OA
ATOM     13  C   UNL     1       4.481   1.892  20.298  0.00  0.00    +0.000 C 
ENDBRANCH   7  12
ENDBRANCH   1   4
BRANCH   1  14
ATOM     14  C   UNL     1       2.014   8.404  18.967  0.00  0.00    +0.000 C 
ATOM     15  O   UNL     1       1.875   7.912  20.081  0.00  0.00    +0.000 OA
BRANCH  14  16
ATOM     16  O   UNL     1       1.575   9.652  18.618  0.00  0.00    +0.000 OA
BRANCH  16  17
ATOM     17  C   UNL     1       0.491  10.150  19.413  0.00  0.00    +0.000 C 
BRANCH  17  18
ATOM     18  C   UNL     1       0.908  11.203  20.452  0.00  0.00    +0.000 C 
ATOM     19  O   UNL     1       0.991  10.902  21.646  0.00  0.00    +0.000 OA
ATOM     20  N   UNL     1       1.255  12.475  19.984  0.00  0.00    +0.000 N 
ATOM     21  C   UNL     1       1.760  13.457  20.948  0.00  0.00    +0.000 C 
ATOM     22  C   UNL     1       3.047  14.110  20.446  0.00  0.00    +0.000 C 
ATOM     23  C   UNL     1       2.883  14.685  19.042  0.00  0.00    +0.000 C 
ATOM     24  C   UNL     1       2.323  13.635  18.084  0.00  0.00    +0.000 C 
ATOM     25  C   UNL     1       1.040  12.974  18.612  0.00  0.00    +0.000 C 
ATOM     26  C   UNL     1      -0.160  13.930  18.544  0.00  0.00    +0.000 C 
ENDBRANCH  17  18
ENDBRANCH  16  17
ENDBRANCH  14  16
ENDBRANCH   1  14
TORSDOF 8
ENDMDL
MODEL 9
REMARK VINA RESULT:      -6.8      1.997      3.271
REMARK  Name = 
REMARK  12 active torsions:
REMARK  status: ('A' for Active; 'I' for Inactive)
REMARK    1  A    between atoms: C_1  and  O_2
REMARK    2  A    between atoms: O_2  and  C_3
REMARK    3  A    between atoms: C_5  and  C_6
REMARK    4  A    between atoms: C_6  and  C_7
REMARK    5  A    between atoms: C_7  and  O_9
REMARK    6  A    between atoms: O_9  and  C_10
REMARK    7  A    between atoms: C_10  and  C_11
REMARK    8  A    between atoms: C_18  and  C_19
REMARK    9  A    between atoms: C_21  and  O_22
REMARK   10  A    between atoms: O_22  and  C_23
REMARK   11  A    between atoms: C_24  and  O_25
REMARK   12  A    between atoms: O_25  and  C_26
REMARK                            x       y       z     vdW  Elec       q    Type
REMARK                         _______ _______ _______ _____ _____    ______ ____
ROOT
ATOM      1  C   UNL     1       0.834   9.672  19.383  0.00  0.00    +0.000 C 
ENDROOT
BRANCH   1   4
ATOM      2  C   UNL     1      -2.371  11.812  19.275  0.00  0.00    +0.000 A 
ATOM      3  C   UNL     1      -1.186  11.207  19.738  0.00  0.00    +0.000 A 
ATOM      4  C   UNL     1      -0.531  10.217  19.007  0.00  0.00    +0.000 A 
ATOM      5  C   UNL     1      -1.165   9.752  17.848  0.00  0.00    +0.000 A 
ATOM      6  C   UNL     1      -2.393  10.280  17.400  0.00  0.00    +0.000 A 
ATOM      7  C   UNL     1      -3.013  11.329  18.116  0.00  0.00    +0.000 A 
BRANCH   2   9
ATOM      8  C   UNL     1      -2.803  12.787  21.393  0.00  0.00    +0.000 C 
ATOM      9  O   UNL     1      -2.915  12.864  19.971  0.00  0.00    +0.000 OA
ENDBRANCH   2   9
BRANCH   6  10
ATOM     10  O   UNL     1      -2.812   9.664  16.246  0.00  0.00    +0.000 OA
ATOM     11  C   UNL     1      -2.834  10.392  15.026  0.00  0.00    +0.000 C 
ENDBRANCH   6  10
BRANCH   7  12
ATOM     12  O   UNL     1      -4.214  11.768  17.626  0.00  0.00    +0.000 OA
ATOM     13  C   UNL     1      -5.430  11.166  18.037  0.00  0.00    +0.000 C 
ENDBRANCH   7  12
ENDBRANCH   1   4
BRANCH   1  14
ATOM     14  C   UNL     1       1.725   9.228  18.237  0.00  0.00    +0.000 C 
ATOM     15  O   UNL     1       2.121   9.960  17.336  0.00  0.00    +0.000 OA
BRANCH  14  16
ATOM     16  O   UNL     1       1.982   7.886  18.305  0.00  0.00    +0.000 OA
BRANCH  16  17
ATOM     17  C   UNL     1       2.346   7.410  19.607  0.00  0.00    +0.000 C 
BRANCH  17  18
ATOM     18  C   UNL     1       2.294   5.880  19.751  0.00  0.00    +0.000 C 
ATOM     19  O   UNL     1       1.404   5.346  20.419  0.00  0.00    +0.000 OA
ATOM     20  N   UNL     1       3.239   5.129  19.044  0.00  0.00    +0.000 N 
ATOM     21  C   UNL     1       3.135   3.667  19.082  0.00  0.00    +0.000 C 
ATOM     22  C   UNL     1       3.211   3.073  17.677  0.00  0.00    +0.000 C 
ATOM     23  C   UNL     1       4.441   3.562  16.917  0.00  0.00    +0.000 C 
ATOM     24  C   UNL     1       4.522   5.087  16.935  0.00  0.00    +0.000 C 
ATOM     25  C   UNL     1       4.426   5.670  18.353  0.00  0.00    +0.000 C 
ATOM     26  C   UNL     1       5.707   5.418  19.159  0.00  0.00    +0.000 C 
ENDBRANCH  17  18
ENDBRANCH  16  17
ENDBRANCH  14  16
ENDBRANCH   1  14
TORSDOF 8
ENDMDL
