MODEL 1
REMARK VINA RESULT:      -8.8      0.000      0.000
REMARK  Name = 
REMARK  10 active torsions:
REMARK  status: ('A' for Active; 'I' for Inactive)
REMARK    1  A    between atoms: C_1  and  C_2
REMARK    2  A    between atoms: C_2  and  C_3
REMARK    3  A    between atoms: C_3  and  N_4
REMARK    4  A    between atoms: C_9  and  C_10
REMARK    5  A    between atoms: C_14  and  C_16
REMARK    6  A    between atoms: C_16  and  C_17
REMARK    7  A    between atoms: N_27  and  C_28
REMARK    8  A    between atoms: N_31  and  C_32
REMARK    9  A    between atoms: C_32  and  C_33
REMARK   10  A    between atoms: C_33  and  C_34
REMARK                            x       y       z     vdW  Elec       q    Type
REMARK                         _______ _______ _______ _____ _____    ______ ____
ROOT
ATOM      1  C   UNL     1       0.597   9.332  18.868  0.00  0.00    +0.000 A 
ATOM      2  C   UNL     1      -0.478   9.598  18.045  0.00  0.00    +0.000 A 
ATOM      3  C   UNL     1      -1.124  10.722  18.605  0.00  0.00    +0.000 A 
ATOM      4  N   UNL     1      -2.241  11.381  18.144  0.00  0.00    +0.000 N 
ATOM      5  C   UNL     1      -3.293  10.732  17.522  0.00  0.00    +0.000 C 
ATOM      6  O   UNL     1      -3.357   9.517  17.341  0.00  0.00    +0.000 OA
ATOM      7  N   UNL     1      -0.477  11.170  19.682  0.00  0.00    +0.000 NA
ATOM      8  N   UNL     1       0.479  10.232  19.901  0.00  0.00    +0.000 N 
ATOM      9  C   UNL     1       1.260  10.285  21.117  0.00  0.00    +0.000 C 
ATOM     10  H   UNL     1      -2.399  12.267  18.603  0.00  0.00    +0.000 HD
ENDROOT
BRANCH   1  16
ATOM     11  N   UNL     1       4.887   5.458  17.779  0.00  0.00    +0.000 N 
ATOM     12  C   UNL     1       4.402   6.674  17.264  0.00  0.00    +0.000 A 
ATOM     13  O   UNL     1       4.882   7.245  16.288  0.00  0.00    +0.000 OA
ATOM     14  C   UNL     1       3.283   7.199  18.009  0.00  0.00    +0.000 A 
ATOM     15  N   UNL     1       2.538   8.336  17.773  0.00  0.00    +0.000 NA
ATOM     16  C   UNL     1       1.639   8.367  18.738  0.00  0.00    +0.000 A 
ATOM     17  N   UNL     1       1.799   7.298  19.589  0.00  0.00    +0.000 N 
ATOM     18  C   UNL     1       2.830   6.553  19.121  0.00  0.00    +0.000 A 
ATOM     19  N   UNL     1       3.337   5.372  19.627  0.00  0.00    +0.000 N 
ATOM     20  C   UNL     1       4.421   4.800  18.941  0.00  0.00    +0.000 A 
ATOM     21  O   UNL     1       4.954   3.765  19.347  0.00  0.00    +0.000 OA
ATOM     22  H   UNL     1       1.211   7.110  20.394  0.00  0.00    +0.000 HD
BRANCH  11  23
ATOM     23  C   UNL     1       6.026   4.862  17.089  0.00  0.00    +0.000 C 
BRANCH  23  25
ATOM     24  C   UNL     1       6.353   4.201  14.678  0.00  0.00    +0.000 C 
ATOM     25  C   UNL     1       5.578   3.931  15.959  0.00  0.00    +0.000 C 
ENDBRANCH  23  25
ENDBRANCH  11  23
BRANCH  19  26
ATOM     26  C   UNL     1       2.833   4.717  20.836  0.00  0.00    +0.000 C 
BRANCH  26  27
ATOM     27  C   UNL     1       1.540   3.918  20.629  0.00  0.00    +0.000 C 
ATOM     28  C   UNL     1       1.442   2.664  21.482  0.00  0.00    +0.000 C 
ENDBRANCH  26  27
ENDBRANCH  19  26
ENDBRANCH   1  16
BRANCH   5  29
ATOM     29  C   UNL     1      -4.435  11.654  17.083  0.00  0.00    +0.000 C 
BRANCH  29  30
ATOM     30  C   UNL     1      -5.497  11.771  18.151  0.00  0.00    +0.000 A 
ATOM     31  C   UNL     1      -6.313  10.659  18.476  0.00  0.00    +0.000 A 
ATOM     32  C   UNL     1      -7.021  10.617  19.681  0.00  0.00    +0.000 A 
ATOM     33  C   UNL     1      -6.838  11.673  20.542  0.00  0.00    +0.000 A 
ATOM     34  C   UNL     1      -6.139  12.803  20.175  0.00  0.00    +0.000 A 
ATOM     35  C   UNL     1      -5.509  12.914  18.961  0.00  0.00    +0.000 A 
ATOM     36  O   UNL     1      -5.968  13.663  21.220  0.00  0.00    +0.000 OA
ATOM     37  C   UNL     1      -6.228  12.731  22.288  0.00  0.00    +0.000 C 
ATOM     38  O   UNL     1      -7.139  11.689  21.874  0.00  0.00    +0.000 OA
ENDBRANCH  29  30
ENDBRANCH   5  29
TORSDOF 7
ENDMDL
MODEL 2
REMARK VINA RESULT:      -8.7      0.798      1.070
REMARK  Name = 
REMARK  10 active torsions:
REMARK  status: ('A' for Active; 'I' for Inactive)
REMARK    1  A    between atoms: C_1  and  C_2
REMARK    2  A    between atoms: C_2  and  C_3
REMARK    3  A    between atoms: C_3  and  N_4
REMARK    4  A    between atoms: C_9  and  C_10
REMARK    5  A    between atoms: C_14  and  C_16
REMARK    6  A    between atoms: C_16  and  C_17
REMARK    7  A    between atoms: N_27  and  C_28
REMARK    8  A    between atoms: N_31  and  C_32
REMARK    9  A    between atoms: C_32  and  C_33
REMARK   10  A    between atoms: C_33  and  C_34
REMARK                            x       y       z     vdW  Elec       q    Type
REMARK                         _______ _______ _______ _____ _____    ______ ____
ROOT
ATOM      1  C   UNL     1       0.589   9.733  18.372  0.00  0.00    +0.000 A 
ATOM      2  C   UNL     1      -0.653   9.750  17.772  0.00  0.00    +0.000 A 
ATOM      3  C   UNL     1      -1.194  11.026  18.042  0.00  0.00    +0.000 A 
ATOM      4  N   UNL     1      -2.410  11.538  17.646  0.00  0.00    +0.000 N 
ATOM      5  C   UNL     1      -3.551  10.765  17.539  0.00  0.00    +0.000 C 
ATOM      6  O   UNL     1      -3.612   9.565  17.805  0.00  0.00    +0.000 OA
ATOM      7  N   UNL     1      -0.336  11.785  18.725  0.00  0.00    +0.000 NA
ATOM      8  N   UNL     1       0.677  10.936  19.031  0.00  0.00    +0.000 N 
ATOM      9  C   UNL     1       1.712  11.366  19.947  0.00  0.00    +0.000 C 
ATOM     10  H   UNL     1      -2.490  12.534  17.796  0.00  0.00    +0.000 HD
ENDROOT
BRANCH   1  16
ATOM     11  N   UNL     1       4.812   5.689  17.726  0.00  0.00    +0.000 N 
ATOM     12  C   UNL     1       4.388   6.885  17.118  0.00  0.00    +0.000 A 
ATOM     13  O   UNL     1       4.932   7.385  16.136  0.00  0.00    +0.000 OA
ATOM     14  C   UNL     1       3.251   7.483  17.773  0.00  0.00    +0.000 A 
ATOM     15  N   UNL     1       2.551   8.623  17.435  0.00  0.00    +0.000 NA
ATOM     16  C   UNL     1       1.607   8.734  18.350  0.00  0.00    +0.000 A 
ATOM     17  N   UNL     1       1.695   7.714  19.268  0.00  0.00    +0.000 N 
ATOM     18  C   UNL     1       2.725   6.915  18.897  0.00  0.00    +0.000 A 
ATOM     19  N   UNL     1       3.172   5.753  19.495  0.00  0.00    +0.000 N 
ATOM     20  C   UNL     1       4.271   5.114  18.899  0.00  0.00    +0.000 A 
ATOM     21  O   UNL     1       4.754   4.091  19.391  0.00  0.00    +0.000 OA
ATOM     22  H   UNL     1       1.063   7.589  20.053  0.00  0.00    +0.000 HD
BRANCH  11  23
ATOM     23  C   UNL     1       5.965   5.023  17.129  0.00  0.00    +0.000 C 
BRANCH  23  25
ATOM     24  C   UNL     1       7.652   6.595  18.149  0.00  0.00    +0.000 C 
ATOM     25  C   UNL     1       7.209   5.146  18.013  0.00  0.00    +0.000 C 
ENDBRANCH  23  25
ENDBRANCH  11  23
BRANCH  19  26
ATOM     26  C   UNL     1       2.591   5.185  20.714  0.00  0.00    +0.000 C 
BRANCH  26  27
ATOM     27  C   UNL     1       1.200   4.568  20.521  0.00  0.00    +0.000 C 
ATOM     28  C   UNL     1       1.209   3.226  19.808  0.00  0.00    +0.000 C 
ENDBRANCH  26  27
ENDBRANCH  19  26
ENDBRANCH   1  16
BRANCH   5  29
ATOM     29  C   UNL     1      -4.795  11.532  17.079  0.00  0.00    +0.000 C 
BRANCH  29  30
ATOM     30  C   UNL     1      -5.767  11.749  18.215  0.00  0.00    +0.000 A 
ATOM     31  C   UNL     1      -6.669  10.723  18.593  0.00  0.00    +0.000 A 
ATOM     32  C   UNL     1      -7.296  10.745  19.842  0.00  0.00    +0.000 A 
ATOM     33  C   UNL     1      -6.950  11.770  20.690  0.00  0.00    +0.000 A 
ATOM     34  C   UNL     1      -6.165  12.826  20.278  0.00  0.00    +0.000 A 
ATOM     35  C   UNL     1      -5.608  12.881  19.025  0.00  0.00    +0.000 A 
ATOM     36  O   UNL     1      -5.838  13.656  21.310  0.00  0.00    +0.000 OA
ATOM     37  C   UNL     1      -6.121  12.748  22.392  0.00  0.00    +0.000 C 
ATOM     38  O   UNL     1      -7.159  11.807  22.039  0.00  0.00    +0.000 OA
ENDBRANCH  29  30
ENDBRANCH   5  29
TORSDOF 7
ENDMDL
MODEL 3
REMARK VINA RESULT:      -8.1      3.304      4.137
REMARK  Name = 
REMARK  10 active torsions:
REMARK  status: ('A' for Active; 'I' for Inactive)
REMARK    1  A    between atoms: C_1  and  C_2
REMARK    2  A    between atoms: C_2  and  C_3
REMARK    3  A    between atoms: C_3  and  N_4
REMARK    4  A    between atoms: C_9  and  C_10
REMARK    5  A    between atoms: C_14  and  C_16
REMARK    6  A    between atoms: C_16  and  C_17
REMARK    7  A    between atoms: N_27  and  C_28
REMARK    8  A    between atoms: N_31  and  C_32
REMARK    9  A    between atoms: C_32  and  C_33
REMARK   10  A    between atoms: C_33  and  C_34
REMARK                            x       y       z     vdW  Elec       q    Type
REMARK                         _______ _______ _______ _____ _____    ______ ____
ROOT
ATOM      1  C   UNL     1       1.203   9.419  19.666  0.00  0.00    +0.000 A 
ATOM      2  C   UNL     1       0.280   9.538  20.684  0.00  0.00    +0.000 A 
ATOM      3  C   UNL     1      -0.289  10.822  20.541  0.00  0.00    +0.000 A 
ATOM      4  N   UNL     1      -1.271  11.410  21.307  0.00  0.00    +0.000 N 
ATOM      5  C   UNL     1      -1.387  11.200  22.669  0.00  0.00    +0.000 C 
ATOM      6  O   UNL     1      -0.626  10.501  23.337  0.00  0.00    +0.000 OA
ATOM      7  N   UNL     1       0.203  11.458  19.478  0.00  0.00    +0.000 NA
ATOM      8  N   UNL     1       1.201  10.647  19.046  0.00  0.00    +0.000 N 
ATOM      9  C   UNL     1       2.099  11.113  18.011  0.00  0.00    +0.000 C 
ATOM     10  H   UNL     1      -1.646  12.252  20.896  0.00  0.00    +0.000 HD
ENDROOT
BRANCH   1  16
ATOM     11  N   UNL     1       4.458   5.007  17.535  0.00  0.00    +0.000 N 
ATOM     12  C   UNL     1       4.155   6.345  17.225  0.00  0.00    +0.000 A 
ATOM     13  O   UNL     1       4.599   6.940  16.246  0.00  0.00    +0.000 OA
ATOM     14  C   UNL     1       3.274   6.965  18.186  0.00  0.00    +0.000 A 
ATOM     15  N   UNL     1       2.741   8.237  18.185  0.00  0.00    +0.000 NA
ATOM     16  C   UNL     1       2.007   8.307  19.278  0.00  0.00    +0.000 A 
ATOM     17  N   UNL     1       2.070   7.128  19.984  0.00  0.00    +0.000 N 
ATOM     18  C   UNL     1       2.860   6.275  19.288  0.00  0.00    +0.000 A 
ATOM     19  N   UNL     1       3.190   4.968  19.588  0.00  0.00    +0.000 N 
ATOM     20  C   UNL     1       4.037   4.302  18.687  0.00  0.00    +0.000 A 
ATOM     21  O   UNL     1       4.407   3.146  18.899  0.00  0.00    +0.000 OA
ATOM     22  H   UNL     1       1.573   6.948  20.850  0.00  0.00    +0.000 HD
BRANCH  11  23
ATOM     23  C   UNL     1       5.351   4.308  16.617  0.00  0.00    +0.000 C 
BRANCH  23  25
ATOM     24  C   UNL     1       7.586   4.584  17.751  0.00  0.00    +0.000 C 
ATOM     25  C   UNL     1       6.730   4.972  16.555  0.00  0.00    +0.000 C 
ENDBRANCH  23  25
ENDBRANCH  11  23
BRANCH  19  26
ATOM     26  C   UNL     1       2.739   4.267  20.792  0.00  0.00    +0.000 C 
BRANCH  26  27
ATOM     27  C   UNL     1       1.263   3.848  20.763  0.00  0.00    +0.000 C 
ATOM     28  C   UNL     1       0.912   2.891  19.635  0.00  0.00    +0.000 C 
ENDBRANCH  26  27
ENDBRANCH  19  26
ENDBRANCH   1  16
BRANCH   5  29
ATOM     29  C   UNL     1      -2.551  11.948  23.329  0.00  0.00    +0.000 C 
BRANCH  29  30
ATOM     30  C   UNL     1      -2.372  13.445  23.239  0.00  0.00    +0.000 A 
ATOM     31  C   UNL     1      -3.484  14.286  22.985  0.00  0.00    +0.000 A 
ATOM     32  C   UNL     1      -3.427  15.654  23.267  0.00  0.00    +0.000 A 
ATOM     33  C   UNL     1      -2.271  16.118  23.848  0.00  0.00    +0.000 A 
ATOM     34  C   UNL     1      -1.152  15.323  23.987  0.00  0.00    +0.000 A 
ATOM     35  C   UNL     1      -1.146  13.998  23.633  0.00  0.00    +0.000 A 
ATOM     36  O   UNL     1      -0.171  15.940  24.705  0.00  0.00    +0.000 OA
ATOM     37  C   UNL     1      -0.988  16.948  25.333  0.00  0.00    +0.000 C 
ATOM     38  O   UNL     1      -2.120  17.303  24.509  0.00  0.00    +0.000 OA
ENDBRANCH  29  30
ENDBRANCH   5  29
TORSDOF 7
ENDMDL
MODEL 4
REMARK VINA RESULT:      -8.1      3.068      3.896
REMARK  Name = 
REMARK  10 active torsions:
REMARK  status: ('A' for Active; 'I' for Inactive)
REMARK    1  A    between atoms: C_1  and  C_2
REMARK    2  A    between atoms: C_2  and  C_3
REMARK    3  A    between atoms: C_3  and  N_4
REMARK    4  A    between atoms: C_9  and  C_10
REMARK    5  A    between atoms: C_14  and  C_16
REMARK    6  A    between atoms: C_16  and  C_17
REMARK    7  A    between atoms: N_27  and  C_28
REMARK    8  A    between atoms: N_31  and  C_32
REMARK    9  A    between atoms: C_32  and  C_33
REMARK   10  A    between atoms: C_33  and  C_34
REMARK                            x       y       z     vdW  Elec       q    Type
REMARK                         _______ _______ _______ _____ _____    ______ ____
ROOT
ATOM      1  C   UNL     1       1.166   9.290  19.763  0.00  0.00    +0.000 A 
ATOM      2  C   UNL     1       0.268   9.440  20.799  0.00  0.00    +0.000 A 
ATOM      3  C   UNL     1      -0.299  10.723  20.635  0.00  0.00    +0.000 A 
ATOM      4  N   UNL     1      -1.260  11.336  21.408  0.00  0.00    +0.000 N 
ATOM      5  C   UNL     1      -1.345  11.162  22.777  0.00  0.00    +0.000 C 
ATOM      6  O   UNL     1      -0.573  10.477  23.446  0.00  0.00    +0.000 OA
ATOM      7  N   UNL     1       0.171  11.329  19.544  0.00  0.00    +0.000 NA
ATOM      8  N   UNL     1       1.156  10.501  19.111  0.00  0.00    +0.000 N 
ATOM      9  C   UNL     1       2.031  10.935  18.044  0.00  0.00    +0.000 C 
ATOM     10  H   UNL     1      -1.641  12.169  20.983  0.00  0.00    +0.000 HD
ENDROOT
BRANCH   1  16
ATOM     11  N   UNL     1       4.357   4.812  17.675  0.00  0.00    +0.000 N 
ATOM     12  C   UNL     1       4.061   6.146  17.343  0.00  0.00    +0.000 A 
ATOM     13  O   UNL     1       4.496   6.718  16.347  0.00  0.00    +0.000 OA
ATOM     14  C   UNL     1       3.198   6.791  18.303  0.00  0.00    +0.000 A 
ATOM     15  N   UNL     1       2.675   8.068  18.284  0.00  0.00    +0.000 NA
ATOM     16  C   UNL     1       1.957   8.164  19.386  0.00  0.00    +0.000 A 
ATOM     17  N   UNL     1       2.020   6.999  20.114  0.00  0.00    +0.000 N 
ATOM     18  C   UNL     1       2.794   6.126  19.424  0.00  0.00    +0.000 A 
ATOM     19  N   UNL     1       3.118   4.822  19.745  0.00  0.00    +0.000 N 
ATOM     20  C   UNL     1       3.946   4.133  18.846  0.00  0.00    +0.000 A 
ATOM     21  O   UNL     1       4.310   2.977  19.076  0.00  0.00    +0.000 OA
ATOM     22  H   UNL     1       1.534   6.840  20.990  0.00  0.00    +0.000 HD
BRANCH  11  23
ATOM     23  C   UNL     1       5.233   4.088  16.759  0.00  0.00    +0.000 C 
BRANCH  23  25
ATOM     24  C   UNL     1       7.362   4.837  15.635  0.00  0.00    +0.000 C 
ATOM     25  C   UNL     1       6.701   4.475  16.956  0.00  0.00    +0.000 C 
ENDBRANCH  23  25
ENDBRANCH  11  23
BRANCH  19  26
ATOM     26  C   UNL     1       2.677   4.149  20.969  0.00  0.00    +0.000 C 
BRANCH  26  27
ATOM     27  C   UNL     1       1.224   3.658  20.931  0.00  0.00    +0.000 C 
ATOM     28  C   UNL     1       0.858   2.901  19.664  0.00  0.00    +0.000 C 
ENDBRANCH  26  27
ENDBRANCH  19  26
ENDBRANCH   1  16
BRANCH   5  29
ATOM     29  C   UNL     1      -2.490  11.933  23.443  0.00  0.00    +0.000 C 
BRANCH  29  30
ATOM     30  C   UNL     1      -2.343  13.424  23.252  0.00  0.00    +0.000 A 
ATOM     31  C   UNL     1      -1.188  14.097  23.722  0.00  0.00    +0.000 A 
ATOM     32  C   UNL     1      -0.851  15.365  23.241  0.00  0.00    +0.000 A 
ATOM     33  C   UNL     1      -1.660  15.888  22.260  0.00  0.00    +0.000 A 
ATOM     34  C   UNL     1      -2.844  15.286  21.889  0.00  0.00    +0.000 A 
ATOM     35  C   UNL     1      -3.249  14.084  22.412  0.00  0.00    +0.000 A 
ATOM     36  O   UNL     1      -3.417  15.898  20.814  0.00  0.00    +0.000 OA
ATOM     37  C   UNL     1      -2.250  16.599  20.340  0.00  0.00    +0.000 C 
ATOM     38  O   UNL     1      -1.347  16.919  21.421  0.00  0.00    +0.000 OA
ENDBRANCH  29  30
ENDBRANCH   5  29
TORSDOF 7
ENDMDL
MODEL 5
REMARK VINA RESULT:      -8.0      1.632      2.128
REMARK  Name = 
REMARK  10 active torsions:
REMARK  status: ('A' for Active; 'I' for Inactive)
REMARK    1  A    between atoms: C_1  and  C_2
REMARK    2  A    between atoms: C_2  and  C_3
REMARK    3  A    between atoms: C_3  and  N_4
REMARK    4  A    between atoms: C_9  and  C_10
REMARK    5  A    between atoms: C_14  and  C_16
REMARK    6  A    between atoms: C_16  and  C_17
REMARK    7  A    between atoms: N_27  and  C_28
REMARK    8  A    between atoms: N_31  and  C_32
REMARK    9  A    between atoms: C_32  and  C_33
REMARK   10  A    between atoms: C_33  and  C_34
REMARK                            x       y       z     vdW  Elec       q    Type
REMARK                         _______ _______ _______ _____ _____    ______ ____
ROOT
ATOM      1  C   UNL     1       1.031  10.381  18.713  0.00  0.00    +0.000 A 
ATOM      2  C   UNL     1      -0.256  10.586  19.163  0.00  0.00    +0.000 A 
ATOM      3  C   UNL     1      -0.522  11.957  18.964  0.00  0.00    +0.000 A 
ATOM      4  N   UNL     1      -1.678  12.652  19.240  0.00  0.00    +0.000 N 
ATOM      5  C   UNL     1      -2.485  12.364  20.326  0.00  0.00    +0.000 C 
ATOM      6  O   UNL     1      -2.250  11.492  21.161  0.00  0.00    +0.000 OA
ATOM      7  N   UNL     1       0.508  12.574  18.382  0.00  0.00    +0.000 NA
ATOM      8  N   UNL     1       1.485  11.632  18.367  0.00  0.00    +0.000 N 
ATOM      9  C   UNL     1       2.828  12.007  17.980  0.00  0.00    +0.000 C 
ATOM     10  H   UNL     1      -1.695  13.576  18.834  0.00  0.00    +0.000 HD
ENDROOT
BRANCH   1  16
ATOM     11  N   UNL     1       4.145   5.500  17.673  0.00  0.00    +0.000 N 
ATOM     12  C   UNL     1       3.979   6.787  17.129  0.00  0.00    +0.000 A 
ATOM     13  O   UNL     1       4.567   7.189  16.127  0.00  0.00    +0.000 OA
ATOM     14  C   UNL     1       3.053   7.603  17.875  0.00  0.00    +0.000 A 
ATOM     15  N   UNL     1       2.621   8.888  17.617  0.00  0.00    +0.000 NA
ATOM     16  C   UNL     1       1.785   9.175  18.596  0.00  0.00    +0.000 A 
ATOM     17  N   UNL     1       1.684   8.124  19.477  0.00  0.00    +0.000 N 
ATOM     18  C   UNL     1       2.475   7.125  19.015  0.00  0.00    +0.000 A 
ATOM     19  N   UNL     1       2.672   5.866  19.549  0.00  0.00    +0.000 N 
ATOM     20  C   UNL     1       3.554   5.016  18.863  0.00  0.00    +0.000 A 
ATOM     21  O   UNL     1       3.811   3.889  19.292  0.00  0.00    +0.000 OA
ATOM     22  H   UNL     1       1.087   8.115  20.297  0.00  0.00    +0.000 HD
BRANCH  11  23
ATOM     23  C   UNL     1       5.074   4.612  16.982  0.00  0.00    +0.000 C 
BRANCH  23  25
ATOM     24  C   UNL     1       7.481   5.104  16.418  0.00  0.00    +0.000 C 
ATOM     25  C   UNL     1       6.499   4.751  17.524  0.00  0.00    +0.000 C 
ENDBRANCH  23  25
ENDBRANCH  11  23
BRANCH  19  26
ATOM     26  C   UNL     1       2.046   5.396  20.786  0.00  0.00    +0.000 C 
BRANCH  26  27
ATOM     27  C   UNL     1       0.963   4.329  20.580  0.00  0.00    +0.000 C 
ATOM     28  C   UNL     1       1.257   3.006  21.269  0.00  0.00    +0.000 C 
ENDBRANCH  26  27
ENDBRANCH  19  26
ENDBRANCH   1  16
BRANCH   5  29
ATOM     29  C   UNL     1      -3.725  13.255  20.448  0.00  0.00    +0.000 C 
BRANCH  29  30
ATOM     30  C   UNL     1      -4.963  12.560  19.932  0.00  0.00    +0.000 A 
ATOM     31  C   UNL     1      -5.037  12.135  18.581  0.00  0.00    +0.000 A 
ATOM     32  C   UNL     1      -5.976  11.180  18.181  0.00  0.00    +0.000 A 
ATOM     33  C   UNL     1      -6.772  10.645  19.166  0.00  0.00    +0.000 A 
ATOM     34  C   UNL     1      -6.778  11.142  20.452  0.00  0.00    +0.000 A 
ATOM     35  C   UNL     1      -5.932  12.144  20.854  0.00  0.00    +0.000 A 
ATOM     36  O   UNL     1      -7.538  10.383  21.293  0.00  0.00    +0.000 OA
ATOM     37  C   UNL     1      -7.588   9.187  20.489  0.00  0.00    +0.000 C 
ATOM     38  O   UNL     1      -7.496   9.490  19.080  0.00  0.00    +0.000 OA
ENDBRANCH  29  30
ENDBRANCH   5  29
TORSDOF 7
ENDMDL
MODEL 6
REMARK VINA RESULT:      -8.0      1.021      1.132
REMARK  Name = 
REMARK  10 active torsions:
REMARK  status: ('A' for Active; 'I' for Inactive)
REMARK    1  A    between atoms: C_1  and  C_2
REMARK    2  A    between atoms: C_2  and  C_3
REMARK    3  A    between atoms: C_3  and  N_4
REMARK    4  A    between atoms: C_9  and  C_10
REMARK    5  A    between atoms: C_14  and  C_16
REMARK    6  A    between atoms: C_16  and  C_17
REMARK    7  A    between atoms: N_27  and  C_28
REMARK    8  A    between atoms: N_31  and  C_32
REMARK    9  A    between atoms: C_32  and  C_33
REMARK   10  A    between atoms: C_33  and  C_34
REMARK                            x       y       z     vdW  Elec       q    Type
REMARK                         _______ _______ _______ _____ _____    ______ ____
ROOT
ATOM      1  C   UNL     1       0.766   9.023  19.616  0.00  0.00    +0.000 A 
ATOM      2  C   UNL     1      -0.207   9.537  18.784  0.00  0.00    +0.000 A 
ATOM      3  C   UNL     1      -0.844  10.559  19.520  0.00  0.00    +0.000 A 
ATOM      4  N   UNL     1      -1.874  11.382  19.122  0.00  0.00    +0.000 N 
ATOM      5  C   UNL     1      -2.892  10.959  18.285  0.00  0.00    +0.000 C 
ATOM      6  O   UNL     1      -3.001   9.819  17.836  0.00  0.00    +0.000 OA
ATOM      7  N   UNL     1      -0.285  10.717  20.720  0.00  0.00    +0.000 NA
ATOM      8  N   UNL     1       0.594   9.687  20.808  0.00  0.00    +0.000 N 
ATOM      9  C   UNL     1       1.253   9.421  22.068  0.00  0.00    +0.000 C 
ATOM     10  H   UNL     1      -2.030  12.157  19.749  0.00  0.00    +0.000 HD
ENDROOT
BRANCH   1  16
ATOM     11  N   UNL     1       4.850   5.094  18.043  0.00  0.00    +0.000 N 
ATOM     12  C   UNL     1       4.389   6.360  17.641  0.00  0.00    +0.000 A 
ATOM     13  O   UNL     1       4.845   6.985  16.686  0.00  0.00    +0.000 OA
ATOM     14  C   UNL     1       3.327   6.868  18.475  0.00  0.00    +0.000 A 
ATOM     15  N   UNL     1       2.615   8.044  18.359  0.00  0.00    +0.000 NA
ATOM     16  C   UNL     1       1.764   8.034  19.366  0.00  0.00    +0.000 A 
ATOM     17  N   UNL     1       1.922   6.901  20.129  0.00  0.00    +0.000 N 
ATOM     18  C   UNL     1       2.901   6.157  19.559  0.00  0.00    +0.000 A 
ATOM     19  N   UNL     1       3.386   4.925  19.953  0.00  0.00    +0.000 N 
ATOM     20  C   UNL     1       4.415   4.369  19.176  0.00  0.00    +0.000 A 
ATOM     21  O   UNL     1       4.926   3.289  19.480  0.00  0.00    +0.000 OA
ATOM     22  H   UNL     1       1.366   6.675  20.947  0.00  0.00    +0.000 HD
BRANCH  11  23
ATOM     23  C   UNL     1       5.933   4.511  17.256  0.00  0.00    +0.000 C 
BRANCH  23  25
ATOM     24  C   UNL     1       6.218   4.066  14.791  0.00  0.00    +0.000 C 
ATOM     25  C   UNL     1       5.401   3.755  16.036  0.00  0.00    +0.000 C 
ENDBRANCH  23  25
ENDBRANCH  11  23
BRANCH  19  26
ATOM     26  C   UNL     1       2.914   4.201  21.136  0.00  0.00    +0.000 C 
BRANCH  26  27
ATOM     27  C   UNL     1       1.933   3.062  20.828  0.00  0.00    +0.000 C 
ATOM     28  C   UNL     1       0.845   3.432  19.833  0.00  0.00    +0.000 C 
ENDBRANCH  26  27
ENDBRANCH  19  26
ENDBRANCH   1  16
BRANCH   5  29
ATOM     29  C   UNL     1      -3.935  12.035  17.964  0.00  0.00    +0.000 C 
BRANCH  29  30
ATOM     30  C   UNL     1      -4.771  12.378  19.175  0.00  0.00    +0.000 A 
ATOM     31  C   UNL     1      -5.933  11.626  19.481  0.00  0.00    +0.000 A 
ATOM     32  C   UNL     1      -6.497  11.668  20.759  0.00  0.00    +0.000 A 
ATOM     33  C   UNL     1      -5.838  12.422  21.701  0.00  0.00    +0.000 A 
ATOM     34  C   UNL     1      -4.779  13.242  21.372  0.00  0.00    +0.000 A 
ATOM     35  C   UNL     1      -4.260  13.294  20.103  0.00  0.00    +0.000 A 
ATOM     36  O   UNL     1      -4.195  13.793  22.474  0.00  0.00    +0.000 OA
ATOM     37  C   UNL     1      -4.716  12.874  23.455  0.00  0.00    +0.000 C 
ATOM     38  O   UNL     1      -5.997  12.340  23.055  0.00  0.00    +0.000 OA
ENDBRANCH  29  30
ENDBRANCH   5  29
TORSDOF 7
ENDMDL
MODEL 7
REMARK VINA RESULT:      -7.8      2.478      3.080
REMARK  Name = 
REMARK  10 active torsions:
REMARK  status: ('A' for Active; 'I' for Inactive)
REMARK    1  A    between atoms: C_1  and  C_2
REMARK    2  A    between atoms: C_2  and  C_3
REMARK    3  A    between atoms: C_3  and  N_4
REMARK    4  A    between atoms: C_9  and  C_10
REMARK    5  A    between atoms: C_14  and  C_16
REMARK    6  A    between atoms: C_16  and  C_17
REMARK    7  A    between atoms: N_27  and  C_28
REMARK    8  A    between atoms: N_31  and  C_32
REMARK    9  A    between atoms: C_32  and  C_33
REMARK   10  A    between atoms: C_33  and  C_34
REMARK                            x       y       z     vdW  Elec       q    Type
REMARK                         _______ _______ _______ _____ _____    ______ ____
ROOT
ATOM      1  C   UNL     1       0.511   9.684  19.508  0.00  0.00    +0.000 A 
ATOM      2  C   UNL     1       0.349  10.515  20.598  0.00  0.00    +0.000 A 
ATOM      3  C   UNL     1      -0.819  11.265  20.340  0.00  0.00    +0.000 A 
ATOM      4  N   UNL     1      -1.410  12.223  21.134  0.00  0.00    +0.000 N 
ATOM      5  C   UNL     1      -0.684  13.092  21.928  0.00  0.00    +0.000 C 
ATOM      6  O   UNL     1       0.544  13.125  21.990  0.00  0.00    +0.000 OA
ATOM      7  N   UNL     1      -1.387  10.905  19.189  0.00  0.00    +0.000 NA
ATOM      8  N   UNL     1      -0.491  10.046  18.639  0.00  0.00    +0.000 N 
ATOM      9  C   UNL     1      -0.683   9.595  17.277  0.00  0.00    +0.000 C 
ATOM     10  H   UNL     1      -2.337  12.479  20.826  0.00  0.00    +0.000 HD
ENDROOT
BRANCH   1  16
ATOM     11  N   UNL     1       4.448   5.589  17.982  0.00  0.00    +0.000 N 
ATOM     12  C   UNL     1       4.042   6.873  17.573  0.00  0.00    +0.000 A 
ATOM     13  O   UNL     1       4.531   7.476  16.621  0.00  0.00    +0.000 OA
ATOM     14  C   UNL     1       2.993   7.425  18.396  0.00  0.00    +0.000 A 
ATOM     15  N   UNL     1       2.331   8.628  18.271  0.00  0.00    +0.000 NA
ATOM     16  C   UNL     1       1.470   8.656  19.270  0.00  0.00    +0.000 A 
ATOM     17  N   UNL     1       1.576   7.519  20.037  0.00  0.00    +0.000 N 
ATOM     18  C   UNL     1       2.529   6.735  19.478  0.00  0.00    +0.000 A 
ATOM     19  N   UNL     1       2.960   5.485  19.879  0.00  0.00    +0.000 N 
ATOM     20  C   UNL     1       3.973   4.886  19.113  0.00  0.00    +0.000 A 
ATOM     21  O   UNL     1       4.438   3.787  19.424  0.00  0.00    +0.000 OA
ATOM     22  H   UNL     1       1.003   7.317  20.850  0.00  0.00    +0.000 HD
BRANCH  11  23
ATOM     23  C   UNL     1       5.513   4.962  17.207  0.00  0.00    +0.000 C 
BRANCH  23  25
ATOM     24  C   UNL     1       5.595   4.579  14.717  0.00  0.00    +0.000 C 
ATOM     25  C   UNL     1       4.957   4.156  16.030  0.00  0.00    +0.000 C 
ENDBRANCH  23  25
ENDBRANCH  11  23
BRANCH  19  26
ATOM     26  C   UNL     1       2.449   4.784  21.059  0.00  0.00    +0.000 C 
BRANCH  26  27
ATOM     27  C   UNL     1       1.222   3.904  20.787  0.00  0.00    +0.000 C 
ATOM     28  C   UNL     1       1.350   2.482  21.309  0.00  0.00    +0.000 C 
ENDBRANCH  26  27
ENDBRANCH  19  26
ENDBRANCH   1  16
BRANCH   5  29
ATOM     29  C   UNL     1      -1.539  14.076  22.734  0.00  0.00    +0.000 C 
BRANCH  29  30
ATOM     30  C   UNL     1      -2.947  13.563  22.926  0.00  0.00    +0.000 A 
ATOM     31  C   UNL     1      -3.246  12.667  23.983  0.00  0.00    +0.000 A 
ATOM     32  C   UNL     1      -4.564  12.478  24.411  0.00  0.00    +0.000 A 
ATOM     33  C   UNL     1      -5.528  13.241  23.796  0.00  0.00    +0.000 A 
ATOM     34  C   UNL     1      -5.251  14.022  22.694  0.00  0.00    +0.000 A 
ATOM     35  C   UNL     1      -3.982  14.156  22.191  0.00  0.00    +0.000 A 
ATOM     36  O   UNL     1      -6.316  14.791  22.329  0.00  0.00    +0.000 OA
ATOM     37  C   UNL     1      -7.049  14.716  23.568  0.00  0.00    +0.000 C 
ATOM     38  O   UNL     1      -6.789  13.477  24.264  0.00  0.00    +0.000 OA
ENDBRANCH  29  30
ENDBRANCH   5  29
TORSDOF 7
ENDMDL
MODEL 8
REMARK VINA RESULT:      -7.8      3.284      4.078
REMARK  Name = 
REMARK  10 active torsions:
REMARK  status: ('A' for Active; 'I' for Inactive)
REMARK    1  A    between atoms: C_1  and  C_2
REMARK    2  A    between atoms: C_2  and  C_3
REMARK    3  A    between atoms: C_3  and  N_4
REMARK    4  A    between atoms: C_9  and  C_10
REMARK    5  A    between atoms: C_14  and  C_16
REMARK    6  A    between atoms: C_16  and  C_17
REMARK    7  A    between atoms: N_27  and  C_28
REMARK    8  A    between atoms: N_31  and  C_32
REMARK    9  A    between atoms: C_32  and  C_33
REMARK   10  A    between atoms: C_33  and  C_34
REMARK                            x       y       z     vdW  Elec       q    Type
REMARK                         _______ _______ _______ _____ _____    ______ ____
ROOT
ATOM      1  C   UNL     1       1.210   9.359  19.681  0.00  0.00    +0.000 A 
ATOM      2  C   UNL     1       0.315   9.524  20.717  0.00  0.00    +0.000 A 
ATOM      3  C   UNL     1      -0.314  10.767  20.490  0.00  0.00    +0.000 A 
ATOM      4  N   UNL     1      -1.297  11.376  21.239  0.00  0.00    +0.000 N 
ATOM      5  C   UNL     1      -1.360  11.275  22.617  0.00  0.00    +0.000 C 
ATOM      6  O   UNL     1      -0.549  10.666  23.313  0.00  0.00    +0.000 OA
ATOM      7  N   UNL     1       0.115  11.332  19.361  0.00  0.00    +0.000 NA
ATOM      8  N   UNL     1       1.134  10.529  18.962  0.00  0.00    +0.000 N 
ATOM      9  C   UNL     1       1.977  10.944  17.862  0.00  0.00    +0.000 C 
ATOM     10  H   UNL     1      -1.722  12.164  20.773  0.00  0.00    +0.000 HD
ENDROOT
BRANCH   1  16
ATOM     11  N   UNL     1       4.669   4.982  17.816  0.00  0.00    +0.000 N 
ATOM     12  C   UNL     1       4.403   6.328  17.504  0.00  0.00    +0.000 A 
ATOM     13  O   UNL     1       4.950   6.942  16.592  0.00  0.00    +0.000 OA
ATOM     14  C   UNL     1       3.425   6.929  18.378  0.00  0.00    +0.000 A 
ATOM     15  N   UNL     1       2.897   8.204  18.347  0.00  0.00    +0.000 NA
ATOM     16  C   UNL     1       2.049   8.252  19.357  0.00  0.00    +0.000 A 
ATOM     17  N   UNL     1       2.035   7.058  20.040  0.00  0.00    +0.000 N 
ATOM     18  C   UNL     1       2.894   6.217  19.414  0.00  0.00    +0.000 A 
ATOM     19  N   UNL     1       3.188   4.903  19.720  0.00  0.00    +0.000 N 
ATOM     20  C   UNL     1       4.126   4.254  18.900  0.00  0.00    +0.000 A 
ATOM     21  O   UNL     1       4.469   3.092  19.126  0.00  0.00    +0.000 OA
ATOM     22  H   UNL     1       1.448   6.861  20.844  0.00  0.00    +0.000 HD
BRANCH  11  23
ATOM     23  C   UNL     1       5.655   4.300  16.984  0.00  0.00    +0.000 C 
BRANCH  23  25
ATOM     24  C   UNL     1       6.040   4.087  14.502  0.00  0.00    +0.000 C 
ATOM     25  C   UNL     1       5.059   3.864  15.643  0.00  0.00    +0.000 C 
ENDBRANCH  23  25
ENDBRANCH  11  23
BRANCH  19  26
ATOM     26  C   UNL     1       2.610   4.178  20.853  0.00  0.00    +0.000 C 
BRANCH  26  27
ATOM     27  C   UNL     1       1.131   3.809  20.677  0.00  0.00    +0.000 C 
ATOM     28  C   UNL     1       0.873   2.785  19.583  0.00  0.00    +0.000 C 
ENDBRANCH  26  27
ENDBRANCH  19  26
ENDBRANCH   1  16
BRANCH   5  29
ATOM     29  C   UNL     1      -2.534  12.026  23.253  0.00  0.00    +0.000 C 
BRANCH  29  30
ATOM     30  C   UNL     1      -2.130  13.409  23.707  0.00  0.00    +0.000 A 
ATOM     31  C   UNL     1      -0.978  14.034  23.166  0.00  0.00    +0.000 A 
ATOM     32  C   UNL     1      -0.795  15.416  23.273  0.00  0.00    +0.000 A 
ATOM     33  C   UNL     1      -1.807  16.128  23.872  0.00  0.00    +0.000 A 
ATOM     34  C   UNL     1      -2.867  15.508  24.499  0.00  0.00    +0.000 A 
ATOM     35  C   UNL     1      -3.027  14.145  24.492  0.00  0.00    +0.000 A 
ATOM     36  O   UNL     1      -3.815  16.399  24.907  0.00  0.00    +0.000 OA
ATOM     37  C   UNL     1      -3.421  17.505  24.070  0.00  0.00    +0.000 C 
ATOM     38  O   UNL     1      -2.005  17.476  23.783  0.00  0.00    +0.000 OA
ENDBRANCH  29  30
ENDBRANCH   5  29
TORSDOF 7
ENDMDL
MODEL 9
REMARK VINA RESULT:      -7.8      2.741     11.355
REMARK  Name = 
REMARK  10 active torsions:
REMARK  status: ('A' for Active; 'I' for Inactive)
REMARK    1  A    between atoms: C_1  and  C_2
REMARK    2  A    between atoms: C_2  and  C_3
REMARK    3  A    between atoms: C_3  and  N_4
REMARK    4  A    between atoms: C_9  and  C_10
REMARK    5  A    between atoms: C_14  and  C_16
REMARK    6  A    between atoms: C_16  and  C_17
REMARK    7  A    between atoms: N_27  and  C_28
REMARK    8  A    between atoms: N_31  and  C_32
REMARK    9  A    between atoms: C_32  and  C_33
REMARK   10  A    between atoms: C_33  and  C_34
REMARK                            x       y       z     vdW  Elec       q    Type
REMARK                         _______ _______ _______ _____ _____    ______ ____
ROOT
ATOM      1  C   UNL     1       2.570   6.765  19.448  0.00  0.00    +0.000 A 
ATOM      2  C   UNL     1       3.705   6.686  18.668  0.00  0.00    +0.000 A 
ATOM      3  C   UNL     1       3.933   5.310  18.455  0.00  0.00    +0.000 A 
ATOM      4  N   UNL     1       4.937   4.713  17.726  0.00  0.00    +0.000 N 
ATOM      5  C   UNL     1       6.220   5.225  17.658  0.00  0.00    +0.000 C 
ATOM      6  O   UNL     1       6.605   6.233  18.250  0.00  0.00    +0.000 OA
ATOM      7  N   UNL     1       2.982   4.565  19.020  0.00  0.00    +0.000 NA
ATOM      8  N   UNL     1       2.247   5.458  19.730  0.00  0.00    +0.000 N 
ATOM      9  C   UNL     1       1.231   4.979  20.641  0.00  0.00    +0.000 C 
ATOM     10  H   UNL     1       4.780   3.730  17.561  0.00  0.00    +0.000 HD
ENDROOT
BRANCH   1  16
ATOM     11  N   UNL     1      -0.536  11.188  21.769  0.00  0.00    +0.000 N 
ATOM     12  C   UNL     1       0.327  10.162  22.195  0.00  0.00    +0.000 A 
ATOM     13  O   UNL     1       0.631   9.965  23.369  0.00  0.00    +0.000 OA
ATOM     14  C   UNL     1       0.839   9.363  21.108  0.00  0.00    +0.000 A 
ATOM     15  N   UNL     1       1.669   8.262  21.152  0.00  0.00    +0.000 NA
ATOM     16  C   UNL     1       1.837   7.905  19.894  0.00  0.00    +0.000 A 
ATOM     17  N   UNL     1       1.157   8.752  19.050  0.00  0.00    +0.000 N 
ATOM     18  C   UNL     1       0.515   9.666  19.817  0.00  0.00    +0.000 A 
ATOM     19  N   UNL     1      -0.315  10.695  19.417  0.00  0.00    +0.000 N 
ATOM     20  C   UNL     1      -0.856  11.505  20.428  0.00  0.00    +0.000 A 
ATOM     21  O   UNL     1      -1.578  12.466  20.154  0.00  0.00    +0.000 OA
ATOM     22  H   UNL     1       1.131   8.660  18.040  0.00  0.00    +0.000 HD
BRANCH  11  23
ATOM     23  C   UNL     1      -1.092  12.050  22.807  0.00  0.00    +0.000 C 
BRANCH  23  25
ATOM     24  C   UNL     1      -3.402  12.586  23.661  0.00  0.00    +0.000 C 
ATOM     25  C   UNL     1      -2.395  11.482  23.376  0.00  0.00    +0.000 C 
ENDBRANCH  23  25
ENDBRANCH  11  23
BRANCH  19  26
ATOM     26  C   UNL     1      -0.623  10.999  18.018  0.00  0.00    +0.000 C 
BRANCH  26  27
ATOM     27  C   UNL     1      -1.794  10.192  17.441  0.00  0.00    +0.000 C 
ATOM     28  C   UNL     1      -2.602  10.936  16.390  0.00  0.00    +0.000 C 
ENDBRANCH  26  27
ENDBRANCH  19  26
ENDBRANCH   1  16
BRANCH   5  29
ATOM     29  C   UNL     1       7.182   4.408  16.788  0.00  0.00    +0.000 C 
BRANCH  29  30
ATOM     30  C   UNL     1       6.937   4.642  15.316  0.00  0.00    +0.000 A 
ATOM     31  C   UNL     1       7.810   5.469  14.566  0.00  0.00    +0.000 A 
ATOM     32  C   UNL     1       7.836   5.403  13.170  0.00  0.00    +0.000 A 
ATOM     33  C   UNL     1       7.021   4.466  12.580  0.00  0.00    +0.000 A 
ATOM     34  C   UNL     1       6.092   3.747  13.302  0.00  0.00    +0.000 A 
ATOM     35  C   UNL     1       5.977   3.857  14.664  0.00  0.00    +0.000 A 
ATOM     36  O   UNL     1       5.488   2.786  12.547  0.00  0.00    +0.000 OA
ATOM     37  C   UNL     1       6.462   2.725  11.486  0.00  0.00    +0.000 C 
ATOM     38  O   UNL     1       7.127   3.994  11.303  0.00  0.00    +0.000 OA
ENDBRANCH  29  30
ENDBRANCH   5  29
TORSDOF 7
ENDMDL
