MODEL 1
REMARK VINA RESULT:      -8.0      0.000      0.000
REMARK  Name = 
REMARK  5 active torsions:
REMARK  status: ('A' for Active; 'I' for Inactive)
REMARK    1  A    between atoms: C_1  and  C_2
REMARK    2  A    between atoms: C_6  and  C_7
REMARK    3  A    between atoms: N_9  and  C_10
REMARK    4  A    between atoms: C_19  and  C_20
REMARK    5  A    between atoms: C_20  and  O_22
REMARK                            x       y       z     vdW  Elec       q    Type
REMARK                         _______ _______ _______ _____ _____    ______ ____
ROOT
ATOM      1  C   UNL     1       3.297   6.527  18.323  0.00  0.00    +0.000 A 
ATOM      2  C   UNL     1       4.041   6.955  17.214  0.00  0.00    +0.000 A 
ATOM      3  C   UNL     1       4.728   6.047  16.410  0.00  0.00    +0.000 A 
ATOM      4 CL   UNL     1       5.617   6.620  15.052  0.00  0.00    +0.000 Cl
ATOM      5  C   UNL     1       4.689   4.690  16.692  0.00  0.00    +0.000 A 
ATOM      6  C   UNL     1       3.973   4.253  17.810  0.00  0.00    +0.000 A 
ATOM      7  C   UNL     1       3.895   2.814  18.108  0.00  0.00    +0.000 A 
ATOM      8  O   UNL     1       4.439   1.971  17.406  0.00  0.00    +0.000 OA
ATOM      9  C   UNL     1       3.119   2.436  19.297  0.00  0.00    +0.000 A 
ATOM     10  C   UNL     1       2.543   3.392  20.042  0.00  0.00    +0.000 A 
ATOM     11  O   UNL     1       2.602   4.751  19.760  0.00  0.00    +0.000 OA
ATOM     12  C   UNL     1       3.300   5.159  18.641  0.00  0.00    +0.000 A 
ENDROOT
BRANCH   1  15
ATOM     13  C   UNL     1       1.909   8.566  18.613  0.00  0.00    +0.000 C 
ATOM     14  O   UNL     1       1.908   8.915  17.433  0.00  0.00    +0.000 OA
ATOM     15  N   UNL     1       2.532   7.432  19.114  0.00  0.00    +0.000 N 
ATOM     16  H   UNL     1       2.266   7.121  20.037  0.00  0.00    +0.000 HD
BRANCH  13  22
ATOM     17  C   UNL     1      -0.078   9.536  23.162  0.00  0.00    +0.000 C 
ATOM     18  C   UNL     1       0.164   9.907  21.727  0.00  0.00    +0.000 A 
ATOM     19  C   UNL     1      -0.322  11.120  21.219  0.00  0.00    +0.000 A 
ATOM     20  C   UNL     1      -0.095  11.472  19.891  0.00  0.00    +0.000 A 
ATOM     21  C   UNL     1       0.616  10.611  19.061  0.00  0.00    +0.000 A 
ATOM     22  C   UNL     1       1.104   9.389  19.550  0.00  0.00    +0.000 A 
ATOM     23  C   UNL     1       0.883   9.038  20.886  0.00  0.00    +0.000 A 
ENDBRANCH  13  22
ENDBRANCH   1  15
BRANCH  10  24
ATOM     24  C   UNL     1       1.781   2.968  21.251  0.00  0.00    +0.000 C 
ATOM     25  O   UNL     1       2.288   2.768  22.346  0.00  0.00    +0.000 OA
BRANCH  24  26
ATOM     26  O   UNL     1       0.458   2.815  21.024  0.00  0.00    +0.000 OA
ATOM     27  H   UNL     1       0.208   2.762  20.083  0.00  0.00    +0.000 HD
ENDBRANCH  24  26
ENDBRANCH  10  24
TORSDOF 4
ENDMDL
MODEL 2
REMARK VINA RESULT:      -8.0      0.597      1.357
REMARK  Name = 
REMARK  5 active torsions:
REMARK  status: ('A' for Active; 'I' for Inactive)
REMARK    1  A    between atoms: C_1  and  C_2
REMARK    2  A    between atoms: C_6  and  C_7
REMARK    3  A    between atoms: N_9  and  C_10
REMARK    4  A    between atoms: C_19  and  C_20
REMARK    5  A    between atoms: C_20  and  O_22
REMARK                            x       y       z     vdW  Elec       q    Type
REMARK                         _______ _______ _______ _____ _____    ______ ____
ROOT
ATOM      1  C   UNL     1       3.240   6.508  18.659  0.00  0.00    +0.000 A 
ATOM      2  C   UNL     1       3.900   7.032  17.538  0.00  0.00    +0.000 A 
ATOM      3  C   UNL     1       4.523   6.198  16.610  0.00  0.00    +0.000 A 
ATOM      4 CL   UNL     1       5.311   6.889  15.245  0.00  0.00    +0.000 Cl
ATOM      5  C   UNL     1       4.501   4.822  16.777  0.00  0.00    +0.000 A 
ATOM      6  C   UNL     1       3.868   4.288  17.904  0.00  0.00    +0.000 A 
ATOM      7  C   UNL     1       3.808   2.830  18.082  0.00  0.00    +0.000 A 
ATOM      8  O   UNL     1       4.296   2.051  17.273  0.00  0.00    +0.000 OA
ATOM      9  C   UNL     1       3.121   2.348  19.289  0.00  0.00    +0.000 A 
ATOM     10  C   UNL     1       2.606   3.235  20.154  0.00  0.00    +0.000 A 
ATOM     11  O   UNL     1       2.648   4.613  19.986  0.00  0.00    +0.000 OA
ATOM     12  C   UNL     1       3.262   5.118  18.857  0.00  0.00    +0.000 A 
ENDROOT
BRANCH   1  15
ATOM     13  C   UNL     1       1.725   8.399  19.204  0.00  0.00    +0.000 C 
ATOM     14  O   UNL     1       1.479   8.732  18.046  0.00  0.00    +0.000 OA
ATOM     15  N   UNL     1       2.539   7.340  19.579  0.00  0.00    +0.000 N 
ATOM     16  H   UNL     1       2.473   7.013  20.533  0.00  0.00    +0.000 HD
BRANCH  13  22
ATOM     17  C   UNL     1      -1.452  11.984  20.829  0.00  0.00    +0.000 C 
ATOM     18  C   UNL     1      -0.526  10.832  21.091  0.00  0.00    +0.000 A 
ATOM     19  C   UNL     1      -0.339  10.358  22.397  0.00  0.00    +0.000 A 
ATOM     20  C   UNL     1       0.515   9.286  22.646  0.00  0.00    +0.000 A 
ATOM     21  C   UNL     1       1.189   8.682  21.588  0.00  0.00    +0.000 A 
ATOM     22  C   UNL     1       1.019   9.147  20.275  0.00  0.00    +0.000 A 
ATOM     23  C   UNL     1       0.157  10.219  20.024  0.00  0.00    +0.000 A 
ENDBRANCH  13  22
ENDBRANCH   1  15
BRANCH  10  24
ATOM     24  C   UNL     1       1.934   2.707  21.375  0.00  0.00    +0.000 C 
ATOM     25  O   UNL     1       2.529   2.263  22.348  0.00  0.00    +0.000 OA
BRANCH  24  26
ATOM     26  O   UNL     1       0.586   2.755  21.308  0.00  0.00    +0.000 OA
ATOM     27  H   UNL     1       0.125   2.079  21.839  0.00  0.00    +0.000 HD
ENDBRANCH  24  26
ENDBRANCH  10  24
TORSDOF 4
ENDMDL
MODEL 3
REMARK VINA RESULT:      -7.8      0.957      1.717
REMARK  Name = 
REMARK  5 active torsions:
REMARK  status: ('A' for Active; 'I' for Inactive)
REMARK    1  A    between atoms: C_1  and  C_2
REMARK    2  A    between atoms: C_6  and  C_7
REMARK    3  A    between atoms: N_9  and  C_10
REMARK    4  A    between atoms: C_19  and  C_20
REMARK    5  A    between atoms: C_20  and  O_22
REMARK                            x       y       z     vdW  Elec       q    Type
REMARK                         _______ _______ _______ _____ _____    ______ ____
ROOT
ATOM      1  C   UNL     1       3.949   6.027  17.868  0.00  0.00    +0.000 A 
ATOM      2  C   UNL     1       4.756   6.152  16.728  0.00  0.00    +0.000 A 
ATOM      3  C   UNL     1       5.235   5.029  16.054  0.00  0.00    +0.000 A 
ATOM      4 CL   UNL     1       6.212   5.233  14.653  0.00  0.00    +0.000 Cl
ATOM      5  C   UNL     1       4.919   3.755  16.501  0.00  0.00    +0.000 A 
ATOM      6  C   UNL     1       4.137   3.617  17.651  0.00  0.00    +0.000 A 
ATOM      7  C   UNL     1       3.766   2.274  18.123  0.00  0.00    +0.000 A 
ATOM      8  O   UNL     1       4.119   1.256  17.541  0.00  0.00    +0.000 OA
ATOM      9  C   UNL     1       2.938   2.214  19.336  0.00  0.00    +0.000 A 
ATOM     10  C   UNL     1       2.578   3.353  19.947  0.00  0.00    +0.000 A 
ATOM     11  O   UNL     1       2.914   4.625  19.500  0.00  0.00    +0.000 OA
ATOM     12  C   UNL     1       3.672   4.738  18.352  0.00  0.00    +0.000 A 
ENDROOT
BRANCH   1  15
ATOM     13  C   UNL     1       2.151   7.703  18.229  0.00  0.00    +0.000 C 
ATOM     14  O   UNL     1       1.365   7.261  17.393  0.00  0.00    +0.000 OA
ATOM     15  N   UNL     1       3.393   7.162  18.528  0.00  0.00    +0.000 N 
ATOM     16  H   UNL     1       3.839   7.456  19.385  0.00  0.00    +0.000 HD
BRANCH  13  22
ATOM     17  C   UNL     1       0.764  12.538  18.759  0.00  0.00    +0.000 C 
ATOM     18  C   UNL     1       0.978  11.163  19.322  0.00  0.00    +0.000 A 
ATOM     19  C   UNL     1       0.669  10.893  20.663  0.00  0.00    +0.000 A 
ATOM     20  C   UNL     1       0.861   9.617  21.189  0.00  0.00    +0.000 A 
ATOM     21  C   UNL     1       1.364   8.605  20.378  0.00  0.00    +0.000 A 
ATOM     22  C   UNL     1       1.684   8.859  19.035  0.00  0.00    +0.000 A 
ATOM     23  C   UNL     1       1.487  10.138  18.505  0.00  0.00    +0.000 A 
ENDBRANCH  13  22
ENDBRANCH   1  15
BRANCH  10  24
ATOM     24  C   UNL     1       1.754   3.249  21.185  0.00  0.00    +0.000 C 
ATOM     25  O   UNL     1       2.205   3.342  22.318  0.00  0.00    +0.000 OA
BRANCH  24  26
ATOM     26  O   UNL     1       0.444   3.031  20.939  0.00  0.00    +0.000 OA
ATOM     27  H   UNL     1       0.259   2.319  20.300  0.00  0.00    +0.000 HD
ENDBRANCH  24  26
ENDBRANCH  10  24
TORSDOF 4
ENDMDL
MODEL 4
REMARK VINA RESULT:      -7.7      7.495      9.885
REMARK  Name = 
REMARK  5 active torsions:
REMARK  status: ('A' for Active; 'I' for Inactive)
REMARK    1  A    between atoms: C_1  and  C_2
REMARK    2  A    between atoms: C_6  and  C_7
REMARK    3  A    between atoms: N_9  and  C_10
REMARK    4  A    between atoms: C_19  and  C_20
REMARK    5  A    between atoms: C_20  and  O_22
REMARK                            x       y       z     vdW  Elec       q    Type
REMARK                         _______ _______ _______ _____ _____    ______ ____
ROOT
ATOM      1  C   UNL     1       9.886  11.040  18.905  0.00  0.00    +0.000 A 
ATOM      2  C   UNL     1      10.709  11.520  17.875  0.00  0.00    +0.000 A 
ATOM      3  C   UNL     1      11.324  12.768  17.963  0.00  0.00    +0.000 A 
ATOM      4 CL   UNL     1      12.333  13.309  16.679  0.00  0.00    +0.000 Cl
ATOM      5  C   UNL     1      11.135  13.567  19.081  0.00  0.00    +0.000 A 
ATOM      6  C   UNL     1      10.297  13.111  20.103  0.00  0.00    +0.000 A 
ATOM      7  C   UNL     1      10.108  13.930  21.310  0.00  0.00    +0.000 A 
ATOM      8  O   UNL     1      10.663  15.011  21.460  0.00  0.00    +0.000 OA
ATOM      9  C   UNL     1       9.216  13.378  22.340  0.00  0.00    +0.000 A 
ATOM     10  C   UNL     1       8.623  12.192  22.134  0.00  0.00    +0.000 A 
ATOM     11  O   UNL     1       8.806  11.407  21.002  0.00  0.00    +0.000 OA
ATOM     12  C   UNL     1       9.652  11.869  20.014  0.00  0.00    +0.000 A 
ENDROOT
BRANCH   1  15
ATOM     13  C   UNL     1       8.253   9.383  18.033  0.00  0.00    +0.000 C 
ATOM     14  O   UNL     1       7.713  10.124  17.214  0.00  0.00    +0.000 OA
ATOM     15  N   UNL     1       9.307   9.738  18.863  0.00  0.00    +0.000 N 
ATOM     16  H   UNL     1       9.823   8.994  19.311  0.00  0.00    +0.000 HD
BRANCH  13  22
ATOM     17  C   UNL     1       5.529   5.516  16.243  0.00  0.00    +0.000 C 
ATOM     18  C   UNL     1       6.523   6.086  17.214  0.00  0.00    +0.000 A 
ATOM     19  C   UNL     1       7.120   5.262  18.178  0.00  0.00    +0.000 A 
ATOM     20  C   UNL     1       8.046   5.784  19.078  0.00  0.00    +0.000 A 
ATOM     21  C   UNL     1       8.380   7.134  19.020  0.00  0.00    +0.000 A 
ATOM     22  C   UNL     1       7.788   7.974  18.065  0.00  0.00    +0.000 A 
ATOM     23  C   UNL     1       6.862   7.450  17.157  0.00  0.00    +0.000 A 
ENDBRANCH  13  22
ENDBRANCH   1  15
BRANCH  10  24
ATOM     24  C   UNL     1       7.711  11.676  23.194  0.00  0.00    +0.000 C 
ATOM     25  O   UNL     1       6.494  11.798  23.170  0.00  0.00    +0.000 OA
BRANCH  24  26
ATOM     26  O   UNL     1       8.360  11.059  24.205  0.00  0.00    +0.000 OA
ATOM     27  H   UNL     1       8.411  11.571  25.033  0.00  0.00    +0.000 HD
ENDBRANCH  24  26
ENDBRANCH  10  24
TORSDOF 4
ENDMDL
MODEL 5
REMARK VINA RESULT:      -7.6      3.129      7.018
REMARK  Name = 
REMARK  5 active torsions:
REMARK  status: ('A' for Active; 'I' for Inactive)
REMARK    1  A    between atoms: C_1  and  C_2
REMARK    2  A    between atoms: C_6  and  C_7
REMARK    3  A    between atoms: N_9  and  C_10
REMARK    4  A    between atoms: C_19  and  C_20
REMARK    5  A    between atoms: C_20  and  O_22
REMARK                            x       y       z     vdW  Elec       q    Type
REMARK                         _______ _______ _______ _____ _____    ______ ____
ROOT
ATOM      1  C   UNL     1       3.642   5.571  17.347  0.00  0.00    +0.000 A 
ATOM      2  C   UNL     1       3.105   6.864  17.437  0.00  0.00    +0.000 A 
ATOM      3  C   UNL     1       2.502   7.316  18.610  0.00  0.00    +0.000 A 
ATOM      4 CL   UNL     1       1.868   8.914  18.677  0.00  0.00    +0.000 Cl
ATOM      5  C   UNL     1       2.421   6.490  19.721  0.00  0.00    +0.000 A 
ATOM      6  C   UNL     1       2.928   5.190  19.636  0.00  0.00    +0.000 A 
ATOM      7  C   UNL     1       2.878   4.310  20.813  0.00  0.00    +0.000 A 
ATOM      8  O   UNL     1       2.404   4.673  21.881  0.00  0.00    +0.000 OA
ATOM      9  C   UNL     1       3.438   2.961  20.643  0.00  0.00    +0.000 A 
ATOM     10  C   UNL     1       3.943   2.601  19.453  0.00  0.00    +0.000 A 
ATOM     11  O   UNL     1       4.004   3.431  18.341  0.00  0.00    +0.000 OA
ATOM     12  C   UNL     1       3.513   4.716  18.453  0.00  0.00    +0.000 A 
ENDROOT
BRANCH   1  15
ATOM     13  C   UNL     1       5.540   5.623  15.746  0.00  0.00    +0.000 C 
ATOM     14  O   UNL     1       6.195   6.492  16.319  0.00  0.00    +0.000 OA
ATOM     15  N   UNL     1       4.324   5.117  16.180  0.00  0.00    +0.000 N 
ATOM     16  H   UNL     1       4.003   4.251  15.771  0.00  0.00    +0.000 HD
BRANCH  13  22
ATOM     17  C   UNL     1       5.476   2.502  11.766  0.00  0.00    +0.000 C 
ATOM     18  C   UNL     1       6.146   3.557  12.598  0.00  0.00    +0.000 A 
ATOM     19  C   UNL     1       7.391   4.074  12.214  0.00  0.00    +0.000 A 
ATOM     20  C   UNL     1       8.015   5.056  12.980  0.00  0.00    +0.000 A 
ATOM     21  C   UNL     1       7.397   5.526  14.135  0.00  0.00    +0.000 A 
ATOM     22  C   UNL     1       6.154   5.015  14.538  0.00  0.00    +0.000 A 
ATOM     23  C   UNL     1       5.525   4.033  13.767  0.00  0.00    +0.000 A 
ENDBRANCH  13  22
ENDBRANCH   1  15
BRANCH  10  24
ATOM     24  C   UNL     1       4.482   1.218  19.316  0.00  0.00    +0.000 C 
ATOM     25  O   UNL     1       5.258   0.703  20.109  0.00  0.00    +0.000 OA
BRANCH  24  26
ATOM     26  O   UNL     1       4.036   0.576  18.214  0.00  0.00    +0.000 OA
ATOM     27  H   UNL     1       4.115   1.082  17.385  0.00  0.00    +0.000 HD
ENDBRANCH  24  26
ENDBRANCH  10  24
TORSDOF 4
ENDMDL
MODEL 6
REMARK VINA RESULT:      -7.5      1.220      1.412
REMARK  Name = 
REMARK  5 active torsions:
REMARK  status: ('A' for Active; 'I' for Inactive)
REMARK    1  A    between atoms: C_1  and  C_2
REMARK    2  A    between atoms: C_6  and  C_7
REMARK    3  A    between atoms: N_9  and  C_10
REMARK    4  A    between atoms: C_19  and  C_20
REMARK    5  A    between atoms: C_20  and  O_22
REMARK                            x       y       z     vdW  Elec       q    Type
REMARK                         _______ _______ _______ _____ _____    ______ ____
ROOT
ATOM      1  C   UNL     1       3.718   6.583  18.427  0.00  0.00    +0.000 A 
ATOM      2  C   UNL     1       4.933   7.105  17.959  0.00  0.00    +0.000 A 
ATOM      3  C   UNL     1       5.860   6.300  17.298  0.00  0.00    +0.000 A 
ATOM      4 CL   UNL     1       7.332   6.989  16.732  0.00  0.00    +0.000 Cl
ATOM      5  C   UNL     1       5.595   4.955  17.085  0.00  0.00    +0.000 A 
ATOM      6  C   UNL     1       4.400   4.417  17.568  0.00  0.00    +0.000 A 
ATOM      7  C   UNL     1       4.088   3.000  17.326  0.00  0.00    +0.000 A 
ATOM      8  O   UNL     1       4.844   2.261  16.708  0.00  0.00    +0.000 OA
ATOM      9  C   UNL     1       2.809   2.512  17.862  0.00  0.00    +0.000 A 
ATOM     10  C   UNL     1       2.013   3.354  18.538  0.00  0.00    +0.000 A 
ATOM     11  O   UNL     1       2.294   4.696  18.760  0.00  0.00    +0.000 OA
ATOM     12  C   UNL     1       3.473   5.210  18.258  0.00  0.00    +0.000 A 
ENDROOT
BRANCH   1  15
ATOM     13  C   UNL     1       2.104   8.471  18.411  0.00  0.00    +0.000 C 
ATOM     14  O   UNL     1       2.291   8.818  17.247  0.00  0.00    +0.000 OA
ATOM     15  N   UNL     1       2.730   7.406  19.042  0.00  0.00    +0.000 N 
ATOM     16  H   UNL     1       2.326   7.067  19.904  0.00  0.00    +0.000 HD
BRANCH  13  22
ATOM     17  C   UNL     1      -0.306   9.733  22.676  0.00  0.00    +0.000 C 
ATOM     18  C   UNL     1      -0.100   9.864  21.194  0.00  0.00    +0.000 A 
ATOM     19  C   UNL     1      -0.871  10.769  20.452  0.00  0.00    +0.000 A 
ATOM     20  C   UNL     1      -0.681  10.899  19.078  0.00  0.00    +0.000 A 
ATOM     21  C   UNL     1       0.281  10.122  18.438  0.00  0.00    +0.000 A 
ATOM     22  C   UNL     1       1.057   9.207  19.165  0.00  0.00    +0.000 A 
ATOM     23  C   UNL     1       0.871   9.080  20.545  0.00  0.00    +0.000 A 
ENDBRANCH  13  22
ENDBRANCH   1  15
BRANCH  10  24
ATOM     24  C   UNL     1       0.733   2.815  19.082  0.00  0.00    +0.000 C 
ATOM     25  O   UNL     1       0.025   2.008  18.497  0.00  0.00    +0.000 OA
BRANCH  24  26
ATOM     26  O   UNL     1       0.417   3.313  20.297  0.00  0.00    +0.000 OA
ATOM     27  H   UNL     1      -0.472   3.709  20.359  0.00  0.00    +0.000 HD
ENDBRANCH  24  26
ENDBRANCH  10  24
TORSDOF 4
ENDMDL
MODEL 7
REMARK VINA RESULT:      -7.3      3.917      5.717
REMARK  Name = 
REMARK  5 active torsions:
REMARK  status: ('A' for Active; 'I' for Inactive)
REMARK    1  A    between atoms: C_1  and  C_2
REMARK    2  A    between atoms: C_6  and  C_7
REMARK    3  A    between atoms: N_9  and  C_10
REMARK    4  A    between atoms: C_19  and  C_20
REMARK    5  A    between atoms: C_20  and  O_22
REMARK                            x       y       z     vdW  Elec       q    Type
REMARK                         _______ _______ _______ _____ _____    ______ ____
ROOT
ATOM      1  C   UNL     1       5.855   6.320  16.581  0.00  0.00    +0.000 A 
ATOM      2  C   UNL     1       6.422   5.513  15.584  0.00  0.00    +0.000 A 
ATOM      3  C   UNL     1       5.798   4.340  15.161  0.00  0.00    +0.000 A 
ATOM      4 CL   UNL     1       6.527   3.389  13.925  0.00  0.00    +0.000 Cl
ATOM      5  C   UNL     1       4.592   3.945  15.721  0.00  0.00    +0.000 A 
ATOM      6  C   UNL     1       4.030   4.727  16.734  0.00  0.00    +0.000 A 
ATOM      7  C   UNL     1       2.737   4.341  17.319  0.00  0.00    +0.000 A 
ATOM      8  O   UNL     1       2.123   3.348  16.950  0.00  0.00    +0.000 OA
ATOM      9  C   UNL     1       2.211   5.218  18.375  0.00  0.00    +0.000 A 
ATOM     10  C   UNL     1       2.919   6.293  18.754  0.00  0.00    +0.000 A 
ATOM     11  O   UNL     1       4.134   6.671  18.197  0.00  0.00    +0.000 OA
ATOM     12  C   UNL     1       4.662   5.894  17.186  0.00  0.00    +0.000 A 
ENDROOT
BRANCH   1  15
ATOM     13  C   UNL     1       7.549   7.661  17.808  0.00  0.00    +0.000 C 
ATOM     14  O   UNL     1       8.176   6.714  18.279  0.00  0.00    +0.000 OA
ATOM     15  N   UNL     1       6.444   7.557  16.975  0.00  0.00    +0.000 N 
ATOM     16  H   UNL     1       6.165   8.380  16.461  0.00  0.00    +0.000 HD
BRANCH  13  22
ATOM     17  C   UNL     1       7.706  12.663  17.073  0.00  0.00    +0.000 C 
ATOM     18  C   UNL     1       8.159  11.425  17.792  0.00  0.00    +0.000 A 
ATOM     19  C   UNL     1       9.084  11.517  18.842  0.00  0.00    +0.000 A 
ATOM     20  C   UNL     1       9.503  10.372  19.517  0.00  0.00    +0.000 A 
ATOM     21  C   UNL     1       9.002   9.129  19.144  0.00  0.00    +0.000 A 
ATOM     22  C   UNL     1       8.080   9.018  18.091  0.00  0.00    +0.000 A 
ATOM     23  C   UNL     1       7.654  10.167  17.417  0.00  0.00    +0.000 A 
ENDBRANCH  13  22
ENDBRANCH   1  15
BRANCH  10  24
ATOM     24  C   UNL     1       2.360   7.146  19.841  0.00  0.00    +0.000 C 
ATOM     25  O   UNL     1       2.110   8.338  19.718  0.00  0.00    +0.000 OA
BRANCH  24  26
ATOM     26  O   UNL     1       2.158   6.477  20.997  0.00  0.00    +0.000 OA
ATOM     27  H   UNL     1       2.245   7.016  21.804  0.00  0.00    +0.000 HD
ENDBRANCH  24  26
ENDBRANCH  10  24
TORSDOF 4
ENDMDL
MODEL 8
REMARK VINA RESULT:      -7.3      1.308      2.028
REMARK  Name = 
REMARK  5 active torsions:
REMARK  status: ('A' for Active; 'I' for Inactive)
REMARK    1  A    between atoms: C_1  and  C_2
REMARK    2  A    between atoms: C_6  and  C_7
REMARK    3  A    between atoms: N_9  and  C_10
REMARK    4  A    between atoms: C_19  and  C_20
REMARK    5  A    between atoms: C_20  and  O_22
REMARK                            x       y       z     vdW  Elec       q    Type
REMARK                         _______ _______ _______ _____ _____    ______ ____
ROOT
ATOM      1  C   UNL     1       3.771   6.515  18.363  0.00  0.00    +0.000 A 
ATOM      2  C   UNL     1       5.000   7.003  17.896  0.00  0.00    +0.000 A 
ATOM      3  C   UNL     1       5.920   6.165  17.267  0.00  0.00    +0.000 A 
ATOM      4 CL   UNL     1       7.410   6.814  16.700  0.00  0.00    +0.000 Cl
ATOM      5  C   UNL     1       5.635   4.820  17.087  0.00  0.00    +0.000 A 
ATOM      6  C   UNL     1       4.425   4.315  17.571  0.00  0.00    +0.000 A 
ATOM      7  C   UNL     1       4.092   2.897  17.364  0.00  0.00    +0.000 A 
ATOM      8  O   UNL     1       4.842   2.129  16.775  0.00  0.00    +0.000 OA
ATOM      9  C   UNL     1       2.799   2.446  17.898  0.00  0.00    +0.000 A 
ATOM     10  C   UNL     1       2.010   3.319  18.542  0.00  0.00    +0.000 A 
ATOM     11  O   UNL     1       2.312   4.662  18.731  0.00  0.00    +0.000 OA
ATOM     12  C   UNL     1       3.504   5.143  18.229  0.00  0.00    +0.000 A 
ENDROOT
BRANCH   1  15
ATOM     13  C   UNL     1       2.200   8.437  18.283  0.00  0.00    +0.000 C 
ATOM     14  O   UNL     1       2.417   8.758  17.115  0.00  0.00    +0.000 OA
ATOM     15  N   UNL     1       2.791   7.370  18.944  0.00  0.00    +0.000 N 
ATOM     16  H   UNL     1       2.364   7.058  19.805  0.00  0.00    +0.000 HD
BRANCH  13  22
ATOM     17  C   UNL     1      -1.710  11.642  18.429  0.00  0.00    +0.000 C 
ATOM     18  C   UNL     1      -0.744  10.716  19.109  0.00  0.00    +0.000 A 
ATOM     19  C   UNL     1      -0.837  10.486  20.490  0.00  0.00    +0.000 A 
ATOM     20  C   UNL     1       0.054   9.624  21.125  0.00  0.00    +0.000 A 
ATOM     21  C   UNL     1       1.045   8.988  20.383  0.00  0.00    +0.000 A 
ATOM     22  C   UNL     1       1.157   9.210  19.002  0.00  0.00    +0.000 A 
ATOM     23  C   UNL     1       0.260  10.071  18.363  0.00  0.00    +0.000 A 
ENDBRANCH  13  22
ENDBRANCH   1  15
BRANCH  10  24
ATOM     24  C   UNL     1       0.716   2.817  19.085  0.00  0.00    +0.000 C 
ATOM     25  O   UNL     1       0.008   1.994  18.521  0.00  0.00    +0.000 OA
BRANCH  24  26
ATOM     26  O   UNL     1       0.385   3.367  20.274  0.00  0.00    +0.000 OA
ATOM     27  H   UNL     1       0.934   4.128  20.540  0.00  0.00    +0.000 HD
ENDBRANCH  24  26
ENDBRANCH  10  24
TORSDOF 4
ENDMDL
MODEL 9
REMARK VINA RESULT:      -7.2      2.829      4.656
REMARK  Name = 
REMARK  5 active torsions:
REMARK  status: ('A' for Active; 'I' for Inactive)
REMARK    1  A    between atoms: C_1  and  C_2
REMARK    2  A    between atoms: C_6  and  C_7
REMARK    3  A    between atoms: N_9  and  C_10
REMARK    4  A    between atoms: C_19  and  C_20
REMARK    5  A    between atoms: C_20  and  O_22
REMARK                            x       y       z     vdW  Elec       q    Type
REMARK                         _______ _______ _______ _____ _____    ______ ____
ROOT
ATOM      1  C   UNL     1       3.584   5.987  17.997  0.00  0.00    +0.000 A 
ATOM      2  C   UNL     1       2.899   4.783  17.779  0.00  0.00    +0.000 A 
ATOM      3  C   UNL     1       3.561   3.649  17.308  0.00  0.00    +0.000 A 
ATOM      4 CL   UNL     1       2.679   2.191  17.067  0.00  0.00    +0.000 Cl
ATOM      5  C   UNL     1       4.922   3.690  17.045  0.00  0.00    +0.000 A 
ATOM      6  C   UNL     1       5.611   4.891  17.234  0.00  0.00    +0.000 A 
ATOM      7  C   UNL     1       7.060   4.945  16.989  0.00  0.00    +0.000 A 
ATOM      8  O   UNL     1       7.698   3.967  16.622  0.00  0.00    +0.000 OA
ATOM      9  C   UNL     1       7.712   6.243  17.215  0.00  0.00    +0.000 A 
ATOM     10  C   UNL     1       6.975   7.292  17.612  0.00  0.00    +0.000 A 
ATOM     11  O   UNL     1       5.608   7.246  17.857  0.00  0.00    +0.000 OA
ATOM     12  C   UNL     1       4.951   6.044  17.681  0.00  0.00    +0.000 A 
ENDROOT
BRANCH   1  15
ATOM     13  C   UNL     1       2.152   7.112  19.687  0.00  0.00    +0.000 C 
ATOM     14  O   UNL     1       1.941   6.123  20.386  0.00  0.00    +0.000 OA
ATOM     15  N   UNL     1       2.938   7.134  18.543  0.00  0.00    +0.000 N 
ATOM     16  H   UNL     1       3.235   8.035  18.196  0.00  0.00    +0.000 HD
BRANCH  13  22
ATOM     17  C   UNL     1       0.259  11.740  18.925  0.00  0.00    +0.000 C 
ATOM     18  C   UNL     1       0.638  10.609  19.837  0.00  0.00    +0.000 A 
ATOM     19  C   UNL     1       0.397  10.701  21.215  0.00  0.00    +0.000 A 
ATOM     20  C   UNL     1       0.741   9.652  22.064  0.00  0.00    +0.000 A 
ATOM     21  C   UNL     1       1.330   8.505  21.540  0.00  0.00    +0.000 A 
ATOM     22  C   UNL     1       1.584   8.398  20.164  0.00  0.00    +0.000 A 
ATOM     23  C   UNL     1       1.234   9.448  19.310  0.00  0.00    +0.000 A 
ENDBRANCH  13  22
ENDBRANCH   1  15
BRANCH  10  24
ATOM     24  C   UNL     1       7.670   8.596  17.811  0.00  0.00    +0.000 C 
ATOM     25  O   UNL     1       7.397   9.619  17.199  0.00  0.00    +0.000 OA
BRANCH  24  26
ATOM     26  O   UNL     1       8.650   8.543  18.739  0.00  0.00    +0.000 OA
ATOM     27  H   UNL     1       8.343   8.597  19.663  0.00  0.00    +0.000 HD
ENDBRANCH  24  26
ENDBRANCH  10  24
TORSDOF 4
ENDMDL
