MODEL 1
REMARK VINA RESULT:      -8.2      0.000      0.000
REMARK  Name = 
REMARK  7 active torsions:
REMARK  status: ('A' for Active; 'I' for Inactive)
REMARK    1  A    between atoms: C_1  and  N_2
REMARK    2  A    between atoms: N_2  and  C_3
REMARK    3  A    between atoms: N_2  and  C_4
REMARK    4  A    between atoms: C_4  and  C_5
REMARK    5  A    between atoms: C_5  and  N_6
REMARK    6  A    between atoms: C_11  and  C_12
REMARK    7  A    between atoms: C_18  and  C_19
REMARK                            x       y       z     vdW  Elec       q    Type
REMARK                         _______ _______ _______ _____ _____    ______ ____
ROOT
ATOM      1  C   UNL     1       1.043   9.366  20.046  0.00  0.00    +0.000 A 
ATOM      2  C   UNL     1       1.416  10.085  18.900  0.00  0.00    +0.000 A 
ATOM      3  C   UNL     1       2.209   9.524  17.889  0.00  0.00    +0.000 A 
ATOM      4  C   UNL     1       2.615   8.195  18.044  0.00  0.00    +0.000 A 
ATOM      5  N   UNL     1       3.399   7.413  17.232  0.00  0.00    +0.000 N 
ATOM      6  C   UNL     1       3.528   6.157  17.764  0.00  0.00    +0.000 A 
ATOM      7  C   UNL     1       2.810   6.107  18.944  0.00  0.00    +0.000 A 
ATOM      8  C   UNL     1       2.245   7.414  19.137  0.00  0.00    +0.000 A 
ATOM      9  C   UNL     1       1.458   8.020  20.142  0.00  0.00    +0.000 A 
ATOM     10  H   UNL     1       3.811   7.718  16.361  0.00  0.00    +0.000 HD
ENDROOT
BRANCH   1  16
ATOM     11  N   UNL     1      -2.130  12.688  21.444  0.00  0.00    +0.000 N 
ATOM     12  C   UNL     1      -1.283  11.603  21.756  0.00  0.00    +0.000 A 
ATOM     13  C   UNL     1      -1.255  11.094  23.056  0.00  0.00    +0.000 A 
ATOM     14  N   UNL     1      -0.524  10.016  23.428  0.00  0.00    +0.000 NA
ATOM     15  C   UNL     1       0.216   9.469  22.434  0.00  0.00    +0.000 A 
ATOM     16  C   UNL     1       0.262   9.979  21.139  0.00  0.00    +0.000 A 
ATOM     17  N   UNL     1      -0.488  11.061  20.806  0.00  0.00    +0.000 NA
ATOM     18  H   UNL     1      -3.026  12.526  21.909  0.00  0.00    +0.000 HD
BRANCH  11  19
ATOM     19  C   UNL     1      -2.404  12.801  20.001  0.00  0.00    +0.000 C 
BRANCH  19  20
ATOM     20  C   UNL     1      -3.824  12.278  19.660  0.00  0.00    +0.000 C 
BRANCH  20  22
ATOM     21  C   UNL     1      -4.945  11.843  17.543  0.00  0.00    +0.000 C 
ATOM     22  N   UNL     1      -3.872  11.419  18.447  0.00  0.00    +0.000 NA
ATOM     23  C   UNL     1      -2.584  11.490  17.748  0.00  0.00    +0.000 C 
ENDBRANCH  20  22
ENDBRANCH  19  20
ENDBRANCH  11  19
ENDBRANCH   1  16
BRANCH   7  24
ATOM     24  C   UNL     1       2.691   4.897  19.752  0.00  0.00    +0.000 A 
ATOM     25  C   UNL     1       1.552   4.661  20.540  0.00  0.00    +0.000 A 
ATOM     26  C   UNL     1       1.452   3.511  21.332  0.00  0.00    +0.000 A 
ATOM     27  C   UNL     1       2.485   2.579  21.333  0.00  0.00    +0.000 A 
ATOM     28  C   UNL     1       3.608   2.806  20.549  0.00  0.00    +0.000 A 
ATOM     29  F   UNL     1       4.601   1.905  20.544  0.00  0.00    +0.000 F 
ATOM     30  C   UNL     1       3.724   3.952  19.770  0.00  0.00    +0.000 A 
ENDBRANCH   7  24
TORSDOF 5
ENDMDL
MODEL 2
REMARK VINA RESULT:      -8.1      1.150      1.372
REMARK  Name = 
REMARK  7 active torsions:
REMARK  status: ('A' for Active; 'I' for Inactive)
REMARK    1  A    between atoms: C_1  and  N_2
REMARK    2  A    between atoms: N_2  and  C_3
REMARK    3  A    between atoms: N_2  and  C_4
REMARK    4  A    between atoms: C_4  and  C_5
REMARK    5  A    between atoms: C_5  and  N_6
REMARK    6  A    between atoms: C_11  and  C_12
REMARK    7  A    between atoms: C_18  and  C_19
REMARK                            x       y       z     vdW  Elec       q    Type
REMARK                         _______ _______ _______ _____ _____    ______ ____
ROOT
ATOM      1  C   UNL     1       0.889   9.636  20.047  0.00  0.00    +0.000 A 
ATOM      2  C   UNL     1       1.443  10.392  19.002  0.00  0.00    +0.000 A 
ATOM      3  C   UNL     1       2.265   9.823  18.020  0.00  0.00    +0.000 A 
ATOM      4  C   UNL     1       2.513   8.448  18.097  0.00  0.00    +0.000 A 
ATOM      5  N   UNL     1       3.284   7.646  17.292  0.00  0.00    +0.000 N 
ATOM      6  C   UNL     1       3.229   6.347  17.725  0.00  0.00    +0.000 A 
ATOM      7  C   UNL     1       2.400   6.291  18.830  0.00  0.00    +0.000 A 
ATOM      8  C   UNL     1       1.960   7.635  19.084  0.00  0.00    +0.000 A 
ATOM      9  C   UNL     1       1.149   8.248  20.064  0.00  0.00    +0.000 A 
ATOM     10  H   UNL     1       3.807   7.967  16.489  0.00  0.00    +0.000 HD
ENDROOT
BRANCH   1  16
ATOM     11  N   UNL     1      -2.588  12.703  21.295  0.00  0.00    +0.000 N 
ATOM     12  C   UNL     1      -1.619  11.743  21.660  0.00  0.00    +0.000 A 
ATOM     13  C   UNL     1      -1.499  11.349  22.994  0.00  0.00    +0.000 A 
ATOM     14  N   UNL     1      -0.645  10.390  23.422  0.00  0.00    +0.000 NA
ATOM     15  C   UNL     1       0.123   9.845  22.448  0.00  0.00    +0.000 A 
ATOM     16  C   UNL     1       0.077  10.250  21.116  0.00  0.00    +0.000 A 
ATOM     17  N   UNL     1      -0.796  11.214  20.727  0.00  0.00    +0.000 NA
ATOM     18  H   UNL     1      -3.448  12.485  21.804  0.00  0.00    +0.000 HD
BRANCH  11  19
ATOM     19  C   UNL     1      -2.913  12.667  19.859  0.00  0.00    +0.000 C 
BRANCH  19  20
ATOM     20  C   UNL     1      -4.413  12.340  19.634  0.00  0.00    +0.000 C 
BRANCH  20  22
ATOM     21  C   UNL     1      -3.608  11.137  17.676  0.00  0.00    +0.000 C 
ATOM     22  N   UNL     1      -4.727  11.887  18.253  0.00  0.00    +0.000 NA
ATOM     23  C   UNL     1      -5.925  11.040  18.278  0.00  0.00    +0.000 C 
ENDBRANCH  20  22
ENDBRANCH  19  20
ENDBRANCH  11  19
ENDBRANCH   1  16
BRANCH   7  24
ATOM     24  C   UNL     1       2.079   5.044  19.519  0.00  0.00    +0.000 A 
ATOM     25  C   UNL     1       2.376   4.872  20.882  0.00  0.00    +0.000 A 
ATOM     26  C   UNL     1       2.088   3.667  21.533  0.00  0.00    +0.000 A 
ATOM     27  C   UNL     1       1.487   2.626  20.831  0.00  0.00    +0.000 A 
ATOM     28  C   UNL     1       1.184   2.798  19.487  0.00  0.00    +0.000 A 
ATOM     29  F   UNL     1       0.599   1.798  18.812  0.00  0.00    +0.000 F 
ATOM     30  C   UNL     1       1.480   3.985  18.826  0.00  0.00    +0.000 A 
ENDBRANCH   7  24
TORSDOF 5
ENDMDL
MODEL 3
REMARK VINA RESULT:      -8.1      4.830      7.668
REMARK  Name = 
REMARK  7 active torsions:
REMARK  status: ('A' for Active; 'I' for Inactive)
REMARK    1  A    between atoms: C_1  and  N_2
REMARK    2  A    between atoms: N_2  and  C_3
REMARK    3  A    between atoms: N_2  and  C_4
REMARK    4  A    between atoms: C_4  and  C_5
REMARK    5  A    between atoms: C_5  and  N_6
REMARK    6  A    between atoms: C_11  and  C_12
REMARK    7  A    between atoms: C_18  and  C_19
REMARK                            x       y       z     vdW  Elec       q    Type
REMARK                         _______ _______ _______ _____ _____    ______ ____
ROOT
ATOM      1  C   UNL     1       4.812   4.620  17.214  0.00  0.00    +0.000 A 
ATOM      2  C   UNL     1       5.794   5.495  17.704  0.00  0.00    +0.000 A 
ATOM      3  C   UNL     1       6.898   5.888  16.934  0.00  0.00    +0.000 A 
ATOM      4  C   UNL     1       6.991   5.390  15.630  0.00  0.00    +0.000 A 
ATOM      5  N   UNL     1       7.960   5.591  14.678  0.00  0.00    +0.000 N 
ATOM      6  C   UNL     1       7.640   4.922  13.526  0.00  0.00    +0.000 A 
ATOM      7  C   UNL     1       6.434   4.274  13.720  0.00  0.00    +0.000 A 
ATOM      8  C   UNL     1       6.029   4.552  15.070  0.00  0.00    +0.000 A 
ATOM      9  C   UNL     1       4.939   4.167  15.882  0.00  0.00    +0.000 A 
ATOM     10  H   UNL     1       8.784   6.161  14.805  0.00  0.00    +0.000 HD
ENDROOT
BRANCH   1  16
ATOM     11  N   UNL     1       1.503   5.628  20.544  0.00  0.00    +0.000 N 
ATOM     12  C   UNL     1       2.099   4.705  19.657  0.00  0.00    +0.000 A 
ATOM     13  C   UNL     1       1.575   3.417  19.537  0.00  0.00    +0.000 A 
ATOM     14  N   UNL     1       2.041   2.492  18.665  0.00  0.00    +0.000 NA
ATOM     15  C   UNL     1       3.094   2.903  17.919  0.00  0.00    +0.000 A 
ATOM     16  C   UNL     1       3.685   4.158  18.047  0.00  0.00    +0.000 A 
ATOM     17  N   UNL     1       3.185   5.059  18.933  0.00  0.00    +0.000 NA
ATOM     18  H   UNL     1       0.488   5.535  20.452  0.00  0.00    +0.000 HD
BRANCH  11  19
ATOM     19  C   UNL     1       1.842   7.025  20.226  0.00  0.00    +0.000 C 
BRANCH  19  20
ATOM     20  C   UNL     1       1.147   8.005  21.208  0.00  0.00    +0.000 C 
BRANCH  20  22
ATOM     21  C   UNL     1       1.207   9.415  19.224  0.00  0.00    +0.000 C 
ATOM     22  N   UNL     1       1.003   9.386  20.675  0.00  0.00    +0.000 NA
ATOM     23  C   UNL     1      -0.336   9.895  20.994  0.00  0.00    +0.000 C 
ENDBRANCH  20  22
ENDBRANCH  19  20
ENDBRANCH  11  19
ENDBRANCH   1  16
BRANCH   7  24
ATOM     24  C   UNL     1       5.770   3.500  12.674  0.00  0.00    +0.000 A 
ATOM     25  C   UNL     1       4.551   3.927  12.121  0.00  0.00    +0.000 A 
ATOM     26  C   UNL     1       3.906   3.171  11.135  0.00  0.00    +0.000 A 
ATOM     27  C   UNL     1       4.480   1.986  10.685  0.00  0.00    +0.000 A 
ATOM     28  C   UNL     1       5.689   1.567  11.224  0.00  0.00    +0.000 A 
ATOM     29  F   UNL     1       6.247   0.430  10.785  0.00  0.00    +0.000 F 
ATOM     30  C   UNL     1       6.331   2.304  12.214  0.00  0.00    +0.000 A 
ENDBRANCH   7  24
TORSDOF 5
ENDMDL
MODEL 4
REMARK VINA RESULT:      -8.0      0.893      1.286
REMARK  Name = 
REMARK  7 active torsions:
REMARK  status: ('A' for Active; 'I' for Inactive)
REMARK    1  A    between atoms: C_1  and  N_2
REMARK    2  A    between atoms: N_2  and  C_3
REMARK    3  A    between atoms: N_2  and  C_4
REMARK    4  A    between atoms: C_4  and  C_5
REMARK    5  A    between atoms: C_5  and  N_6
REMARK    6  A    between atoms: C_11  and  C_12
REMARK    7  A    between atoms: C_18  and  C_19
REMARK                            x       y       z     vdW  Elec       q    Type
REMARK                         _______ _______ _______ _____ _____    ______ ____
ROOT
ATOM      1  C   UNL     1       1.092   9.371  20.031  0.00  0.00    +0.000 A 
ATOM      2  C   UNL     1       1.427  10.077  18.864  0.00  0.00    +0.000 A 
ATOM      3  C   UNL     1       2.188   9.504  17.836  0.00  0.00    +0.000 A 
ATOM      4  C   UNL     1       2.601   8.177  17.994  0.00  0.00    +0.000 A 
ATOM      5  N   UNL     1       3.360   7.385  17.167  0.00  0.00    +0.000 N 
ATOM      6  C   UNL     1       3.507   6.136  17.710  0.00  0.00    +0.000 A 
ATOM      7  C   UNL     1       2.826   6.100  18.912  0.00  0.00    +0.000 A 
ATOM      8  C   UNL     1       2.267   7.409  19.108  0.00  0.00    +0.000 A 
ATOM      9  C   UNL     1       1.511   8.026  20.130  0.00  0.00    +0.000 A 
ATOM     10  H   UNL     1       3.743   7.680  16.280  0.00  0.00    +0.000 HD
ENDROOT
BRANCH   1  16
ATOM     11  N   UNL     1      -2.098  12.656  21.478  0.00  0.00    +0.000 N 
ATOM     12  C   UNL     1      -1.211  11.600  21.781  0.00  0.00    +0.000 A 
ATOM     13  C   UNL     1      -1.112  11.130  23.092  0.00  0.00    +0.000 A 
ATOM     14  N   UNL     1      -0.338  10.081  23.461  0.00  0.00    +0.000 NA
ATOM     15  C   UNL     1       0.370   9.523  22.450  0.00  0.00    +0.000 A 
ATOM     16  C   UNL     1       0.346   9.997  21.140  0.00  0.00    +0.000 A 
ATOM     17  N   UNL     1      -0.446  11.050  20.811  0.00  0.00    +0.000 NA
ATOM     18  H   UNL     1      -2.968  12.485  21.988  0.00  0.00    +0.000 HD
BRANCH  11  19
ATOM     19  C   UNL     1      -2.438  12.719  20.047  0.00  0.00    +0.000 C 
BRANCH  19  20
ATOM     20  C   UNL     1      -3.928  12.352  19.810  0.00  0.00    +0.000 C 
BRANCH  20  22
ATOM     21  C   UNL     1      -5.175  14.334  20.474  0.00  0.00    +0.000 C 
ATOM     22  N   UNL     1      -4.857  12.943  20.808  0.00  0.00    +0.000 NA
ATOM     23  C   UNL     1      -6.092  12.154  20.852  0.00  0.00    +0.000 C 
ENDBRANCH  20  22
ENDBRANCH  19  20
ENDBRANCH  11  19
ENDBRANCH   1  16
BRANCH   7  24
ATOM     24  C   UNL     1       2.735   4.899  19.738  0.00  0.00    +0.000 A 
ATOM     25  C   UNL     1       1.634   4.686  20.586  0.00  0.00    +0.000 A 
ATOM     26  C   UNL     1       1.561   3.545  21.394  0.00  0.00    +0.000 A 
ATOM     27  C   UNL     1       2.582   2.600  21.352  0.00  0.00    +0.000 A 
ATOM     28  C   UNL     1       3.666   2.805  20.508  0.00  0.00    +0.000 A 
ATOM     29  F   UNL     1       4.646   1.892  20.462  0.00  0.00    +0.000 F 
ATOM     30  C   UNL     1       3.755   3.942  19.712  0.00  0.00    +0.000 A 
ENDBRANCH   7  24
TORSDOF 5
ENDMDL
MODEL 5
REMARK VINA RESULT:      -7.9      2.574      4.209
REMARK  Name = 
REMARK  7 active torsions:
REMARK  status: ('A' for Active; 'I' for Inactive)
REMARK    1  A    between atoms: C_1  and  N_2
REMARK    2  A    between atoms: N_2  and  C_3
REMARK    3  A    between atoms: N_2  and  C_4
REMARK    4  A    between atoms: C_4  and  C_5
REMARK    5  A    between atoms: C_5  and  N_6
REMARK    6  A    between atoms: C_11  and  C_12
REMARK    7  A    between atoms: C_18  and  C_19
REMARK                            x       y       z     vdW  Elec       q    Type
REMARK                         _______ _______ _______ _____ _____    ______ ____
ROOT
ATOM      1  C   UNL     1       1.739   6.698  20.328  0.00  0.00    +0.000 A 
ATOM      2  C   UNL     1       0.994   5.646  20.884  0.00  0.00    +0.000 A 
ATOM      3  C   UNL     1       1.233   4.304  20.555  0.00  0.00    +0.000 A 
ATOM      4  C   UNL     1       2.266   4.030  19.653  0.00  0.00    +0.000 A 
ATOM      5  N   UNL     1       2.699   2.829  19.147  0.00  0.00    +0.000 N 
ATOM      6  C   UNL     1       3.758   3.024  18.301  0.00  0.00    +0.000 A 
ATOM      7  C   UNL     1       4.035   4.377  18.254  0.00  0.00    +0.000 A 
ATOM      8  C   UNL     1       3.069   5.025  19.098  0.00  0.00    +0.000 A 
ATOM      9  C   UNL     1       2.787   6.366  19.442  0.00  0.00    +0.000 A 
ATOM     10  H   UNL     1       2.299   1.930  19.377  0.00  0.00    +0.000 HD
ENDROOT
BRANCH   1  16
ATOM     11  N   UNL     1      -0.022  10.912  18.846  0.00  0.00    +0.000 N 
ATOM     12  C   UNL     1       0.571  10.126  19.857  0.00  0.00    +0.000 A 
ATOM     13  C   UNL     1       0.798  10.674  21.121  0.00  0.00    +0.000 A 
ATOM     14  N   UNL     1       1.301   9.975  22.167  0.00  0.00    +0.000 NA
ATOM     15  C   UNL     1       1.600   8.684  21.888  0.00  0.00    +0.000 A 
ATOM     16  C   UNL     1       1.444   8.113  20.627  0.00  0.00    +0.000 A 
ATOM     17  N   UNL     1       0.934   8.848  19.604  0.00  0.00    +0.000 NA
ATOM     18  H   UNL     1      -0.781  11.447  19.275  0.00  0.00    +0.000 HD
BRANCH  11  19
ATOM     19  C   UNL     1      -0.616  10.102  17.769  0.00  0.00    +0.000 C 
BRANCH  19  20
ATOM     20  C   UNL     1      -2.166  10.162  17.814  0.00  0.00    +0.000 C 
BRANCH  20  22
ATOM     21  C   UNL     1      -2.754  10.590  15.492  0.00  0.00    +0.000 C 
ATOM     22  N   UNL     1      -2.757  11.130  16.854  0.00  0.00    +0.000 NA
ATOM     23  C   UNL     1      -4.133  11.439  17.257  0.00  0.00    +0.000 C 
ENDBRANCH  20  22
ENDBRANCH  19  20
ENDBRANCH  11  19
ENDBRANCH   1  16
BRANCH   7  24
ATOM     24  C   UNL     1       5.141   4.936  17.481  0.00  0.00    +0.000 A 
ATOM     25  C   UNL     1       5.269   4.673  16.107  0.00  0.00    +0.000 A 
ATOM     26  C   UNL     1       6.344   5.191  15.374  0.00  0.00    +0.000 A 
ATOM     27  C   UNL     1       7.294   5.988  16.007  0.00  0.00    +0.000 A 
ATOM     28  C   UNL     1       7.164   6.256  17.363  0.00  0.00    +0.000 A 
ATOM     29  F   UNL     1       8.074   7.029  17.971  0.00  0.00    +0.000 F 
ATOM     30  C   UNL     1       6.108   5.735  18.103  0.00  0.00    +0.000 A 
ENDBRANCH   7  24
TORSDOF 5
ENDMDL
MODEL 6
REMARK VINA RESULT:      -7.9      4.906      7.805
REMARK  Name = 
REMARK  7 active torsions:
REMARK  status: ('A' for Active; 'I' for Inactive)
REMARK    1  A    between atoms: C_1  and  N_2
REMARK    2  A    between atoms: N_2  and  C_3
REMARK    3  A    between atoms: N_2  and  C_4
REMARK    4  A    between atoms: C_4  and  C_5
REMARK    5  A    between atoms: C_5  and  N_6
REMARK    6  A    between atoms: C_11  and  C_12
REMARK    7  A    between atoms: C_18  and  C_19
REMARK                            x       y       z     vdW  Elec       q    Type
REMARK                         _______ _______ _______ _____ _____    ______ ____
ROOT
ATOM      1  C   UNL     1       4.862   4.572  17.167  0.00  0.00    +0.000 A 
ATOM      2  C   UNL     1       5.826   5.475  17.641  0.00  0.00    +0.000 A 
ATOM      3  C   UNL     1       6.917   5.884  16.861  0.00  0.00    +0.000 A 
ATOM      4  C   UNL     1       7.015   5.373  15.563  0.00  0.00    +0.000 A 
ATOM      5  N   UNL     1       7.975   5.584  14.604  0.00  0.00    +0.000 N 
ATOM      6  C   UNL     1       7.665   4.894  13.462  0.00  0.00    +0.000 A 
ATOM      7  C   UNL     1       6.475   4.220  13.670  0.00  0.00    +0.000 A 
ATOM      8  C   UNL     1       6.071   4.505  15.019  0.00  0.00    +0.000 A 
ATOM      9  C   UNL     1       4.994   4.105  15.841  0.00  0.00    +0.000 A 
ATOM     10  H   UNL     1       8.786   6.175  14.720  0.00  0.00    +0.000 HD
ENDROOT
BRANCH   1  16
ATOM     11  N   UNL     1       1.575   5.532  20.533  0.00  0.00    +0.000 N 
ATOM     12  C   UNL     1       2.174   4.618  19.639  0.00  0.00    +0.000 A 
ATOM     13  C   UNL     1       1.666   3.323  19.523  0.00  0.00    +0.000 A 
ATOM     14  N   UNL     1       2.136   2.405  18.646  0.00  0.00    +0.000 NA
ATOM     15  C   UNL     1       3.175   2.831  17.889  0.00  0.00    +0.000 A 
ATOM     16  C   UNL     1       3.750   4.094  18.012  0.00  0.00    +0.000 A 
ATOM     17  N   UNL     1       3.247   4.987  18.904  0.00  0.00    +0.000 NA
ATOM     18  H   UNL     1       0.561   5.425  20.451  0.00  0.00    +0.000 HD
BRANCH  11  19
ATOM     19  C   UNL     1       1.892   6.934  20.213  0.00  0.00    +0.000 C 
BRANCH  19  20
ATOM     20  C   UNL     1       1.216   7.903  21.219  0.00  0.00    +0.000 C 
BRANCH  20  22
ATOM     21  C   UNL     1       1.234   9.327  19.246  0.00  0.00    +0.000 C 
ATOM     22  N   UNL     1       1.043   9.284  20.698  0.00  0.00    +0.000 NA
ATOM     23  C   UNL     1      -0.301   9.767  21.031  0.00  0.00    +0.000 C 
ENDBRANCH  20  22
ENDBRANCH  19  20
ENDBRANCH  11  19
ENDBRANCH   1  16
BRANCH   7  24
ATOM     24  C   UNL     1       5.825   3.419  12.637  0.00  0.00    +0.000 A 
ATOM     25  C   UNL     1       6.406   2.226  12.173  0.00  0.00    +0.000 A 
ATOM     26  C   UNL     1       5.791   1.472  11.166  0.00  0.00    +0.000 A 
ATOM     27  C   UNL     1       4.583   1.898  10.622  0.00  0.00    +0.000 A 
ATOM     28  C   UNL     1       4.003   3.071  11.085  0.00  0.00    +0.000 A 
ATOM     29  F   UNL     1       2.836   3.478  10.567  0.00  0.00    +0.000 F 
ATOM     30  C   UNL     1       4.613   3.835  12.075  0.00  0.00    +0.000 A 
ENDBRANCH   7  24
TORSDOF 5
ENDMDL
MODEL 7
REMARK VINA RESULT:      -7.9      2.729      4.877
REMARK  Name = 
REMARK  7 active torsions:
REMARK  status: ('A' for Active; 'I' for Inactive)
REMARK    1  A    between atoms: C_1  and  N_2
REMARK    2  A    between atoms: N_2  and  C_3
REMARK    3  A    between atoms: N_2  and  C_4
REMARK    4  A    between atoms: C_4  and  C_5
REMARK    5  A    between atoms: C_5  and  N_6
REMARK    6  A    between atoms: C_11  and  C_12
REMARK    7  A    between atoms: C_18  and  C_19
REMARK                            x       y       z     vdW  Elec       q    Type
REMARK                         _______ _______ _______ _____ _____    ______ ____
ROOT
ATOM      1  C   UNL     1       2.142   7.169  19.534  0.00  0.00    +0.000 A 
ATOM      2  C   UNL     1       1.564   6.519  20.637  0.00  0.00    +0.000 A 
ATOM      3  C   UNL     1       1.859   5.187  20.960  0.00  0.00    +0.000 A 
ATOM      4  C   UNL     1       2.777   4.511  20.151  0.00  0.00    +0.000 A 
ATOM      5  N   UNL     1       3.228   3.215  20.223  0.00  0.00    +0.000 N 
ATOM      6  C   UNL     1       4.144   2.976  19.234  0.00  0.00    +0.000 A 
ATOM      7  C   UNL     1       4.306   4.136  18.499  0.00  0.00    +0.000 A 
ATOM      8  C   UNL     1       3.417   5.110  19.068  0.00  0.00    +0.000 A 
ATOM      9  C   UNL     1       3.082   6.449  18.765  0.00  0.00    +0.000 A 
ATOM     10  H   UNL     1       2.935   2.541  20.916  0.00  0.00    +0.000 HD
ENDROOT
BRANCH   1  16
ATOM     11  N   UNL     1       0.100  11.341  20.753  0.00  0.00    +0.000 N 
ATOM     12  C   UNL     1       0.786  10.549  19.807  0.00  0.00    +0.000 A 
ATOM     13  C   UNL     1       1.165  11.101  18.582  0.00  0.00    +0.000 A 
ATOM     14  N   UNL     1       1.881  10.436  17.645  0.00  0.00    +0.000 NA
ATOM     15  C   UNL     1       2.189   9.159  17.974  0.00  0.00    +0.000 A 
ATOM     16  C   UNL     1       1.781   8.550  19.159  0.00  0.00    +0.000 A 
ATOM     17  N   UNL     1       1.065   9.253  20.075  0.00  0.00    +0.000 NA
ATOM     18  H   UNL     1       0.543  12.262  20.765  0.00  0.00    +0.000 HD
BRANCH  11  19
ATOM     19  C   UNL     1       0.187  10.799  22.120  0.00  0.00    +0.000 C 
BRANCH  19  20
ATOM     20  C   UNL     1      -1.209  10.761  22.796  0.00  0.00    +0.000 C 
BRANCH  20  22
ATOM     21  C   UNL     1      -0.888  13.171  22.918  0.00  0.00    +0.000 C 
ATOM     22  N   UNL     1      -1.562  12.014  23.513  0.00  0.00    +0.000 NA
ATOM     23  C   UNL     1      -3.015  12.213  23.462  0.00  0.00    +0.000 C 
ENDBRANCH  20  22
ENDBRANCH  19  20
ENDBRANCH  11  19
ENDBRANCH   1  16
BRANCH   7  24
ATOM     24  C   UNL     1       5.249   4.249  17.390  0.00  0.00    +0.000 A 
ATOM     25  C   UNL     1       6.609   4.522  17.620  0.00  0.00    +0.000 A 
ATOM     26  C   UNL     1       7.505   4.653  16.554  0.00  0.00    +0.000 A 
ATOM     27  C   UNL     1       7.053   4.502  15.246  0.00  0.00    +0.000 A 
ATOM     28  C   UNL     1       5.712   4.224  15.017  0.00  0.00    +0.000 A 
ATOM     29  F   UNL     1       5.277   4.071  13.758  0.00  0.00    +0.000 F 
ATOM     30  C   UNL     1       4.810   4.106  16.069  0.00  0.00    +0.000 A 
ENDBRANCH   7  24
TORSDOF 5
ENDMDL
MODEL 8
REMARK VINA RESULT:      -7.8      2.388      3.835
REMARK  Name = 
REMARK  7 active torsions:
REMARK  status: ('A' for Active; 'I' for Inactive)
REMARK    1  A    between atoms: C_1  and  N_2
REMARK    2  A    between atoms: N_2  and  C_3
REMARK    3  A    between atoms: N_2  and  C_4
REMARK    4  A    between atoms: C_4  and  C_5
REMARK    5  A    between atoms: C_5  and  N_6
REMARK    6  A    between atoms: C_11  and  C_12
REMARK    7  A    between atoms: C_18  and  C_19
REMARK                            x       y       z     vdW  Elec       q    Type
REMARK                         _______ _______ _______ _____ _____    ______ ____
ROOT
ATOM      1  C   UNL     1       1.025   9.420  19.696  0.00  0.00    +0.000 A 
ATOM      2  C   UNL     1       0.541   9.019  20.952  0.00  0.00    +0.000 A 
ATOM      3  C   UNL     1       0.831   7.762  21.499  0.00  0.00    +0.000 A 
ATOM      4  C   UNL     1       1.647   6.902  20.757  0.00  0.00    +0.000 A 
ATOM      5  N   UNL     1       2.068   5.626  21.039  0.00  0.00    +0.000 N 
ATOM      6  C   UNL     1       2.876   5.161  20.035  0.00  0.00    +0.000 A 
ATOM      7  C   UNL     1       2.996   6.150  19.078  0.00  0.00    +0.000 A 
ATOM      8  C   UNL     1       2.193   7.255  19.525  0.00  0.00    +0.000 A 
ATOM      9  C   UNL     1       1.865   8.525  18.999  0.00  0.00    +0.000 A 
ATOM     10  H   UNL     1       1.827   5.110  21.874  0.00  0.00    +0.000 HD
ENDROOT
BRANCH   1  16
ATOM     11  N   UNL     1      -2.325  12.212  17.686  0.00  0.00    +0.000 N 
ATOM     12  C   UNL     1      -0.998  12.028  18.134  0.00  0.00    +0.000 A 
ATOM     13  C   UNL     1      -0.087  13.083  18.063  0.00  0.00    +0.000 A 
ATOM     14  N   UNL     1       1.183  13.015  18.528  0.00  0.00    +0.000 NA
ATOM     15  C   UNL     1       1.524  11.815  19.056  0.00  0.00    +0.000 A 
ATOM     16  C   UNL     1       0.666  10.719  19.093  0.00  0.00    +0.000 A 
ATOM     17  N   UNL     1      -0.602  10.829  18.618  0.00  0.00    +0.000 NA
ATOM     18  H   UNL     1      -2.636  13.131  18.011  0.00  0.00    +0.000 HD
BRANCH  11  19
ATOM     19  C   UNL     1      -3.257  11.216  18.240  0.00  0.00    +0.000 C 
BRANCH  19  20
ATOM     20  C   UNL     1      -4.567  11.155  17.411  0.00  0.00    +0.000 C 
BRANCH  20  22
ATOM     21  C   UNL     1      -6.405  12.732  17.166  0.00  0.00    +0.000 C 
ATOM     22  N   UNL     1      -5.728  11.804  18.075  0.00  0.00    +0.000 NA
ATOM     23  C   UNL     1      -6.673  10.775  18.521  0.00  0.00    +0.000 C 
ENDBRANCH  20  22
ENDBRANCH  19  20
ENDBRANCH  11  19
ENDBRANCH   1  16
BRANCH   7  24
ATOM     24  C   UNL     1       3.828   6.007  17.886  0.00  0.00    +0.000 A 
ATOM     25  C   UNL     1       4.227   7.131  17.143  0.00  0.00    +0.000 A 
ATOM     26  C   UNL     1       5.006   6.988  15.988  0.00  0.00    +0.000 A 
ATOM     27  C   UNL     1       5.402   5.720  15.572  0.00  0.00    +0.000 A 
ATOM     28  C   UNL     1       5.016   4.610  16.310  0.00  0.00    +0.000 A 
ATOM     29  F   UNL     1       5.403   3.389  15.915  0.00  0.00    +0.000 F 
ATOM     30  C   UNL     1       4.231   4.739  17.451  0.00  0.00    +0.000 A 
ENDBRANCH   7  24
TORSDOF 5
ENDMDL
MODEL 9
REMARK VINA RESULT:      -7.8      4.946      8.182
REMARK  Name = 
REMARK  7 active torsions:
REMARK  status: ('A' for Active; 'I' for Inactive)
REMARK    1  A    between atoms: C_1  and  N_2
REMARK    2  A    between atoms: N_2  and  C_3
REMARK    3  A    between atoms: N_2  and  C_4
REMARK    4  A    between atoms: C_4  and  C_5
REMARK    5  A    between atoms: C_5  and  N_6
REMARK    6  A    between atoms: C_11  and  C_12
REMARK    7  A    between atoms: C_18  and  C_19
REMARK                            x       y       z     vdW  Elec       q    Type
REMARK                         _______ _______ _______ _____ _____    ______ ____
ROOT
ATOM      1  C   UNL     1       4.782   4.018  17.417  0.00  0.00    +0.000 A 
ATOM      2  C   UNL     1       5.662   4.951  17.988  0.00  0.00    +0.000 A 
ATOM      3  C   UNL     1       6.694   5.553  17.255  0.00  0.00    +0.000 A 
ATOM      4  C   UNL     1       6.820   5.209  15.906  0.00  0.00    +0.000 A 
ATOM      5  N   UNL     1       7.738   5.624  14.972  0.00  0.00    +0.000 N 
ATOM      6  C   UNL     1       7.476   5.043  13.760  0.00  0.00    +0.000 A 
ATOM      7  C   UNL     1       6.362   4.237  13.893  0.00  0.00    +0.000 A 
ATOM      8  C   UNL     1       5.955   4.322  15.268  0.00  0.00    +0.000 A 
ATOM      9  C   UNL     1       4.936   3.725  16.044  0.00  0.00    +0.000 A 
ATOM     10  H   UNL     1       8.490   6.274  15.153  0.00  0.00    +0.000 HD
ENDROOT
BRANCH   1  16
ATOM     11  N   UNL     1       1.950   3.992  21.294  0.00  0.00    +0.000 N 
ATOM     12  C   UNL     1       2.385   3.382  20.096  0.00  0.00    +0.000 A 
ATOM     13  C   UNL     1       1.778   2.205  19.655  0.00  0.00    +0.000 A 
ATOM     14  N   UNL     1       2.086   1.591  18.488  0.00  0.00    +0.000 NA
ATOM     15  C   UNL     1       3.065   2.196  17.775  0.00  0.00    +0.000 A 
ATOM     16  C   UNL     1       3.737   3.338  18.206  0.00  0.00    +0.000 A 
ATOM     17  N   UNL     1       3.396   3.926  19.382  0.00  0.00    +0.000 NA
ATOM     18  H   UNL     1       0.928   3.949  21.309  0.00  0.00    +0.000 HD
BRANCH  11  19
ATOM     19  C   UNL     1       2.328   5.412  21.380  0.00  0.00    +0.000 C 
BRANCH  19  20
ATOM     20  C   UNL     1       1.469   6.278  20.421  0.00  0.00    +0.000 C 
BRANCH  20  22
ATOM     21  C   UNL     1       2.409   7.430  18.493  0.00  0.00    +0.000 C 
ATOM     22  N   UNL     1       2.161   7.501  19.936  0.00  0.00    +0.000 NA
ATOM     23  C   UNL     1       1.338   8.678  20.235  0.00  0.00    +0.000 C 
ENDBRANCH  20  22
ENDBRANCH  19  20
ENDBRANCH  11  19
ENDBRANCH   1  16
BRANCH   7  24
ATOM     24  C   UNL     1       5.775   3.500  12.777  0.00  0.00    +0.000 A 
ATOM     25  C   UNL     1       4.542   3.886  12.224  0.00  0.00    +0.000 A 
ATOM     26  C   UNL     1       3.971   3.164  11.169  0.00  0.00    +0.000 A 
ATOM     27  C   UNL     1       4.633   2.055  10.650  0.00  0.00    +0.000 A 
ATOM     28  C   UNL     1       5.856   1.678  11.190  0.00  0.00    +0.000 A 
ATOM     29  F   UNL     1       6.498   0.615  10.685  0.00  0.00    +0.000 F 
ATOM     30  C   UNL     1       6.425   2.380  12.247  0.00  0.00    +0.000 A 
ENDBRANCH   7  24
TORSDOF 5
ENDMDL
