MODEL 1
REMARK VINA RESULT:      -6.7      0.000      0.000
REMARK  Name = 
REMARK  13 active torsions:
REMARK  status: ('A' for Active; 'I' for Inactive)
REMARK    1  A    between atoms: C_1  and  C_2
REMARK    2  A    between atoms: C_2  and  S_3
REMARK    3  A    between atoms: S_3  and  C_4
REMARK    4  A    between atoms: C_7  and  C_8
REMARK    5  A    between atoms: N_10  and  C_11
REMARK    6  A    between atoms: C_18  and  C_19
REMARK    7  A    between atoms: C_20  and  C_21
REMARK    8  A    between atoms: C_20  and  C_23
REMARK    9  A    between atoms: N_25  and  C_26
REMARK   10  A    between atoms: C_26  and  C_27
REMARK   11  A    between atoms: C_27  and  C_28
REMARK   12  A    between atoms: C_28  and  O_29
REMARK   13  A    between atoms: O_29  and  C_30
REMARK                            x       y       z     vdW  Elec       q    Type
REMARK                         _______ _______ _______ _____ _____    ______ ____
ROOT
ATOM      1  C   UNL     1      -0.404  10.722  19.759  0.00  0.00    +0.000 A 
ATOM      2  N   UNL     1      -0.465  11.251  20.994  0.00  0.00    +0.000 NA
ATOM      3  N   UNL     1      -1.479  12.156  20.970  0.00  0.00    +0.000 N 
ATOM      4  C   UNL     1      -2.050  12.219  19.714  0.00  0.00    +0.000 A 
ATOM      5  C   UNL     1      -1.363  11.343  18.908  0.00  0.00    +0.000 A 
ENDROOT
BRANCH   1   9
ATOM      6  C   UNL     1       2.391   7.599  18.834  0.00  0.00    +0.000 A 
ATOM      7  C   UNL     1       1.881   7.741  20.126  0.00  0.00    +0.000 A 
ATOM      8  C   UNL     1       0.979   8.766  20.426  0.00  0.00    +0.000 A 
ATOM      9  C   UNL     1       0.577   9.677  19.439  0.00  0.00    +0.000 A 
ATOM     10  C   UNL     1       1.129   9.552  18.156  0.00  0.00    +0.000 A 
ATOM     11  C   UNL     1       2.020   8.518  17.854  0.00  0.00    +0.000 A 
BRANCH   6  12
ATOM     12  S   UNL     1       3.546   6.310  18.421  0.00  0.00    +0.000 S 
BRANCH  12  14
ATOM     13  C   UNL     1       2.690   3.869  19.307  0.00  0.00    +0.000 C 
ATOM     14  C   UNL     1       3.266   5.176  19.820  0.00  0.00    +0.000 C 
ENDBRANCH  12  14
ENDBRANCH   6  12
ENDBRANCH   1   9
BRANCH   3  15
ATOM     15  C   UNL     1      -1.829  12.913  22.130  0.00  0.00    +0.000 A 
ATOM     16  C   UNL     1      -3.126  12.834  22.665  0.00  0.00    +0.000 A 
ATOM     17  C   UNL     1      -3.466  13.574  23.805  0.00  0.00    +0.000 A 
ATOM     18  C   UNL     1      -2.520  14.398  24.416  0.00  0.00    +0.000 A 
ATOM     19  C   UNL     1      -1.233  14.479  23.892  0.00  0.00    +0.000 A 
ATOM     20  C   UNL     1      -0.883  13.735  22.760  0.00  0.00    +0.000 A 
ENDBRANCH   3  15
BRANCH   5  21
ATOM     21  C   UNL     1      -1.602  11.154  17.511  0.00  0.00    +0.000 C 
ATOM     22  C   UNL     1      -2.765  10.793  16.933  0.00  0.00    +0.000 C 
BRANCH  22  23
ATOM     23  C   UNL     1      -4.071  10.441  17.611  0.00  0.00    +0.000 C 
ATOM     24  O   UNL     1      -4.210   9.312  18.079  0.00  0.00    +0.000 OA
ATOM     25  N   UNL     1      -5.098  11.351  17.632  0.00  0.00    +0.000 N 
ATOM     26  H   UNL     1      -5.006  12.279  17.250  0.00  0.00    +0.000 HD
BRANCH  25  27
ATOM     27  C   UNL     1      -6.407  10.976  18.152  0.00  0.00    +0.000 C 
BRANCH  27  28
ATOM     28  C   UNL     1      -7.203  12.181  18.650  0.00  0.00    +0.000 C 
BRANCH  28  29
ATOM     29  C   UNL     1      -6.531  13.498  18.267  0.00  0.00    +0.000 C 
BRANCH  29  30
ATOM     30  O   UNL     1      -6.611  13.667  16.854  0.00  0.00    +0.000 OA
ATOM     31  C   UNL     1      -7.119  14.940  16.486  0.00  0.00    +0.000 C 
ENDBRANCH  29  30
ENDBRANCH  28  29
ENDBRANCH  27  28
ENDBRANCH  25  27
ENDBRANCH  22  23
BRANCH  22  32
ATOM     32  C   UNL     1      -2.909  10.627  15.429  0.00  0.00    +0.000 C 
ATOM     33  N   UNL     1      -3.028  10.489  14.182  0.00  0.00    +0.000 NA
ENDBRANCH  22  32
ENDBRANCH   5  21
TORSDOF 11
ENDMDL
MODEL 2
REMARK VINA RESULT:      -6.6      3.362      7.942
REMARK  Name = 
REMARK  13 active torsions:
REMARK  status: ('A' for Active; 'I' for Inactive)
REMARK    1  A    between atoms: C_1  and  C_2
REMARK    2  A    between atoms: C_2  and  S_3
REMARK    3  A    between atoms: S_3  and  C_4
REMARK    4  A    between atoms: C_7  and  C_8
REMARK    5  A    between atoms: N_10  and  C_11
REMARK    6  A    between atoms: C_18  and  C_19
REMARK    7  A    between atoms: C_20  and  C_21
REMARK    8  A    between atoms: C_20  and  C_23
REMARK    9  A    between atoms: N_25  and  C_26
REMARK   10  A    between atoms: C_26  and  C_27
REMARK   11  A    between atoms: C_27  and  C_28
REMARK   12  A    between atoms: C_28  and  O_29
REMARK   13  A    between atoms: O_29  and  C_30
REMARK                            x       y       z     vdW  Elec       q    Type
REMARK                         _______ _______ _______ _____ _____    ______ ____
ROOT
ATOM      1  C   UNL     1      -0.328  10.553  18.394  0.00  0.00    +0.000 A 
ATOM      2  N   UNL     1       0.118   9.284  18.412  0.00  0.00    +0.000 NA
ATOM      3  N   UNL     1       1.471   9.358  18.522  0.00  0.00    +0.000 N 
ATOM      4  C   UNL     1       1.889  10.675  18.554  0.00  0.00    +0.000 A 
ATOM      5  C   UNL     1       0.768  11.462  18.436  0.00  0.00    +0.000 A 
ENDROOT
BRANCH   1   9
ATOM      6  C   UNL     1      -4.548  11.303  18.177  0.00  0.00    +0.000 A 
ATOM      7  C   UNL     1      -3.936  10.404  17.300  0.00  0.00    +0.000 A 
ATOM      8  C   UNL     1      -2.560  10.170  17.367  0.00  0.00    +0.000 A 
ATOM      9  C   UNL     1      -1.765  10.841  18.308  0.00  0.00    +0.000 A 
ATOM     10  C   UNL     1      -2.382  11.774  19.154  0.00  0.00    +0.000 A 
ATOM     11  C   UNL     1      -3.761  11.996  19.095  0.00  0.00    +0.000 A 
BRANCH   6  12
ATOM     12  S   UNL     1      -6.296  11.629  18.114  0.00  0.00    +0.000 S 
BRANCH  12  14
ATOM     13  C   UNL     1      -7.487  13.966  17.343  0.00  0.00    +0.000 C 
ATOM     14  C   UNL     1      -6.305  13.075  17.005  0.00  0.00    +0.000 C 
ENDBRANCH  12  14
ENDBRANCH   6  12
ENDBRANCH   1   9
BRANCH   3  15
ATOM     15  C   UNL     1       2.280   8.181  18.573  0.00  0.00    +0.000 A 
ATOM     16  C   UNL     1       2.180   7.298  19.662  0.00  0.00    +0.000 A 
ATOM     17  C   UNL     1       2.971   6.142  19.708  0.00  0.00    +0.000 A 
ATOM     18  C   UNL     1       3.866   5.861  18.676  0.00  0.00    +0.000 A 
ATOM     19  C   UNL     1       3.968   6.731  17.593  0.00  0.00    +0.000 A 
ATOM     20  C   UNL     1       3.174   7.882  17.535  0.00  0.00    +0.000 A 
ENDBRANCH   3  15
BRANCH   5  21
ATOM     21  C   UNL     1       0.774  12.890  18.363  0.00  0.00    +0.000 C 
ATOM     22  C   UNL     1       0.718  13.751  19.398  0.00  0.00    +0.000 C 
BRANCH  22  23
ATOM     23  C   UNL     1       0.573  13.429  20.869  0.00  0.00    +0.000 C 
ATOM     24  O   UNL     1       1.560  13.035  21.490  0.00  0.00    +0.000 OA
ATOM     25  N   UNL     1      -0.658  13.514  21.470  0.00  0.00    +0.000 N 
ATOM     26  H   UNL     1      -1.479  13.830  20.978  0.00  0.00    +0.000 HD
BRANCH  25  27
ATOM     27  C   UNL     1      -0.840  13.070  22.846  0.00  0.00    +0.000 C 
BRANCH  27  28
ATOM     28  C   UNL     1      -1.791  11.878  22.952  0.00  0.00    +0.000 C 
BRANCH  28  29
ATOM     29  C   UNL     1      -1.029  10.564  23.118  0.00  0.00    +0.000 C 
BRANCH  29  30
ATOM     30  O   UNL     1      -0.262  10.321  21.941  0.00  0.00    +0.000 OA
ATOM     31  C   UNL     1       0.848   9.471  22.181  0.00  0.00    +0.000 C 
ENDBRANCH  29  30
ENDBRANCH  28  29
ENDBRANCH  27  28
ENDBRANCH  25  27
ENDBRANCH  22  23
BRANCH  22  32
ATOM     32  C   UNL     1       0.738  15.259  19.204  0.00  0.00    +0.000 C 
ATOM     33  N   UNL     1       0.753  16.509  19.043  0.00  0.00    +0.000 NA
ENDBRANCH  22  32
ENDBRANCH   5  21
TORSDOF 11
ENDMDL
MODEL 3
REMARK VINA RESULT:      -6.6      0.963      1.439
REMARK  Name = 
REMARK  13 active torsions:
REMARK  status: ('A' for Active; 'I' for Inactive)
REMARK    1  A    between atoms: C_1  and  C_2
REMARK    2  A    between atoms: C_2  and  S_3
REMARK    3  A    between atoms: S_3  and  C_4
REMARK    4  A    between atoms: C_7  and  C_8
REMARK    5  A    between atoms: N_10  and  C_11
REMARK    6  A    between atoms: C_18  and  C_19
REMARK    7  A    between atoms: C_20  and  C_21
REMARK    8  A    between atoms: C_20  and  C_23
REMARK    9  A    between atoms: N_25  and  C_26
REMARK   10  A    between atoms: C_26  and  C_27
REMARK   11  A    between atoms: C_27  and  C_28
REMARK   12  A    between atoms: C_28  and  O_29
REMARK   13  A    between atoms: O_29  and  C_30
REMARK                            x       y       z     vdW  Elec       q    Type
REMARK                         _______ _______ _______ _____ _____    ______ ____
ROOT
ATOM      1  C   UNL     1      -0.623  10.721  19.715  0.00  0.00    +0.000 A 
ATOM      2  N   UNL     1      -0.700  11.285  20.933  0.00  0.00    +0.000 NA
ATOM      3  N   UNL     1      -1.754  12.143  20.889  0.00  0.00    +0.000 N 
ATOM      4  C   UNL     1      -2.336  12.141  19.636  0.00  0.00    +0.000 A 
ATOM      5  C   UNL     1      -1.615  11.272  18.853  0.00  0.00    +0.000 A 
ENDROOT
BRANCH   1   9
ATOM      6  C   UNL     1       2.303   7.700  18.862  0.00  0.00    +0.000 A 
ATOM      7  C   UNL     1       1.790   7.853  20.152  0.00  0.00    +0.000 A 
ATOM      8  C   UNL     1       0.844   8.845  20.428  0.00  0.00    +0.000 A 
ATOM      9  C   UNL     1       0.401   9.712  19.418  0.00  0.00    +0.000 A 
ATOM     10  C   UNL     1       0.957   9.579  18.138  0.00  0.00    +0.000 A 
ATOM     11  C   UNL     1       1.892   8.577  17.860  0.00  0.00    +0.000 A 
BRANCH   6  12
ATOM     12  S   UNL     1       3.513   6.453  18.479  0.00  0.00    +0.000 S 
BRANCH  12  14
ATOM     13  C   UNL     1       2.280   4.087  19.077  0.00  0.00    +0.000 C 
ATOM     14  C   UNL     1       2.412   5.099  17.954  0.00  0.00    +0.000 C 
ENDBRANCH  12  14
ENDBRANCH   6  12
ENDBRANCH   1   9
BRANCH   3  15
ATOM     15  C   UNL     1      -2.130  12.918  22.029  0.00  0.00    +0.000 A 
ATOM     16  C   UNL     1      -1.495  14.143  22.296  0.00  0.00    +0.000 A 
ATOM     17  C   UNL     1      -1.868  14.904  23.411  0.00  0.00    +0.000 A 
ATOM     18  C   UNL     1      -2.872  14.450  24.267  0.00  0.00    +0.000 A 
ATOM     19  C   UNL     1      -3.507  13.239  24.007  0.00  0.00    +0.000 A 
ATOM     20  C   UNL     1      -3.146  12.478  22.890  0.00  0.00    +0.000 A 
ENDBRANCH   3  15
BRANCH   5  21
ATOM     21  C   UNL     1      -1.855  11.029  17.464  0.00  0.00    +0.000 C 
ATOM     22  C   UNL     1      -3.052  10.988  16.847  0.00  0.00    +0.000 C 
BRANCH  22  23
ATOM     23  C   UNL     1      -4.425  11.122  17.469  0.00  0.00    +0.000 C 
ATOM     24  O   UNL     1      -4.846  10.208  18.177  0.00  0.00    +0.000 OA
ATOM     25  N   UNL     1      -5.202  12.216  17.183  0.00  0.00    +0.000 N 
ATOM     26  H   UNL     1      -4.877  12.973  16.602  0.00  0.00    +0.000 HD
BRANCH  25  27
ATOM     27  C   UNL     1      -6.578  12.289  17.658  0.00  0.00    +0.000 C 
BRANCH  27  28
ATOM     28  C   UNL     1      -7.156  13.700  17.554  0.00  0.00    +0.000 C 
BRANCH  28  29
ATOM     29  C   UNL     1      -6.573  14.626  18.620  0.00  0.00    +0.000 C 
BRANCH  29  30
ATOM     30  O   UNL     1      -6.024  13.837  19.672  0.00  0.00    +0.000 OA
ATOM     31  C   UNL     1      -5.153  14.579  20.511  0.00  0.00    +0.000 C 
ENDBRANCH  29  30
ENDBRANCH  28  29
ENDBRANCH  27  28
ENDBRANCH  25  27
ENDBRANCH  22  23
BRANCH  22  32
ATOM     32  C   UNL     1      -3.191  10.727  15.356  0.00  0.00    +0.000 C 
ATOM     33  N   UNL     1      -3.305  10.510  14.119  0.00  0.00    +0.000 NA
ENDBRANCH  22  32
ENDBRANCH   5  21
TORSDOF 11
ENDMDL
MODEL 4
REMARK VINA RESULT:      -6.5      1.432      2.325
REMARK  Name = 
REMARK  13 active torsions:
REMARK  status: ('A' for Active; 'I' for Inactive)
REMARK    1  A    between atoms: C_1  and  C_2
REMARK    2  A    between atoms: C_2  and  S_3
REMARK    3  A    between atoms: S_3  and  C_4
REMARK    4  A    between atoms: C_7  and  C_8
REMARK    5  A    between atoms: N_10  and  C_11
REMARK    6  A    between atoms: C_18  and  C_19
REMARK    7  A    between atoms: C_20  and  C_21
REMARK    8  A    between atoms: C_20  and  C_23
REMARK    9  A    between atoms: N_25  and  C_26
REMARK   10  A    between atoms: C_26  and  C_27
REMARK   11  A    between atoms: C_27  and  C_28
REMARK   12  A    between atoms: C_28  and  O_29
REMARK   13  A    between atoms: O_29  and  C_30
REMARK                            x       y       z     vdW  Elec       q    Type
REMARK                         _______ _______ _______ _____ _____    ______ ____
ROOT
ATOM      1  C   UNL     1       0.156  10.698  19.707  0.00  0.00    +0.000 A 
ATOM      2  N   UNL     1       0.295  11.408  20.840  0.00  0.00    +0.000 NA
ATOM      3  N   UNL     1      -0.589  12.437  20.755  0.00  0.00    +0.000 N 
ATOM      4  C   UNL     1      -1.278  12.394  19.559  0.00  0.00    +0.000 A 
ATOM      5  C   UNL     1      -0.800  11.317  18.851  0.00  0.00    +0.000 A 
ENDROOT
BRANCH   1   9
ATOM      6  C   UNL     1       2.568   7.213  19.031  0.00  0.00    +0.000 A 
ATOM      7  C   UNL     1       2.345   8.136  18.008  0.00  0.00    +0.000 A 
ATOM      8  C   UNL     1       1.550   9.264  18.228  0.00  0.00    +0.000 A 
ATOM      9  C   UNL     1       0.953   9.486  19.478  0.00  0.00    +0.000 A 
ATOM     10  C   UNL     1       1.148   8.530  20.485  0.00  0.00    +0.000 A 
ATOM     11  C   UNL     1       1.955   7.410  20.267  0.00  0.00    +0.000 A 
BRANCH   6  12
ATOM     12  S   UNL     1       3.569   5.763  18.782  0.00  0.00    +0.000 S 
BRANCH  12  14
ATOM     13  C   UNL     1       1.531   4.283  17.719  0.00  0.00    +0.000 C 
ATOM     14  C   UNL     1       2.307   4.468  19.010  0.00  0.00    +0.000 C 
ENDBRANCH  12  14
ENDBRANCH   6  12
ENDBRANCH   1   9
BRANCH   3  15
ATOM     15  C   UNL     1      -0.712  13.401  21.803  0.00  0.00    +0.000 A 
ATOM     16  C   UNL     1       0.002  14.610  21.744  0.00  0.00    +0.000 A 
ATOM     17  C   UNL     1      -0.123  15.555  22.770  0.00  0.00    +0.000 A 
ATOM     18  C   UNL     1      -0.956  15.303  23.860  0.00  0.00    +0.000 A 
ATOM     19  C   UNL     1      -1.668  14.108  23.923  0.00  0.00    +0.000 A 
ATOM     20  C   UNL     1      -1.556  13.163  22.898  0.00  0.00    +0.000 A 
ENDBRANCH   3  15
BRANCH   5  21
ATOM     21  C   UNL     1      -1.209  10.959  17.528  0.00  0.00    +0.000 C 
ATOM     22  C   UNL     1      -2.474  10.840  17.080  0.00  0.00    +0.000 C 
BRANCH  22  23
ATOM     23  C   UNL     1      -3.758  10.990  17.865  0.00  0.00    +0.000 C 
ATOM     24  O   UNL     1      -4.362   9.976  18.212  0.00  0.00    +0.000 OA
ATOM     25  N   UNL     1      -4.264  12.240  18.117  0.00  0.00    +0.000 N 
ATOM     26  H   UNL     1      -3.787  13.083  17.837  0.00  0.00    +0.000 HD
BRANCH  25  27
ATOM     27  C   UNL     1      -5.570  12.396  18.745  0.00  0.00    +0.000 C 
BRANCH  27  28
ATOM     28  C   UNL     1      -5.527  13.331  19.954  0.00  0.00    +0.000 C 
BRANCH  28  29
ATOM     29  C   UNL     1      -4.710  12.734  21.098  0.00  0.00    +0.000 C 
BRANCH  29  30
ATOM     30  O   UNL     1      -5.600  12.238  22.095  0.00  0.00    +0.000 OA
ATOM     31  C   UNL     1      -5.863  13.190  23.113  0.00  0.00    +0.000 C 
ENDBRANCH  29  30
ENDBRANCH  28  29
ENDBRANCH  27  28
ENDBRANCH  25  27
ENDBRANCH  22  23
BRANCH  22  32
ATOM     32  C   UNL     1      -2.795  10.458  15.644  0.00  0.00    +0.000 C 
ATOM     33  N   UNL     1      -3.062  10.141  14.453  0.00  0.00    +0.000 NA
ENDBRANCH  22  32
ENDBRANCH   5  21
TORSDOF 11
ENDMDL
MODEL 5
REMARK VINA RESULT:      -6.5      3.509      7.875
REMARK  Name = 
REMARK  13 active torsions:
REMARK  status: ('A' for Active; 'I' for Inactive)
REMARK    1  A    between atoms: C_1  and  C_2
REMARK    2  A    between atoms: C_2  and  S_3
REMARK    3  A    between atoms: S_3  and  C_4
REMARK    4  A    between atoms: C_7  and  C_8
REMARK    5  A    between atoms: N_10  and  C_11
REMARK    6  A    between atoms: C_18  and  C_19
REMARK    7  A    between atoms: C_20  and  C_21
REMARK    8  A    between atoms: C_20  and  C_23
REMARK    9  A    between atoms: N_25  and  C_26
REMARK   10  A    between atoms: C_26  and  C_27
REMARK   11  A    between atoms: C_27  and  C_28
REMARK   12  A    between atoms: C_28  and  O_29
REMARK   13  A    between atoms: O_29  and  C_30
REMARK                            x       y       z     vdW  Elec       q    Type
REMARK                         _______ _______ _______ _____ _____    ______ ____
ROOT
ATOM      1  C   UNL     1      -0.144  10.359  18.162  0.00  0.00    +0.000 A 
ATOM      2  N   UNL     1       0.288   9.087  18.114  0.00  0.00    +0.000 NA
ATOM      3  N   UNL     1       1.635   9.135  18.288  0.00  0.00    +0.000 N 
ATOM      4  C   UNL     1       2.065  10.441  18.427  0.00  0.00    +0.000 A 
ATOM      5  C   UNL     1       0.958  11.249  18.314  0.00  0.00    +0.000 A 
ENDROOT
BRANCH   1   9
ATOM      6  C   UNL     1      -4.296  11.368  17.766  0.00  0.00    +0.000 A 
ATOM      7  C   UNL     1      -3.553  11.819  18.859  0.00  0.00    +0.000 A 
ATOM      8  C   UNL     1      -2.204  11.480  18.990  0.00  0.00    +0.000 A 
ATOM      9  C   UNL     1      -1.573  10.672  18.032  0.00  0.00    +0.000 A 
ATOM     10  C   UNL     1      -2.339  10.189  16.962  0.00  0.00    +0.000 A 
ATOM     11  C   UNL     1      -3.685  10.541  16.825  0.00  0.00    +0.000 A 
BRANCH   6  12
ATOM     12  S   UNL     1      -6.018  11.776  17.573  0.00  0.00    +0.000 S 
BRANCH  12  14
ATOM     13  C   UNL     1      -7.387  11.347  19.900  0.00  0.00    +0.000 C 
ATOM     14  C   UNL     1      -6.754  10.592  18.746  0.00  0.00    +0.000 C 
ENDBRANCH  12  14
ENDBRANCH   6  12
ENDBRANCH   1   9
BRANCH   3  15
ATOM     15  C   UNL     1       2.429   7.947  18.296  0.00  0.00    +0.000 A 
ATOM     16  C   UNL     1       3.531   7.823  17.432  0.00  0.00    +0.000 A 
ATOM     17  C   UNL     1       4.310   6.659  17.444  0.00  0.00    +0.000 A 
ATOM     18  C   UNL     1       3.996   5.612  18.311  0.00  0.00    +0.000 A 
ATOM     19  C   UNL     1       2.906   5.730  19.171  0.00  0.00    +0.000 A 
ATOM     20  C   UNL     1       2.130   6.893  19.172  0.00  0.00    +0.000 A 
ENDBRANCH   3  15
BRANCH   5  21
ATOM     21  C   UNL     1       0.982  12.679  18.338  0.00  0.00    +0.000 C 
ATOM     22  C   UNL     1       0.868  13.469  19.423  0.00  0.00    +0.000 C 
BRANCH  22  23
ATOM     23  C   UNL     1       0.626  13.053  20.857  0.00  0.00    +0.000 C 
ATOM     24  O   UNL     1       1.510  12.440  21.454  0.00  0.00    +0.000 OA
ATOM     25  N   UNL     1      -0.590  13.298  21.445  0.00  0.00    +0.000 N 
ATOM     26  H   UNL     1      -1.329  13.794  20.972  0.00  0.00    +0.000 HD
BRANCH  25  27
ATOM     27  C   UNL     1      -0.886  12.776  22.773  0.00  0.00    +0.000 C 
BRANCH  27  28
ATOM     28  C   UNL     1      -1.560  11.405  22.723  0.00  0.00    +0.000 C 
BRANCH  28  29
ATOM     29  C   UNL     1      -0.679  10.322  23.342  0.00  0.00    +0.000 C 
BRANCH  29  30
ATOM     30  O   UNL     1      -0.592   9.222  22.440  0.00  0.00    +0.000 OA
ATOM     31  C   UNL     1       0.618   9.222  21.698  0.00  0.00    +0.000 C 
ENDBRANCH  29  30
ENDBRANCH  28  29
ENDBRANCH  27  28
ENDBRANCH  25  27
ENDBRANCH  22  23
BRANCH  22  32
ATOM     32  C   UNL     1       0.913  14.986  19.333  0.00  0.00    +0.000 C 
ATOM     33  N   UNL     1       0.951  16.244  19.258  0.00  0.00    +0.000 NA
ENDBRANCH  22  32
ENDBRANCH   5  21
TORSDOF 11
ENDMDL
MODEL 6
REMARK VINA RESULT:      -6.5      3.413      7.957
REMARK  Name = 
REMARK  13 active torsions:
REMARK  status: ('A' for Active; 'I' for Inactive)
REMARK    1  A    between atoms: C_1  and  C_2
REMARK    2  A    between atoms: C_2  and  S_3
REMARK    3  A    between atoms: S_3  and  C_4
REMARK    4  A    between atoms: C_7  and  C_8
REMARK    5  A    between atoms: N_10  and  C_11
REMARK    6  A    between atoms: C_18  and  C_19
REMARK    7  A    between atoms: C_20  and  C_21
REMARK    8  A    between atoms: C_20  and  C_23
REMARK    9  A    between atoms: N_25  and  C_26
REMARK   10  A    between atoms: C_26  and  C_27
REMARK   11  A    between atoms: C_27  and  C_28
REMARK   12  A    between atoms: C_28  and  O_29
REMARK   13  A    between atoms: O_29  and  C_30
REMARK                            x       y       z     vdW  Elec       q    Type
REMARK                         _______ _______ _______ _____ _____    ______ ____
ROOT
ATOM      1  C   UNL     1      -1.247  11.474  18.556  0.00  0.00    +0.000 A 
ATOM      2  N   UNL     1      -0.806  10.209  18.666  0.00  0.00    +0.000 NA
ATOM      3  N   UNL     1       0.549  10.283  18.741  0.00  0.00    +0.000 N 
ATOM      4  C   UNL     1       0.973  11.596  18.658  0.00  0.00    +0.000 A 
ATOM      5  C   UNL     1      -0.147  12.377  18.502  0.00  0.00    +0.000 A 
ENDROOT
BRANCH   1   9
ATOM      6  C   UNL     1      -5.467  12.219  18.322  0.00  0.00    +0.000 A 
ATOM      7  C   UNL     1      -4.766  11.733  17.217  0.00  0.00    +0.000 A 
ATOM      8  C   UNL     1      -3.390  11.502  17.293  0.00  0.00    +0.000 A 
ATOM      9  C   UNL     1      -2.685  11.763  18.478  0.00  0.00    +0.000 A 
ATOM     10  C   UNL     1      -3.392  12.292  19.567  0.00  0.00    +0.000 A 
ATOM     11  C   UNL     1      -4.770  12.510  19.493  0.00  0.00    +0.000 A 
BRANCH   6  12
ATOM     12  S   UNL     1      -7.218  12.532  18.256  0.00  0.00    +0.000 S 
BRANCH  12  14
ATOM     13  C   UNL     1      -7.154  14.633  16.508  0.00  0.00    +0.000 C 
ATOM     14  C   UNL     1      -7.205  14.335  17.995  0.00  0.00    +0.000 C 
ENDBRANCH  12  14
ENDBRANCH   6  12
ENDBRANCH   1   9
BRANCH   3  15
ATOM     15  C   UNL     1       1.354   9.110  18.869  0.00  0.00    +0.000 A 
ATOM     16  C   UNL     1       2.167   8.686  17.805  0.00  0.00    +0.000 A 
ATOM     17  C   UNL     1       2.959   7.538  17.934  0.00  0.00    +0.000 A 
ATOM     18  C   UNL     1       2.943   6.803  19.120  0.00  0.00    +0.000 A 
ATOM     19  C   UNL     1       2.140   7.219  20.179  0.00  0.00    +0.000 A 
ATOM     20  C   UNL     1       1.355   8.371  20.061  0.00  0.00    +0.000 A 
ENDBRANCH   3  15
BRANCH   5  21
ATOM     21  C   UNL     1      -0.138  13.795  18.315  0.00  0.00    +0.000 C 
ATOM     22  C   UNL     1      -0.485  14.731  19.220  0.00  0.00    +0.000 C 
BRANCH  22  23
ATOM     23  C   UNL     1      -1.024  14.519  20.618  0.00  0.00    +0.000 C 
ATOM     24  O   UNL     1      -2.026  15.142  20.967  0.00  0.00    +0.000 OA
ATOM     25  N   UNL     1      -0.356  13.699  21.492  0.00  0.00    +0.000 N 
ATOM     26  H   UNL     1       0.469  13.184  21.227  0.00  0.00    +0.000 HD
BRANCH  25  27
ATOM     27  C   UNL     1      -0.781  13.598  22.882  0.00  0.00    +0.000 C 
BRANCH  27  28
ATOM     28  C   UNL     1      -1.773  12.457  23.107  0.00  0.00    +0.000 C 
BRANCH  28  29
ATOM     29  C   UNL     1      -1.247  11.136  22.548  0.00  0.00    +0.000 C 
BRANCH  29  30
ATOM     30  O   UNL     1      -0.716  10.358  23.618  0.00  0.00    +0.000 OA
ATOM     31  C   UNL     1       0.262   9.428  23.182  0.00  0.00    +0.000 C 
ENDBRANCH  29  30
ENDBRANCH  28  29
ENDBRANCH  27  28
ENDBRANCH  25  27
ENDBRANCH  22  23
BRANCH  22  32
ATOM     32  C   UNL     1      -0.430  16.219  18.914  0.00  0.00    +0.000 C 
ATOM     33  N   UNL     1      -0.385  17.453  18.659  0.00  0.00    +0.000 NA
ENDBRANCH  22  32
ENDBRANCH   5  21
TORSDOF 11
ENDMDL
MODEL 7
REMARK VINA RESULT:      -6.5      2.679      5.469
REMARK  Name = 
REMARK  13 active torsions:
REMARK  status: ('A' for Active; 'I' for Inactive)
REMARK    1  A    between atoms: C_1  and  C_2
REMARK    2  A    between atoms: C_2  and  S_3
REMARK    3  A    between atoms: S_3  and  C_4
REMARK    4  A    between atoms: C_7  and  C_8
REMARK    5  A    between atoms: N_10  and  C_11
REMARK    6  A    between atoms: C_18  and  C_19
REMARK    7  A    between atoms: C_20  and  C_21
REMARK    8  A    between atoms: C_20  and  C_23
REMARK    9  A    between atoms: N_25  and  C_26
REMARK   10  A    between atoms: C_26  and  C_27
REMARK   11  A    between atoms: C_27  and  C_28
REMARK   12  A    between atoms: C_28  and  O_29
REMARK   13  A    between atoms: O_29  and  C_30
REMARK                            x       y       z     vdW  Elec       q    Type
REMARK                         _______ _______ _______ _____ _____    ______ ____
ROOT
ATOM      1  C   UNL     1       0.059  10.505  18.997  0.00  0.00    +0.000 A 
ATOM      2  N   UNL     1      -1.242  10.332  18.703  0.00  0.00    +0.000 NA
ATOM      3  N   UNL     1      -1.807  11.568  18.735  0.00  0.00    +0.000 N 
ATOM      4  C   UNL     1      -0.870  12.527  19.069  0.00  0.00    +0.000 A 
ATOM      5  C   UNL     1       0.322  11.876  19.280  0.00  0.00    +0.000 A 
ENDROOT
BRANCH   1   9
ATOM      6  C   UNL     1       2.672   7.102  19.086  0.00  0.00    +0.000 A 
ATOM      7  C   UNL     1       1.956   7.482  20.223  0.00  0.00    +0.000 A 
ATOM      8  C   UNL     1       1.114   8.597  20.193  0.00  0.00    +0.000 A 
ATOM      9  C   UNL     1       0.980   9.362  19.025  0.00  0.00    +0.000 A 
ATOM     10  C   UNL     1       1.737   8.997  17.903  0.00  0.00    +0.000 A 
ATOM     11  C   UNL     1       2.568   7.874  17.930  0.00  0.00    +0.000 A 
BRANCH   6  12
ATOM     12  S   UNL     1       3.758   5.692  19.092  0.00  0.00    +0.000 S 
BRANCH  12  14
ATOM     13  C   UNL     1       1.704   4.337  17.901  0.00  0.00    +0.000 C 
ATOM     14  C   UNL     1       2.529   4.350  19.175  0.00  0.00    +0.000 C 
ENDBRANCH  12  14
ENDBRANCH   6  12
ENDBRANCH   1   9
BRANCH   3  15
ATOM     15  C   UNL     1      -3.197  11.759  18.463  0.00  0.00    +0.000 A 
ATOM     16  C   UNL     1      -3.725  11.437  17.201  0.00  0.00    +0.000 A 
ATOM     17  C   UNL     1      -5.088  11.621  16.938  0.00  0.00    +0.000 A 
ATOM     18  C   UNL     1      -5.932  12.129  17.926  0.00  0.00    +0.000 A 
ATOM     19  C   UNL     1      -5.416  12.447  19.179  0.00  0.00    +0.000 A 
ATOM     20  C   UNL     1      -4.057  12.257  19.453  0.00  0.00    +0.000 A 
ENDBRANCH   3  15
BRANCH   5  21
ATOM     21  C   UNL     1       1.534  12.504  19.706  0.00  0.00    +0.000 C 
ATOM     22  C   UNL     1       1.658  13.464  20.645  0.00  0.00    +0.000 C 
BRANCH  22  23
ATOM     23  C   UNL     1       0.559  14.153  21.423  0.00  0.00    +0.000 C 
ATOM     24  O   UNL     1       0.337  15.344  21.208  0.00  0.00    +0.000 OA
ATOM     25  N   UNL     1      -0.122  13.467  22.398  0.00  0.00    +0.000 N 
ATOM     26  H   UNL     1       0.049  12.493  22.593  0.00  0.00    +0.000 HD
BRANCH  25  27
ATOM     27  C   UNL     1      -1.080  14.156  23.252  0.00  0.00    +0.000 C 
BRANCH  27  28
ATOM     28  C   UNL     1      -2.521  13.729  22.973  0.00  0.00    +0.000 C 
BRANCH  28  29
ATOM     29  C   UNL     1      -2.666  12.209  22.961  0.00  0.00    +0.000 C 
BRANCH  29  30
ATOM     30  O   UNL     1      -3.602  11.823  23.964  0.00  0.00    +0.000 OA
ATOM     31  C   UNL     1      -4.570  12.829  24.221  0.00  0.00    +0.000 C 
ENDBRANCH  29  30
ENDBRANCH  28  29
ENDBRANCH  27  28
ENDBRANCH  25  27
ENDBRANCH  22  23
BRANCH  22  32
ATOM     32  C   UNL     1       3.004  14.059  21.026  0.00  0.00    +0.000 C 
ATOM     33  N   UNL     1       4.120  14.553  21.342  0.00  0.00    +0.000 NA
ENDBRANCH  22  32
ENDBRANCH   5  21
TORSDOF 11
ENDMDL
MODEL 8
REMARK VINA RESULT:      -6.5      3.990      6.538
REMARK  Name = 
REMARK  13 active torsions:
REMARK  status: ('A' for Active; 'I' for Inactive)
REMARK    1  A    between atoms: C_1  and  C_2
REMARK    2  A    between atoms: C_2  and  S_3
REMARK    3  A    between atoms: S_3  and  C_4
REMARK    4  A    between atoms: C_7  and  C_8
REMARK    5  A    between atoms: N_10  and  C_11
REMARK    6  A    between atoms: C_18  and  C_19
REMARK    7  A    between atoms: C_20  and  C_21
REMARK    8  A    between atoms: C_20  and  C_23
REMARK    9  A    between atoms: N_25  and  C_26
REMARK   10  A    between atoms: C_26  and  C_27
REMARK   11  A    between atoms: C_27  and  C_28
REMARK   12  A    between atoms: C_28  and  O_29
REMARK   13  A    between atoms: O_29  and  C_30
REMARK                            x       y       z     vdW  Elec       q    Type
REMARK                         _______ _______ _______ _____ _____    ______ ____
ROOT
ATOM      1  C   UNL     1       0.148  12.096  19.038  0.00  0.00    +0.000 A 
ATOM      2  N   UNL     1      -1.033  12.695  19.268  0.00  0.00    +0.000 NA
ATOM      3  N   UNL     1      -1.986  11.745  19.075  0.00  0.00    +0.000 N 
ATOM      4  C   UNL     1      -1.412  10.544  18.703  0.00  0.00    +0.000 A 
ATOM      5  C   UNL     1      -0.054  10.745  18.633  0.00  0.00    +0.000 A 
ENDROOT
BRANCH   1   9
ATOM      6  C   UNL     1       3.782  14.346  19.425  0.00  0.00    +0.000 A 
ATOM      7  C   UNL     1       3.306  13.969  18.167  0.00  0.00    +0.000 A 
ATOM      8  C   UNL     1       2.128  13.227  18.046  0.00  0.00    +0.000 A 
ATOM      9  C   UNL     1       1.407  12.838  19.184  0.00  0.00    +0.000 A 
ATOM     10  C   UNL     1       1.917  13.184  20.443  0.00  0.00    +0.000 A 
ATOM     11  C   UNL     1       3.089  13.937  20.562  0.00  0.00    +0.000 A 
BRANCH   6  12
ATOM     12  S   UNL     1       5.283  15.284  19.615  0.00  0.00    +0.000 S 
BRANCH  12  14
ATOM     13  C   UNL     1       7.489  15.305  18.000  0.00  0.00    +0.000 C 
ATOM     14  C   UNL     1       5.987  15.090  17.945  0.00  0.00    +0.000 C 
ENDBRANCH  12  14
ENDBRANCH   6  12
ENDBRANCH   1   9
BRANCH   3  15
ATOM     15  C   UNL     1      -3.374  12.038  19.240  0.00  0.00    +0.000 A 
ATOM     16  C   UNL     1      -3.816  12.787  20.344  0.00  0.00    +0.000 A 
ATOM     17  C   UNL     1      -5.178  13.077  20.502  0.00  0.00    +0.000 A 
ATOM     18  C   UNL     1      -6.106  12.621  19.566  0.00  0.00    +0.000 A 
ATOM     19  C   UNL     1      -5.675  11.880  18.469  0.00  0.00    +0.000 A 
ATOM     20  C   UNL     1      -4.316  11.595  18.299  0.00  0.00    +0.000 A 
ENDBRANCH   3  15
BRANCH   5  21
ATOM     21  C   UNL     1       0.899   9.763  18.219  0.00  0.00    +0.000 C 
ATOM     22  C   UNL     1       1.492   8.835  18.997  0.00  0.00    +0.000 C 
BRANCH  22  23
ATOM     23  C   UNL     1       1.349   8.645  20.491  0.00  0.00    +0.000 C 
ATOM     24  O   UNL     1       1.345   7.501  20.945  0.00  0.00    +0.000 OA
ATOM     25  N   UNL     1       1.159   9.734  21.305  0.00  0.00    +0.000 N 
ATOM     26  H   UNL     1       1.155  10.678  20.952  0.00  0.00    +0.000 HD
BRANCH  25  27
ATOM     27  C   UNL     1       0.877   9.555  22.723  0.00  0.00    +0.000 C 
BRANCH  27  28
ATOM     28  C   UNL     1      -0.620   9.441  23.009  0.00  0.00    +0.000 C 
BRANCH  28  29
ATOM     29  C   UNL     1      -1.306  10.805  22.970  0.00  0.00    +0.000 C 
BRANCH  29  30
ATOM     30  O   UNL     1      -0.317  11.818  22.805  0.00  0.00    +0.000 OA
ATOM     31  C   UNL     1      -0.872  13.124  22.790  0.00  0.00    +0.000 C 
ENDBRANCH  29  30
ENDBRANCH  28  29
ENDBRANCH  27  28
ENDBRANCH  25  27
ENDBRANCH  22  23
BRANCH  22  32
ATOM     32  C   UNL     1       2.491   7.831  18.447  0.00  0.00    +0.000 C 
ATOM     33  N   UNL     1       3.320   6.998  17.991  0.00  0.00    +0.000 NA
ENDBRANCH  22  32
ENDBRANCH   5  21
TORSDOF 11
ENDMDL
MODEL 9
REMARK VINA RESULT:      -6.5      1.539      1.907
REMARK  Name = 
REMARK  13 active torsions:
REMARK  status: ('A' for Active; 'I' for Inactive)
REMARK    1  A    between atoms: C_1  and  C_2
REMARK    2  A    between atoms: C_2  and  S_3
REMARK    3  A    between atoms: S_3  and  C_4
REMARK    4  A    between atoms: C_7  and  C_8
REMARK    5  A    between atoms: N_10  and  C_11
REMARK    6  A    between atoms: C_18  and  C_19
REMARK    7  A    between atoms: C_20  and  C_21
REMARK    8  A    between atoms: C_20  and  C_23
REMARK    9  A    between atoms: N_25  and  C_26
REMARK   10  A    between atoms: C_26  and  C_27
REMARK   11  A    between atoms: C_27  and  C_28
REMARK   12  A    between atoms: C_28  and  O_29
REMARK   13  A    between atoms: O_29  and  C_30
REMARK                            x       y       z     vdW  Elec       q    Type
REMARK                         _______ _______ _______ _____ _____    ______ ____
ROOT
ATOM      1  C   UNL     1      -0.714  10.697  19.494  0.00  0.00    +0.000 A 
ATOM      2  N   UNL     1      -0.795  11.346  20.669  0.00  0.00    +0.000 NA
ATOM      3  N   UNL     1      -1.877  12.163  20.579  0.00  0.00    +0.000 N 
ATOM      4  C   UNL     1      -2.474  12.050  19.338  0.00  0.00    +0.000 A 
ATOM      5  C   UNL     1      -1.733  11.151  18.609  0.00  0.00    +0.000 A 
ENDROOT
BRANCH   1   9
ATOM      6  C   UNL     1       2.302   7.720  18.816  0.00  0.00    +0.000 A 
ATOM      7  C   UNL     1       1.743   7.894  20.084  0.00  0.00    +0.000 A 
ATOM      8  C   UNL     1       0.769   8.872  20.303  0.00  0.00    +0.000 A 
ATOM      9  C   UNL     1       0.341   9.704  19.258  0.00  0.00    +0.000 A 
ATOM     10  C   UNL     1       0.941   9.549  18.000  0.00  0.00    +0.000 A 
ATOM     11  C   UNL     1       1.905   8.562  17.779  0.00  0.00    +0.000 A 
BRANCH   6  12
ATOM     12  S   UNL     1       3.549   6.489  18.504  0.00  0.00    +0.000 S 
BRANCH  12  14
ATOM     13  C   UNL     1       3.383   3.904  19.377  0.00  0.00    +0.000 C 
ATOM     14  C   UNL     1       3.191   5.329  19.863  0.00  0.00    +0.000 C 
ENDBRANCH  12  14
ENDBRANCH   6  12
ENDBRANCH   1   9
BRANCH   3  15
ATOM     15  C   UNL     1      -2.266  13.008  21.664  0.00  0.00    +0.000 A 
ATOM     16  C   UNL     1      -3.558  13.560  21.707  0.00  0.00    +0.000 A 
ATOM     17  C   UNL     1      -3.938  14.384  22.774  0.00  0.00    +0.000 A 
ATOM     18  C   UNL     1      -3.036  14.666  23.800  0.00  0.00    +0.000 A 
ATOM     19  C   UNL     1      -1.755  14.121  23.764  0.00  0.00    +0.000 A 
ATOM     20  C   UNL     1      -1.372  13.289  22.707  0.00  0.00    +0.000 A 
ENDBRANCH   3  15
BRANCH   5  21
ATOM     21  C   UNL     1      -1.982  10.799  17.246  0.00  0.00    +0.000 C 
ATOM     22  C   UNL     1      -3.168  10.833  16.606  0.00  0.00    +0.000 C 
BRANCH  22  23
ATOM     23  C   UNL     1      -4.523  11.185  17.178  0.00  0.00    +0.000 C 
ATOM     24  O   UNL     1      -5.041  12.255  16.862  0.00  0.00    +0.000 OA
ATOM     25  N   UNL     1      -5.121  10.347  18.087  0.00  0.00    +0.000 N 
ATOM     26  H   UNL     1      -4.711   9.468  18.363  0.00  0.00    +0.000 HD
BRANCH  25  27
ATOM     27  C   UNL     1      -6.355  10.741  18.753  0.00  0.00    +0.000 C 
BRANCH  27  28
ATOM     28  C   UNL     1      -6.098  11.499  20.056  0.00  0.00    +0.000 C 
BRANCH  28  29
ATOM     29  C   UNL     1      -7.285  11.395  21.011  0.00  0.00    +0.000 C 
BRANCH  29  30
ATOM     30  O   UNL     1      -6.907  11.924  22.280  0.00  0.00    +0.000 OA
ATOM     31  C   UNL     1      -7.882  12.805  22.814  0.00  0.00    +0.000 C 
ENDBRANCH  29  30
ENDBRANCH  28  29
ENDBRANCH  27  28
ENDBRANCH  25  27
ENDBRANCH  22  23
BRANCH  22  32
ATOM     32  C   UNL     1      -3.316  10.442  15.145  0.00  0.00    +0.000 C 
ATOM     33  N   UNL     1      -3.439  10.118  13.933  0.00  0.00    +0.000 NA
ENDBRANCH  22  32
ENDBRANCH   5  21
TORSDOF 11
ENDMDL
