MODEL 1
REMARK VINA RESULT:      -7.1      0.000      0.000
REMARK  Name = 
REMARK  7 active torsions:
REMARK  status: ('A' for Active; 'I' for Inactive)
REMARK    1  A    between atoms: C_2  and  O_3
REMARK    2  A    between atoms: C_2  and  C_4
REMARK    3  A    between atoms: C_4  and  C_5
REMARK    4  A    between atoms: C_5  and  C_6
REMARK    5  A    between atoms: N_8  and  C_9
REMARK    6  A    between atoms: C_12  and  S_13
REMARK    7  A    between atoms: S_13  and  N_16
REMARK                            x       y       z     vdW  Elec       q    Type
REMARK                         _______ _______ _______ _____ _____    ______ ____
ROOT
ATOM      1  C   UNL     1       2.871   7.067  18.429  0.00  0.00    +0.000 A 
ATOM      2  C   UNL     1       2.608   8.130  17.562  0.00  0.00    +0.000 A 
ATOM      3  C   UNL     1       1.844   9.218  17.980  0.00  0.00    +0.000 A 
ATOM      4  C   UNL     1       1.315   9.242  19.271  0.00  0.00    +0.000 A 
ATOM      5  C   UNL     1       1.568   8.190  20.155  0.00  0.00    +0.000 A 
ATOM      6  C   UNL     1       2.336   7.097  19.725  0.00  0.00    +0.000 A 
ENDROOT
BRANCH   1   9
ATOM      7  C   UNL     1       3.161   4.702  17.701  0.00  0.00    +0.000 C 
ATOM      8  O   UNL     1       1.985   4.398  17.528  0.00  0.00    +0.000 OA
ATOM      9  N   UNL     1       3.648   5.950  18.051  0.00  0.00    +0.000 N 
ATOM     10  H   UNL     1       4.642   6.119  17.888  0.00  0.00    +0.000 HD
BRANCH   7  11
ATOM     11  C   UNL     1       4.242   3.675  17.439  0.00  0.00    +0.000 C 
BRANCH  11  12
ATOM     12  C   UNL     1       5.266   4.222  16.454  0.00  0.00    +0.000 C 
BRANCH  12  14
ATOM     13  O   UNL     1       7.648   4.620  16.492  0.00  0.00    +0.000 OA
ATOM     14  C   UNL     1       6.617   4.377  17.106  0.00  0.00    +0.000 C 
BRANCH  14  15
ATOM     15  O   UNL     1       6.588   4.224  18.443  0.00  0.00    +0.000 OA
ATOM     16  H   UNL     1       7.247   4.760  18.927  0.00  0.00    +0.000 HD
ENDBRANCH  14  15
ENDBRANCH  12  14
ENDBRANCH  11  12
ENDBRANCH   7  11
ENDBRANCH   1   9
BRANCH   4  17
ATOM     17  S   UNL     1       0.413  10.677  19.796  0.00  0.00    +0.000 S 
ATOM     18  O   UNL     1      -0.769  10.214  20.498  0.00  0.00    +0.000 OA
ATOM     19  O   UNL     1       1.354  11.582  20.424  0.00  0.00    +0.000 OA
BRANCH  17  20
ATOM     20  N   UNL     1      -0.145  11.293  18.317  0.00  0.00    +0.000 N 
ATOM     21  C   UNL     1      -1.482  10.928  18.061  0.00  0.00    +0.000 A 
ATOM     22  N   UNL     1      -1.724   9.955  17.221  0.00  0.00    +0.000 NA
ATOM     23  C   UNL     1      -3.092   9.770  17.138  0.00  0.00    +0.000 A 
ATOM     24  C   UNL     1      -3.862  10.688  17.821  0.00  0.00    +0.000 A 
ATOM     25  S   UNL     1      -2.838  11.784  18.654  0.00  0.00    +0.000 S 
ATOM     26  H   UNL     1       0.455  10.878  17.604  0.00  0.00    +0.000 HD
ENDBRANCH  17  20
ENDBRANCH   4  17
TORSDOF 7
ENDMDL
MODEL 2
REMARK VINA RESULT:      -6.9      0.444      1.276
REMARK  Name = 
REMARK  7 active torsions:
REMARK  status: ('A' for Active; 'I' for Inactive)
REMARK    1  A    between atoms: C_2  and  O_3
REMARK    2  A    between atoms: C_2  and  C_4
REMARK    3  A    between atoms: C_4  and  C_5
REMARK    4  A    between atoms: C_5  and  C_6
REMARK    5  A    between atoms: N_8  and  C_9
REMARK    6  A    between atoms: C_12  and  S_13
REMARK    7  A    between atoms: S_13  and  N_16
REMARK                            x       y       z     vdW  Elec       q    Type
REMARK                         _______ _______ _______ _____ _____    ______ ____
ROOT
ATOM      1  C   UNL     1       2.648   7.167  18.660  0.00  0.00    +0.000 A 
ATOM      2  C   UNL     1       2.101   7.319  19.935  0.00  0.00    +0.000 A 
ATOM      3  C   UNL     1       1.403   8.476  20.278  0.00  0.00    +0.000 A 
ATOM      4  C   UNL     1       1.265   9.506  19.347  0.00  0.00    +0.000 A 
ATOM      5  C   UNL     1       1.804   9.373  18.065  0.00  0.00    +0.000 A 
ATOM      6  C   UNL     1       2.507   8.207  17.729  0.00  0.00    +0.000 A 
ENDROOT
BRANCH   1   9
ATOM      7  C   UNL     1       2.793   4.815  17.851  0.00  0.00    +0.000 C 
ATOM      8  O   UNL     1       1.605   4.605  17.625  0.00  0.00    +0.000 OA
ATOM      9  N   UNL     1       3.355   6.009  18.267  0.00  0.00    +0.000 N 
ATOM     10  H   UNL     1       4.364   6.111  18.145  0.00  0.00    +0.000 HD
BRANCH   7  11
ATOM     11  C   UNL     1       3.805   3.720  17.587  0.00  0.00    +0.000 C 
BRANCH  11  12
ATOM     12  C   UNL     1       5.056   4.299  16.940  0.00  0.00    +0.000 C 
BRANCH  12  14
ATOM     13  O   UNL     1       6.054   4.486  19.131  0.00  0.00    +0.000 OA
ATOM     14  C   UNL     1       6.198   4.353  17.922  0.00  0.00    +0.000 C 
BRANCH  14  15
ATOM     15  O   UNL     1       7.409   4.240  17.345  0.00  0.00    +0.000 OA
ATOM     16  H   UNL     1       8.162   4.358  17.956  0.00  0.00    +0.000 HD
ENDBRANCH  14  15
ENDBRANCH  12  14
ENDBRANCH  11  12
ENDBRANCH   7  11
ENDBRANCH   1   9
BRANCH   4  17
ATOM     17  S   UNL     1       0.304  10.932  19.790  0.00  0.00    +0.000 S 
ATOM     18  O   UNL     1      -0.863  10.461  20.510  0.00  0.00    +0.000 OA
ATOM     19  O   UNL     1       1.205  11.905  20.372  0.00  0.00    +0.000 OA
BRANCH  17  20
ATOM     20  N   UNL     1      -0.268  11.445  18.278  0.00  0.00    +0.000 N 
ATOM     21  C   UNL     1      -1.578  10.991  18.023  0.00  0.00    +0.000 A 
ATOM     22  N   UNL     1      -1.751   9.968  17.227  0.00  0.00    +0.000 NA
ATOM     23  C   UNL     1      -3.105   9.699  17.138  0.00  0.00    +0.000 A 
ATOM     24  C   UNL     1      -3.936  10.601  17.768  0.00  0.00    +0.000 A 
ATOM     25  S   UNL     1      -2.989  11.793  18.561  0.00  0.00    +0.000 S 
ATOM     26  H   UNL     1       0.365  11.033  17.592  0.00  0.00    +0.000 HD
ENDBRANCH  17  20
ENDBRANCH   4  17
TORSDOF 7
ENDMDL
MODEL 3
REMARK VINA RESULT:      -6.8      2.501      3.201
REMARK  Name = 
REMARK  7 active torsions:
REMARK  status: ('A' for Active; 'I' for Inactive)
REMARK    1  A    between atoms: C_2  and  O_3
REMARK    2  A    between atoms: C_2  and  C_4
REMARK    3  A    between atoms: C_4  and  C_5
REMARK    4  A    between atoms: C_5  and  C_6
REMARK    5  A    between atoms: N_8  and  C_9
REMARK    6  A    between atoms: C_12  and  S_13
REMARK    7  A    between atoms: S_13  and  N_16
REMARK                            x       y       z     vdW  Elec       q    Type
REMARK                         _______ _______ _______ _____ _____    ______ ____
ROOT
ATOM      1  C   UNL     1       2.527   6.626  18.802  0.00  0.00    +0.000 A 
ATOM      2  C   UNL     1       2.083   6.835  20.109  0.00  0.00    +0.000 A 
ATOM      3  C   UNL     1       1.527   8.057  20.486  0.00  0.00    +0.000 A 
ATOM      4  C   UNL     1       1.430   9.093  19.557  0.00  0.00    +0.000 A 
ATOM      5  C   UNL     1       1.866   8.903  18.243  0.00  0.00    +0.000 A 
ATOM      6  C   UNL     1       2.427   7.672  17.873  0.00  0.00    +0.000 A 
ENDROOT
BRANCH   1   9
ATOM      7  C   UNL     1       2.398   4.345  17.807  0.00  0.00    +0.000 C 
ATOM      8  O   UNL     1       1.222   4.343  17.456  0.00  0.00    +0.000 OA
ATOM      9  N   UNL     1       3.088   5.402  18.374  0.00  0.00    +0.000 N 
ATOM     10  H   UNL     1       4.108   5.351  18.354  0.00  0.00    +0.000 HD
BRANCH   7  11
ATOM     11  C   UNL     1       3.256   3.126  17.540  0.00  0.00    +0.000 C 
BRANCH  11  12
ATOM     12  C   UNL     1       3.304   2.231  18.771  0.00  0.00    +0.000 C 
BRANCH  12  14
ATOM     13  O   UNL     1       4.839   1.876  20.600  0.00  0.00    +0.000 OA
ATOM     14  C   UNL     1       4.572   2.454  19.554  0.00  0.00    +0.000 C 
BRANCH  14  15
ATOM     15  O   UNL     1       5.399   3.357  18.993  0.00  0.00    +0.000 OA
ATOM     16  H   UNL     1       6.260   2.995  18.707  0.00  0.00    +0.000 HD
ENDBRANCH  14  15
ENDBRANCH  12  14
ENDBRANCH  11  12
ENDBRANCH   7  11
ENDBRANCH   1   9
BRANCH   4  17
ATOM     17  S   UNL     1       0.646  10.607  20.048  0.00  0.00    +0.000 S 
ATOM     18  O   UNL     1      -0.757  10.504  19.697  0.00  0.00    +0.000 OA
ATOM     19  O   UNL     1       1.062  10.897  21.405  0.00  0.00    +0.000 OA
BRANCH  17  20
ATOM     20  N   UNL     1       1.313  11.713  18.948  0.00  0.00    +0.000 N 
ATOM     21  C   UNL     1       0.914  13.038  19.219  0.00  0.00    +0.000 A 
ATOM     22  N   UNL     1      -0.025  13.579  18.487  0.00  0.00    +0.000 NA
ATOM     23  C   UNL     1      -0.255  14.866  18.939  0.00  0.00    +0.000 A 
ATOM     24  C   UNL     1       0.601  15.315  19.923  0.00  0.00    +0.000 A 
ATOM     25  S   UNL     1       1.691  14.059  20.347  0.00  0.00    +0.000 S 
ATOM     26  H   UNL     1       0.954  11.439  18.033  0.00  0.00    +0.000 HD
ENDBRANCH  17  20
ENDBRANCH   4  17
TORSDOF 7
ENDMDL
MODEL 4
REMARK VINA RESULT:      -6.8      2.282      3.029
REMARK  Name = 
REMARK  7 active torsions:
REMARK  status: ('A' for Active; 'I' for Inactive)
REMARK    1  A    between atoms: C_2  and  O_3
REMARK    2  A    between atoms: C_2  and  C_4
REMARK    3  A    between atoms: C_4  and  C_5
REMARK    4  A    between atoms: C_5  and  C_6
REMARK    5  A    between atoms: N_8  and  C_9
REMARK    6  A    between atoms: C_12  and  S_13
REMARK    7  A    between atoms: S_13  and  N_16
REMARK                            x       y       z     vdW  Elec       q    Type
REMARK                         _______ _______ _______ _____ _____    ______ ____
ROOT
ATOM      1  C   UNL     1       2.704   7.095  18.427  0.00  0.00    +0.000 A 
ATOM      2  C   UNL     1       2.432   8.169  17.578  0.00  0.00    +0.000 A 
ATOM      3  C   UNL     1       1.743   9.289  18.041  0.00  0.00    +0.000 A 
ATOM      4  C   UNL     1       1.299   9.333  19.364  0.00  0.00    +0.000 A 
ATOM      5  C   UNL     1       1.563   8.270  20.230  0.00  0.00    +0.000 A 
ATOM      6  C   UNL     1       2.254   7.146  19.755  0.00  0.00    +0.000 A 
ENDROOT
BRANCH   1   9
ATOM      7  C   UNL     1       4.707   5.914  17.532  0.00  0.00    +0.000 C 
ATOM      8  O   UNL     1       5.508   6.845  17.532  0.00  0.00    +0.000 OA
ATOM      9  N   UNL     1       3.406   5.945  18.003  0.00  0.00    +0.000 N 
ATOM     10  H   UNL     1       2.963   5.045  18.192  0.00  0.00    +0.000 HD
BRANCH   7  11
ATOM     11  C   UNL     1       5.155   4.547  17.059  0.00  0.00    +0.000 C 
BRANCH  11  12
ATOM     12  C   UNL     1       5.590   4.606  15.601  0.00  0.00    +0.000 C 
BRANCH  12  14
ATOM     13  O   UNL     1       7.603   5.358  14.500  0.00  0.00    +0.000 OA
ATOM     14  C   UNL     1       7.070   4.867  15.488  0.00  0.00    +0.000 C 
BRANCH  14  15
ATOM     15  O   UNL     1       7.765   4.511  16.584  0.00  0.00    +0.000 OA
ATOM     16  H   UNL     1       7.628   5.092  17.357  0.00  0.00    +0.000 HD
ENDBRANCH  14  15
ENDBRANCH  12  14
ENDBRANCH  11  12
ENDBRANCH   7  11
ENDBRANCH   1   9
BRANCH   4  17
ATOM     17  S   UNL     1       0.494  10.805  19.943  0.00  0.00    +0.000 S 
ATOM     18  O   UNL     1      -0.863  10.444  20.305  0.00  0.00    +0.000 OA
ATOM     19  O   UNL     1       1.381  11.445  20.893  0.00  0.00    +0.000 OA
BRANCH  17  20
ATOM     20  N   UNL     1       0.362  11.710  18.514  0.00  0.00    +0.000 N 
ATOM     21  C   UNL     1       0.976  12.974  18.627  0.00  0.00    +0.000 A 
ATOM     22  N   UNL     1       0.227  14.028  18.819  0.00  0.00    +0.000 NA
ATOM     23  C   UNL     1       1.042  15.142  18.909  0.00  0.00    +0.000 A 
ATOM     24  C   UNL     1       2.381  14.924  18.657  0.00  0.00    +0.000 A 
ATOM     25  S   UNL     1       2.642  13.254  18.365  0.00  0.00    +0.000 S 
ATOM     26  H   UNL     1      -0.639  11.840  18.364  0.00  0.00    +0.000 HD
ENDBRANCH  17  20
ENDBRANCH   4  17
TORSDOF 7
ENDMDL
MODEL 5
REMARK VINA RESULT:      -6.8      1.788      2.108
REMARK  Name = 
REMARK  7 active torsions:
REMARK  status: ('A' for Active; 'I' for Inactive)
REMARK    1  A    between atoms: C_2  and  O_3
REMARK    2  A    between atoms: C_2  and  C_4
REMARK    3  A    between atoms: C_4  and  C_5
REMARK    4  A    between atoms: C_5  and  C_6
REMARK    5  A    between atoms: N_8  and  C_9
REMARK    6  A    between atoms: C_12  and  S_13
REMARK    7  A    between atoms: S_13  and  N_16
REMARK                            x       y       z     vdW  Elec       q    Type
REMARK                         _______ _______ _______ _____ _____    ______ ____
ROOT
ATOM      1  C   UNL     1       2.871   6.417  18.391  0.00  0.00    +0.000 A 
ATOM      2  C   UNL     1       2.586   7.728  18.004  0.00  0.00    +0.000 A 
ATOM      3  C   UNL     1       1.944   8.605  18.877  0.00  0.00    +0.000 A 
ATOM      4  C   UNL     1       1.561   8.167  20.145  0.00  0.00    +0.000 A 
ATOM      5  C   UNL     1       1.838   6.860  20.552  0.00  0.00    +0.000 A 
ATOM      6  C   UNL     1       2.482   5.983  19.666  0.00  0.00    +0.000 A 
ENDROOT
BRANCH   1   9
ATOM      7  C   UNL     1       4.731   4.866  17.803  0.00  0.00    +0.000 C 
ATOM      8  O   UNL     1       5.357   4.891  18.859  0.00  0.00    +0.000 OA
ATOM      9  N   UNL     1       3.527   5.497  17.543  0.00  0.00    +0.000 N 
ATOM     10  H   UNL     1       2.998   5.166  16.734  0.00  0.00    +0.000 HD
BRANCH   7  11
ATOM     11  C   UNL     1       5.233   4.008  16.661  0.00  0.00    +0.000 C 
BRANCH  11  12
ATOM     12  C   UNL     1       5.592   4.876  15.463  0.00  0.00    +0.000 C 
BRANCH  12  14
ATOM     13  O   UNL     1       7.626   5.389  14.268  0.00  0.00    +0.000 OA
ATOM     14  C   UNL     1       7.086   4.947  15.274  0.00  0.00    +0.000 C 
BRANCH  14  15
ATOM     15  O   UNL     1       7.783   4.479  16.326  0.00  0.00    +0.000 OA
ATOM     16  H   UNL     1       7.703   5.016  17.137  0.00  0.00    +0.000 HD
ENDBRANCH  14  15
ENDBRANCH  12  14
ENDBRANCH  11  12
ENDBRANCH   7  11
ENDBRANCH   1   9
BRANCH   4  17
ATOM     17  S   UNL     1       0.816   9.331  21.259  0.00  0.00    +0.000 S 
ATOM     18  O   UNL     1      -0.588   8.988  21.370  0.00  0.00    +0.000 OA
ATOM     19  O   UNL     1       1.663   9.422  22.430  0.00  0.00    +0.000 OA
BRANCH  17  20
ATOM     20  N   UNL     1       0.867  10.761  20.347  0.00  0.00    +0.000 N 
ATOM     21  C   UNL     1      -0.416  11.310  20.149  0.00  0.00    +0.000 A 
ATOM     22  N   UNL     1      -1.008  11.139  18.995  0.00  0.00    +0.000 NA
ATOM     23  C   UNL     1      -2.248  11.750  19.038  0.00  0.00    +0.000 A 
ATOM     24  C   UNL     1      -2.518  12.476  20.178  0.00  0.00    +0.000 A 
ATOM     25  S   UNL     1      -1.201  12.336  21.269  0.00  0.00    +0.000 S 
ATOM     26  H   UNL     1       1.257  10.495  19.443  0.00  0.00    +0.000 HD
ENDBRANCH  17  20
ENDBRANCH   4  17
TORSDOF 7
ENDMDL
MODEL 6
REMARK VINA RESULT:      -6.7      1.810      2.387
REMARK  Name = 
REMARK  7 active torsions:
REMARK  status: ('A' for Active; 'I' for Inactive)
REMARK    1  A    between atoms: C_2  and  O_3
REMARK    2  A    between atoms: C_2  and  C_4
REMARK    3  A    between atoms: C_4  and  C_5
REMARK    4  A    between atoms: C_5  and  C_6
REMARK    5  A    between atoms: N_8  and  C_9
REMARK    6  A    between atoms: C_12  and  S_13
REMARK    7  A    between atoms: S_13  and  N_16
REMARK                            x       y       z     vdW  Elec       q    Type
REMARK                         _______ _______ _______ _____ _____    ______ ____
ROOT
ATOM      1  C   UNL     1       3.060   6.887  18.282  0.00  0.00    +0.000 A 
ATOM      2  C   UNL     1       2.715   6.501  19.579  0.00  0.00    +0.000 A 
ATOM      3  C   UNL     1       1.905   7.310  20.373  0.00  0.00    +0.000 A 
ATOM      4  C   UNL     1       1.448   8.533  19.880  0.00  0.00    +0.000 A 
ATOM      5  C   UNL     1       1.780   8.938  18.585  0.00  0.00    +0.000 A 
ATOM      6  C   UNL     1       2.597   8.118  17.793  0.00  0.00    +0.000 A 
ENDROOT
BRANCH   1   9
ATOM      7  C   UNL     1       3.759   4.727  17.256  0.00  0.00    +0.000 C 
ATOM      8  O   UNL     1       2.864   4.002  17.680  0.00  0.00    +0.000 OA
ATOM      9  N   UNL     1       3.869   6.094  17.439  0.00  0.00    +0.000 N 
ATOM     10  H   UNL     1       4.497   6.595  16.807  0.00  0.00    +0.000 HD
BRANCH   7  11
ATOM     11  C   UNL     1       4.832   4.140  16.364  0.00  0.00    +0.000 C 
BRANCH  11  12
ATOM     12  C   UNL     1       5.504   5.236  15.549  0.00  0.00    +0.000 C 
BRANCH  12  14
ATOM     13  O   UNL     1       7.726   5.399  14.618  0.00  0.00    +0.000 OA
ATOM     14  C   UNL     1       7.003   5.071  15.550  0.00  0.00    +0.000 C 
BRANCH  14  15
ATOM     15  O   UNL     1       7.483   4.525  16.683  0.00  0.00    +0.000 OA
ATOM     16  H   UNL     1       7.049   4.839  17.500  0.00  0.00    +0.000 HD
ENDBRANCH  14  15
ENDBRANCH  12  14
ENDBRANCH  11  12
ENDBRANCH   7  11
ENDBRANCH   1   9
BRANCH   4  17
ATOM     17  S   UNL     1       0.356   9.503  20.888  0.00  0.00    +0.000 S 
ATOM     18  O   UNL     1      -0.401   8.584  21.715  0.00  0.00    +0.000 OA
ATOM     19  O   UNL     1       1.134  10.575  21.473  0.00  0.00    +0.000 OA
BRANCH  17  20
ATOM     20  N   UNL     1      -0.742  10.093  19.736  0.00  0.00    +0.000 N 
ATOM     21  C   UNL     1      -0.802  11.502  19.733  0.00  0.00    +0.000 A 
ATOM     22  N   UNL     1      -1.809  12.094  20.321  0.00  0.00    +0.000 NA
ATOM     23  C   UNL     1      -1.650  13.463  20.201  0.00  0.00    +0.000 A 
ATOM     24  C   UNL     1      -0.593  13.875  19.417  0.00  0.00    +0.000 A 
ATOM     25  S   UNL     1       0.277  12.503  18.865  0.00  0.00    +0.000 S 
ATOM     26  H   UNL     1      -1.652   9.722  20.012  0.00  0.00    +0.000 HD
ENDBRANCH  17  20
ENDBRANCH   4  17
TORSDOF 7
ENDMDL
MODEL 7
REMARK VINA RESULT:      -6.7      2.198      3.067
REMARK  Name = 
REMARK  7 active torsions:
REMARK  status: ('A' for Active; 'I' for Inactive)
REMARK    1  A    between atoms: C_2  and  O_3
REMARK    2  A    between atoms: C_2  and  C_4
REMARK    3  A    between atoms: C_4  and  C_5
REMARK    4  A    between atoms: C_5  and  C_6
REMARK    5  A    between atoms: N_8  and  C_9
REMARK    6  A    between atoms: C_12  and  S_13
REMARK    7  A    between atoms: S_13  and  N_16
REMARK                            x       y       z     vdW  Elec       q    Type
REMARK                         _______ _______ _______ _____ _____    ______ ____
ROOT
ATOM      1  C   UNL     1       2.611   6.918  18.635  0.00  0.00    +0.000 A 
ATOM      2  C   UNL     1       2.100   7.067  19.926  0.00  0.00    +0.000 A 
ATOM      3  C   UNL     1       1.476   8.251  20.314  0.00  0.00    +0.000 A 
ATOM      4  C   UNL     1       1.377   9.312  19.413  0.00  0.00    +0.000 A 
ATOM      5  C   UNL     1       1.880   9.183  18.116  0.00  0.00    +0.000 A 
ATOM      6  C   UNL     1       2.509   7.989  17.735  0.00  0.00    +0.000 A 
ENDROOT
BRANCH   1   9
ATOM      7  C   UNL     1       4.438   5.225  18.672  0.00  0.00    +0.000 C 
ATOM      8  O   UNL     1       5.076   5.635  19.637  0.00  0.00    +0.000 OA
ATOM      9  N   UNL     1       3.243   5.733  18.196  0.00  0.00    +0.000 N 
ATOM     10  H   UNL     1       2.699   5.130  17.576  0.00  0.00    +0.000 HD
BRANCH   7  11
ATOM     11  C   UNL     1       4.913   3.988  17.939  0.00  0.00    +0.000 C 
BRANCH  11  12
ATOM     12  C   UNL     1       5.510   4.367  16.591  0.00  0.00    +0.000 C 
BRANCH  12  14
ATOM     13  O   UNL     1       7.714   4.900  15.759  0.00  0.00    +0.000 OA
ATOM     14  C   UNL     1       7.007   4.524  16.686  0.00  0.00    +0.000 C 
BRANCH  14  15
ATOM     15  O   UNL     1       7.504   4.212  17.897  0.00  0.00    +0.000 OA
ATOM     16  H   UNL     1       6.962   3.578  18.406  0.00  0.00    +0.000 HD
ENDBRANCH  14  15
ENDBRANCH  12  14
ENDBRANCH  11  12
ENDBRANCH   7  11
ENDBRANCH   1   9
BRANCH   4  17
ATOM     17  S   UNL     1       0.508  10.776  19.914  0.00  0.00    +0.000 S 
ATOM     18  O   UNL     1      -0.864  10.394  20.189  0.00  0.00    +0.000 OA
ATOM     19  O   UNL     1       1.316  11.447  20.910  0.00  0.00    +0.000 OA
BRANCH  17  20
ATOM     20  N   UNL     1       0.455  11.657  18.465  0.00  0.00    +0.000 N 
ATOM     21  C   UNL     1       0.997  12.951  18.610  0.00  0.00    +0.000 A 
ATOM     22  N   UNL     1       0.185  13.970  18.723  0.00  0.00    +0.000 NA
ATOM     23  C   UNL     1       0.936  15.122  18.864  0.00  0.00    +0.000 A 
ATOM     24  C   UNL     1       2.299  14.967  18.729  0.00  0.00    +0.000 A 
ATOM     25  S   UNL     1       2.664  13.308  18.486  0.00  0.00    +0.000 S 
ATOM     26  H   UNL     1      -0.535  11.737  18.229  0.00  0.00    +0.000 HD
ENDBRANCH  17  20
ENDBRANCH   4  17
TORSDOF 7
ENDMDL
MODEL 8
REMARK VINA RESULT:      -6.7      0.805      1.324
REMARK  Name = 
REMARK  7 active torsions:
REMARK  status: ('A' for Active; 'I' for Inactive)
REMARK    1  A    between atoms: C_2  and  O_3
REMARK    2  A    between atoms: C_2  and  C_4
REMARK    3  A    between atoms: C_4  and  C_5
REMARK    4  A    between atoms: C_5  and  C_6
REMARK    5  A    between atoms: N_8  and  C_9
REMARK    6  A    between atoms: C_12  and  S_13
REMARK    7  A    between atoms: S_13  and  N_16
REMARK                            x       y       z     vdW  Elec       q    Type
REMARK                         _______ _______ _______ _____ _____    ______ ____
ROOT
ATOM      1  C   UNL     1       3.115   6.877  18.437  0.00  0.00    +0.000 A 
ATOM      2  C   UNL     1       2.596   6.763  19.729  0.00  0.00    +0.000 A 
ATOM      3  C   UNL     1       1.780   7.760  20.261  0.00  0.00    +0.000 A 
ATOM      4  C   UNL     1       1.493   8.898  19.507  0.00  0.00    +0.000 A 
ATOM      5  C   UNL     1       2.000   9.032  18.212  0.00  0.00    +0.000 A 
ATOM      6  C   UNL     1       2.822   8.024  17.685  0.00  0.00    +0.000 A 
ENDROOT
BRANCH   1   9
ATOM      7  C   UNL     1       3.537   4.621  17.469  0.00  0.00    +0.000 C 
ATOM      8  O   UNL     1       2.387   4.194  17.440  0.00  0.00    +0.000 OA
ATOM      9  N   UNL     1       3.937   5.888  17.855  0.00  0.00    +0.000 N 
ATOM     10  H   UNL     1       4.872   6.184  17.567  0.00  0.00    +0.000 HD
BRANCH   7  11
ATOM     11  C   UNL     1       4.667   3.748  16.965  0.00  0.00    +0.000 C 
BRANCH  11  12
ATOM     12  C   UNL     1       5.288   4.354  15.714  0.00  0.00    +0.000 C 
BRANCH  12  14
ATOM     13  O   UNL     1       7.677   4.428  16.055  0.00  0.00    +0.000 OA
ATOM     14  C   UNL     1       6.604   5.018  16.029  0.00  0.00    +0.000 C 
BRANCH  14  15
ATOM     15  O   UNL     1       6.495   6.336  16.282  0.00  0.00    +0.000 OA
ATOM     16  H   UNL     1       7.180   6.888  15.858  0.00  0.00    +0.000 HD
ENDBRANCH  14  15
ENDBRANCH  12  14
ENDBRANCH  11  12
ENDBRANCH   7  11
ENDBRANCH   1   9
BRANCH   4  17
ATOM     17  S   UNL     1       0.388  10.111  20.184  0.00  0.00    +0.000 S 
ATOM     18  O   UNL     1      -0.851   9.433  20.514  0.00  0.00    +0.000 OA
ATOM     19  O   UNL     1       1.121  10.865  21.180  0.00  0.00    +0.000 OA
BRANCH  17  20
ATOM     20  N   UNL     1       0.041  11.060  18.821  0.00  0.00    +0.000 N 
ATOM     21  C   UNL     1      -1.313  10.967  18.440  0.00  0.00    +0.000 A 
ATOM     22  N   UNL     1      -1.634  10.210  17.423  0.00  0.00    +0.000 NA
ATOM     23  C   UNL     1      -3.005  10.266  17.245  0.00  0.00    +0.000 A 
ATOM     24  C   UNL     1      -3.676  11.161  18.050  0.00  0.00    +0.000 A 
ATOM     25  S   UNL     1      -2.564  11.913  19.119  0.00  0.00    +0.000 S 
ATOM     26  H   UNL     1       0.624  10.686  18.072  0.00  0.00    +0.000 HD
ENDBRANCH  17  20
ENDBRANCH   4  17
TORSDOF 7
ENDMDL
MODEL 9
REMARK VINA RESULT:      -6.7      2.124      3.038
REMARK  Name = 
REMARK  7 active torsions:
REMARK  status: ('A' for Active; 'I' for Inactive)
REMARK    1  A    between atoms: C_2  and  O_3
REMARK    2  A    between atoms: C_2  and  C_4
REMARK    3  A    between atoms: C_4  and  C_5
REMARK    4  A    between atoms: C_5  and  C_6
REMARK    5  A    between atoms: N_8  and  C_9
REMARK    6  A    between atoms: C_12  and  S_13
REMARK    7  A    between atoms: S_13  and  N_16
REMARK                            x       y       z     vdW  Elec       q    Type
REMARK                         _______ _______ _______ _____ _____    ______ ____
ROOT
ATOM      1  C   UNL     1       2.626   7.465  18.727  0.00  0.00    +0.000 A 
ATOM      2  C   UNL     1       2.018   7.639  19.972  0.00  0.00    +0.000 A 
ATOM      3  C   UNL     1       1.177   8.725  20.209  0.00  0.00    +0.000 A 
ATOM      4  C   UNL     1       0.954   9.664  19.202  0.00  0.00    +0.000 A 
ATOM      5  C   UNL     1       1.551   9.508  17.949  0.00  0.00    +0.000 A 
ATOM      6  C   UNL     1       2.398   8.413  17.719  0.00  0.00    +0.000 A 
ENDROOT
BRANCH   1   9
ATOM      7  C   UNL     1       3.076   5.117  18.024  0.00  0.00    +0.000 C 
ATOM      8  O   UNL     1       1.940   4.778  17.707  0.00  0.00    +0.000 OA
ATOM      9  N   UNL     1       3.477   6.375  18.439  0.00  0.00    +0.000 N 
ATOM     10  H   UNL     1       4.478   6.577  18.399  0.00  0.00    +0.000 HD
BRANCH   7  11
ATOM     11  C   UNL     1       4.213   4.126  17.889  0.00  0.00    +0.000 C 
BRANCH  11  12
ATOM     12  C   UNL     1       5.460   4.818  17.357  0.00  0.00    +0.000 C 
BRANCH  12  14
ATOM     13  O   UNL     1       7.728   4.405  18.077  0.00  0.00    +0.000 OA
ATOM     14  C   UNL     1       6.586   4.748  18.357  0.00  0.00    +0.000 C 
BRANCH  14  15
ATOM     15  O   UNL     1       6.221   5.102  19.604  0.00  0.00    +0.000 OA
ATOM     16  H   UNL     1       6.909   4.962  20.283  0.00  0.00    +0.000 HD
ENDBRANCH  14  15
ENDBRANCH  12  14
ENDBRANCH  11  12
ENDBRANCH   7  11
ENDBRANCH   1   9
BRANCH   4  17
ATOM     17  S   UNL     1      -0.182  10.992  19.512  0.00  0.00    +0.000 S 
ATOM     18  O   UNL     1      -1.523  10.464  19.343  0.00  0.00    +0.000 OA
ATOM     19  O   UNL     1       0.221  11.636  20.745  0.00  0.00    +0.000 OA
BRANCH  17  20
ATOM     20  N   UNL     1       0.087  11.996  18.172  0.00  0.00    +0.000 N 
ATOM     21  C   UNL     1       0.786  13.170  18.520  0.00  0.00    +0.000 A 
ATOM     22  N   UNL     1       0.122  14.290  18.645  0.00  0.00    +0.000 NA
ATOM     23  C   UNL     1       1.006  15.293  18.999  0.00  0.00    +0.000 A 
ATOM     24  C   UNL     1       2.338  14.938  19.012  0.00  0.00    +0.000 A 
ATOM     25  S   UNL     1       2.488  13.271  18.635  0.00  0.00    +0.000 S 
ATOM     26  H   UNL     1      -0.840  12.251  17.830  0.00  0.00    +0.000 HD
ENDBRANCH  17  20
ENDBRANCH   4  17
TORSDOF 7
ENDMDL
