MODEL 1
REMARK VINA RESULT:      -9.7      0.000      0.000
REMARK  Name = 
REMARK  5 active torsions:
REMARK  status: ('A' for Active; 'I' for Inactive)
REMARK    1  A    between atoms: N_3  and  C_4
REMARK    2  A    between atoms: C_4  and  C_5
REMARK    3  A    between atoms: C_5  and  C_6
REMARK    4  A    between atoms: C_6  and  C_7
REMARK    5  A    between atoms: C_7  and  N_8
REMARK                            x       y       z     vdW  Elec       q    Type
REMARK                         _______ _______ _______ _____ _____    ______ ____
ROOT
ATOM      1  O   UNL     1       7.951  13.116  17.249  0.00  0.00    +0.000 OA
ATOM      2  C   UNL     1       9.042  12.998  17.782  0.00  0.00    +0.000 C 
ATOM      3  N   UNL     1       9.646  11.796  17.956  0.00  0.00    +0.000 N 
ATOM      4  C   UNL     1      10.836  12.127  18.586  0.00  0.00    +0.000 C 
ATOM      5  O   UNL     1      11.809  11.396  18.601  0.00  0.00    +0.000 OA
ATOM      6  C   UNL     1      10.809  13.465  19.400  0.00  0.00    +0.000 C 
ATOM      7  C   UNL     1      10.465  13.258  20.986  0.00  0.00    +0.000 C 
ATOM      8  C   UNL     1       9.761  14.309  21.910  0.00  0.00    +0.000 C 
ATOM      9  C   UNL     1       8.556  14.748  21.090  0.00  0.00    +0.000 C 
ATOM     10  C   UNL     1       8.546  13.691  20.008  0.00  0.00    +0.000 C 
ATOM     11  C   UNL     1       9.230  12.499  20.805  0.00  0.00    +0.000 C 
ATOM     12  C   UNL     1       9.543  13.997  18.797  0.00  0.00    +0.000 C 
ATOM     13  C   UNL     1      10.050  15.378  18.188  0.00  0.00    +0.000 C 
ATOM     14  C   UNL     1      11.048  15.194  16.984  0.00  0.00    +0.000 C 
ATOM     15  C   UNL     1      12.287  14.560  17.625  0.00  0.00    +0.000 C 
ATOM     16  C   UNL     1      11.900  14.544  19.109  0.00  0.00    +0.000 C 
ATOM     17  C   UNL     1      11.090  15.835  19.217  0.00  0.00    +0.000 C 
ENDROOT
BRANCH   3  18
ATOM     18  C   UNL     1       8.691  10.766  18.537  0.00  0.00    +0.000 C 
BRANCH  18  19
ATOM     19  C   UNL     1       8.791   9.256  18.614  0.00  0.00    +0.000 C 
BRANCH  19  20
ATOM     20  C   UNL     1       7.925   8.570  17.574  0.00  0.00    +0.000 C 
BRANCH  20  21
ATOM     21  C   UNL     1       7.554   7.097  17.878  0.00  0.00    +0.000 C 
BRANCH  21  22
ATOM     22  N   UNL     1       7.050   6.281  16.748  0.00  0.00    +0.000 NA
ATOM     23  C   UNL     1       7.059   4.838  17.037  0.00  0.00    +0.000 C 
ATOM     24  C   UNL     1       6.185   4.532  18.252  0.00  0.00    +0.000 C 
ATOM     25  N   UNL     1       4.836   5.005  17.987  0.00  0.00    +0.000 N 
ATOM     26  C   UNL     1       3.728   4.157  18.114  0.00  0.00    +0.000 A 
ATOM     27  N   UNL     1       3.926   2.873  18.551  0.00  0.00    +0.000 NA
ATOM     28  C   UNL     1       2.902   2.032  18.734  0.00  0.00    +0.000 A 
ATOM     29  C   UNL     1       1.593   2.462  18.491  0.00  0.00    +0.000 A 
ATOM     30  C   UNL     1       1.387   3.774  18.047  0.00  0.00    +0.000 A 
ATOM     31  N   UNL     1       2.467   4.579  17.876  0.00  0.00    +0.000 NA
ATOM     32  C   UNL     1       4.677   6.412  17.527  0.00  0.00    +0.000 C 
ATOM     33  C   UNL     1       5.664   6.695  16.374  0.00  0.00    +0.000 C 
ENDBRANCH  21  22
ENDBRANCH  20  21
ENDBRANCH  19  20
ENDBRANCH  18  19
ENDBRANCH   3  18
TORSDOF 5
ENDMDL
MODEL 2
REMARK VINA RESULT:      -9.4      0.866      1.013
REMARK  Name = 
REMARK  5 active torsions:
REMARK  status: ('A' for Active; 'I' for Inactive)
REMARK    1  A    between atoms: N_3  and  C_4
REMARK    2  A    between atoms: C_4  and  C_5
REMARK    3  A    between atoms: C_5  and  C_6
REMARK    4  A    between atoms: C_6  and  C_7
REMARK    5  A    between atoms: C_7  and  N_8
REMARK                            x       y       z     vdW  Elec       q    Type
REMARK                         _______ _______ _______ _____ _____    ______ ____
ROOT
ATOM      1  O   UNL     1       8.106  12.745  17.217  0.00  0.00    +0.000 OA
ATOM      2  C   UNL     1       9.186  12.719  17.785  0.00  0.00    +0.000 C 
ATOM      3  N   UNL     1       9.858  11.567  18.029  0.00  0.00    +0.000 N 
ATOM      4  C   UNL     1      11.005  12.000  18.676  0.00  0.00    +0.000 C 
ATOM      5  O   UNL     1      12.021  11.333  18.751  0.00  0.00    +0.000 OA
ATOM      6  C   UNL     1      10.870  13.367  19.428  0.00  0.00    +0.000 C 
ATOM      7  C   UNL     1      10.493  13.208  21.011  0.00  0.00    +0.000 C 
ATOM      8  C   UNL     1       9.696  14.250  21.868  0.00  0.00    +0.000 C 
ATOM      9  C   UNL     1       8.492  14.576  20.996  0.00  0.00    +0.000 C 
ATOM     10  C   UNL     1       8.581  13.475  19.963  0.00  0.00    +0.000 C 
ATOM     11  C   UNL     1       9.313  12.364  20.831  0.00  0.00    +0.000 C 
ATOM     12  C   UNL     1       9.593  13.791  18.767  0.00  0.00    +0.000 C 
ATOM     13  C   UNL     1      10.030  15.174  18.110  0.00  0.00    +0.000 C 
ATOM     14  C   UNL     1      11.074  15.002  16.944  0.00  0.00    +0.000 C 
ATOM     15  C   UNL     1      12.330  14.476  17.646  0.00  0.00    +0.000 C 
ATOM     16  C   UNL     1      11.900  14.500  19.119  0.00  0.00    +0.000 C 
ATOM     17  C   UNL     1      11.008  15.740  19.146  0.00  0.00    +0.000 C 
ENDROOT
BRANCH   3  18
ATOM     18  C   UNL     1       8.952  10.504  18.630  0.00  0.00    +0.000 C 
BRANCH  18  19
ATOM     19  C   UNL     1       7.954   9.569  17.978  0.00  0.00    +0.000 C 
BRANCH  19  20
ATOM     20  C   UNL     1       8.411   8.123  18.018  0.00  0.00    +0.000 C 
BRANCH  20  21
ATOM     21  C   UNL     1       7.377   7.081  17.523  0.00  0.00    +0.000 C 
BRANCH  21  22
ATOM     22  N   UNL     1       7.659   5.656  17.821  0.00  0.00    +0.000 NA
ATOM     23  C   UNL     1       7.175   5.243  19.148  0.00  0.00    +0.000 C 
ATOM     24  C   UNL     1       5.663   5.444  19.249  0.00  0.00    +0.000 C 
ATOM     25  N   UNL     1       5.019   4.679  18.194  0.00  0.00    +0.000 N 
ATOM     26  C   UNL     1       4.002   3.760  18.478  0.00  0.00    +0.000 A 
ATOM     27  N   UNL     1       3.573   3.626  19.774  0.00  0.00    +0.000 NA
ATOM     28  C   UNL     1       2.575   2.796  20.098  0.00  0.00    +0.000 A 
ATOM     29  C   UNL     1       1.934   2.052  19.103  0.00  0.00    +0.000 A 
ATOM     30  C   UNL     1       2.367   2.187  17.777  0.00  0.00    +0.000 A 
ATOM     31  N   UNL     1       3.388   3.042  17.511  0.00  0.00    +0.000 NA
ATOM     32  C   UNL     1       5.515   4.871  16.803  0.00  0.00    +0.000 C 
ATOM     33  C   UNL     1       7.055   4.769  16.783  0.00  0.00    +0.000 C 
ENDBRANCH  21  22
ENDBRANCH  20  21
ENDBRANCH  19  20
ENDBRANCH  18  19
ENDBRANCH   3  18
TORSDOF 5
ENDMDL
MODEL 3
REMARK VINA RESULT:      -8.9      2.512     10.981
REMARK  Name = 
REMARK  5 active torsions:
REMARK  status: ('A' for Active; 'I' for Inactive)
REMARK    1  A    between atoms: N_3  and  C_4
REMARK    2  A    between atoms: C_4  and  C_5
REMARK    3  A    between atoms: C_5  and  C_6
REMARK    4  A    between atoms: C_6  and  C_7
REMARK    5  A    between atoms: C_7  and  N_8
REMARK                            x       y       z     vdW  Elec       q    Type
REMARK                         _______ _______ _______ _____ _____    ______ ____
ROOT
ATOM      1  O   UNL     1       4.653   7.862  17.301  0.00  0.00    +0.000 OA
ATOM      2  C   UNL     1       5.140   6.801  17.659  0.00  0.00    +0.000 C 
ATOM      3  N   UNL     1       6.351   6.718  18.263  0.00  0.00    +0.000 N 
ATOM      4  C   UNL     1       6.500   5.358  18.488  0.00  0.00    +0.000 C 
ATOM      5  O   UNL     1       7.272   4.899  19.310  0.00  0.00    +0.000 OA
ATOM      6  C   UNL     1       5.697   4.429  17.516  0.00  0.00    +0.000 C 
ATOM      7  C   UNL     1       6.567   3.927  16.225  0.00  0.00    +0.000 C 
ATOM      8  C   UNL     1       5.982   3.562  14.818  0.00  0.00    +0.000 C 
ATOM      9  C   UNL     1       5.067   4.736  14.501  0.00  0.00    +0.000 C 
ATOM     10  C   UNL     1       5.495   5.726  15.562  0.00  0.00    +0.000 C 
ATOM     11  C   UNL     1       6.996   5.248  15.771  0.00  0.00    +0.000 C 
ATOM     12  C   UNL     1       4.794   5.499  16.979  0.00  0.00    +0.000 C 
ATOM     13  C   UNL     1       3.363   4.906  17.350  0.00  0.00    +0.000 C 
ATOM     14  C   UNL     1       3.094   4.863  18.901  0.00  0.00    +0.000 C 
ATOM     15  C   UNL     1       4.102   3.834  19.423  0.00  0.00    +0.000 C 
ATOM     16  C   UNL     1       4.753   3.344  18.122  0.00  0.00    +0.000 C 
ATOM     17  C   UNL     1       3.567   3.399  17.160  0.00  0.00    +0.000 C 
ENDROOT
BRANCH   3  18
ATOM     18  C   UNL     1       7.405   7.528  17.523  0.00  0.00    +0.000 C 
BRANCH  18  19
ATOM     19  C   UNL     1       7.828   8.975  17.675  0.00  0.00    +0.000 C 
BRANCH  19  20
ATOM     20  C   UNL     1       8.864   9.158  18.767  0.00  0.00    +0.000 C 
BRANCH  20  21
ATOM     21  C   UNL     1       9.178  10.626  19.152  0.00  0.00    +0.000 C 
BRANCH  21  22
ATOM     22  N   UNL     1      10.588  11.068  19.033  0.00  0.00    +0.000 NA
ATOM     23  C   UNL     1      10.870  11.740  17.755  0.00  0.00    +0.000 C 
ATOM     24  C   UNL     1       9.986  12.976  17.596  0.00  0.00    +0.000 C 
ATOM     25  N   UNL     1      10.222  13.866  18.720  0.00  0.00    +0.000 N 
ATOM     26  C   UNL     1      10.570  15.209  18.526  0.00  0.00    +0.000 A 
ATOM     27  N   UNL     1      10.632  15.697  17.246  0.00  0.00    +0.000 NA
ATOM     28  C   UNL     1      10.916  16.981  17.001  0.00  0.00    +0.000 A 
ATOM     29  C   UNL     1      11.142  17.862  18.063  0.00  0.00    +0.000 A 
ATOM     30  C   UNL     1      11.078  17.368  19.372  0.00  0.00    +0.000 A 
ATOM     31  N   UNL     1      10.790  16.054  19.557  0.00  0.00    +0.000 NA
ATOM     32  C   UNL     1      10.130  13.288  20.090  0.00  0.00    +0.000 C 
ATOM     33  C   UNL     1      10.952  11.983  20.157  0.00  0.00    +0.000 C 
ENDBRANCH  21  22
ENDBRANCH  20  21
ENDBRANCH  19  20
ENDBRANCH  18  19
ENDBRANCH   3  18
TORSDOF 5
ENDMDL
MODEL 4
REMARK VINA RESULT:      -8.9      1.360      2.707
REMARK  Name = 
REMARK  5 active torsions:
REMARK  status: ('A' for Active; 'I' for Inactive)
REMARK    1  A    between atoms: N_3  and  C_4
REMARK    2  A    between atoms: C_4  and  C_5
REMARK    3  A    between atoms: C_5  and  C_6
REMARK    4  A    between atoms: C_6  and  C_7
REMARK    5  A    between atoms: C_7  and  N_8
REMARK                            x       y       z     vdW  Elec       q    Type
REMARK                         _______ _______ _______ _____ _____    ______ ____
ROOT
ATOM      1  O   UNL     1       9.154  11.443  20.892  0.00  0.00    +0.000 OA
ATOM      2  C   UNL     1       8.925  12.051  19.859  0.00  0.00    +0.000 C 
ATOM      3  N   UNL     1       8.291  11.485  18.802  0.00  0.00    +0.000 N 
ATOM      4  C   UNL     1       8.246  12.513  17.872  0.00  0.00    +0.000 C 
ATOM      5  O   UNL     1       7.465  12.535  16.940  0.00  0.00    +0.000 OA
ATOM      6  C   UNL     1       9.366  13.598  18.024  0.00  0.00    +0.000 C 
ATOM      7  C   UNL     1      10.678  13.317  17.088  0.00  0.00    +0.000 C 
ATOM      8  C   UNL     1      12.143  13.767  17.415  0.00  0.00    +0.000 C 
ATOM      9  C   UNL     1      12.333  13.325  18.860  0.00  0.00    +0.000 C 
ATOM     10  C   UNL     1      11.133  12.424  19.043  0.00  0.00    +0.000 C 
ATOM     11  C   UNL     1      10.932  11.951  17.539  0.00  0.00    +0.000 C 
ATOM     12  C   UNL     1       9.787  13.204  19.408  0.00  0.00    +0.000 C 
ATOM     13  C   UNL     1       9.555  14.567  20.198  0.00  0.00    +0.000 C 
ATOM     14  C   UNL     1       8.036  14.964  20.315  0.00  0.00    +0.000 C 
ATOM     15  C   UNL     1       7.620  15.263  18.871  0.00  0.00    +0.000 C 
ATOM     16  C   UNL     1       8.949  15.100  18.121  0.00  0.00    +0.000 C 
ATOM     17  C   UNL     1       9.940  15.625  19.158  0.00  0.00    +0.000 C 
ENDROOT
BRANCH   3  18
ATOM     18  C   UNL     1       8.873  10.122  18.461  0.00  0.00    +0.000 C 
BRANCH  18  19
ATOM     19  C   UNL     1       8.440   9.088  17.442  0.00  0.00    +0.000 C 
BRANCH  19  20
ATOM     20  C   UNL     1       7.917   7.823  18.095  0.00  0.00    +0.000 C 
BRANCH  20  21
ATOM     21  C   UNL     1       7.361   6.750  17.125  0.00  0.00    +0.000 C 
BRANCH  21  22
ATOM     22  N   UNL     1       7.596   5.330  17.482  0.00  0.00    +0.000 NA
ATOM     23  C   UNL     1       7.193   5.015  18.861  0.00  0.00    +0.000 C 
ATOM     24  C   UNL     1       5.705   5.299  19.060  0.00  0.00    +0.000 C 
ATOM     25  N   UNL     1       4.948   4.513  18.099  0.00  0.00    +0.000 N 
ATOM     26  C   UNL     1       3.911   3.665  18.507  0.00  0.00    +0.000 A 
ATOM     27  N   UNL     1       3.575   3.623  19.836  0.00  0.00    +0.000 NA
ATOM     28  C   UNL     1       2.566   2.864  20.278  0.00  0.00    +0.000 A 
ATOM     29  C   UNL     1       1.817   2.103  19.376  0.00  0.00    +0.000 A 
ATOM     30  C   UNL     1       2.155   2.144  18.017  0.00  0.00    +0.000 A 
ATOM     31  N   UNL     1       3.193   2.930  17.630  0.00  0.00    +0.000 NA
ATOM     32  C   UNL     1       5.346   4.605  16.667  0.00  0.00    +0.000 C 
ATOM     33  C   UNL     1       6.874   4.422  16.542  0.00  0.00    +0.000 C 
ENDBRANCH  21  22
ENDBRANCH  20  21
ENDBRANCH  19  20
ENDBRANCH  18  19
ENDBRANCH   3  18
TORSDOF 5
ENDMDL
MODEL 5
REMARK VINA RESULT:      -8.3      7.472     11.408
REMARK  Name = 
REMARK  5 active torsions:
REMARK  status: ('A' for Active; 'I' for Inactive)
REMARK    1  A    between atoms: N_3  and  C_4
REMARK    2  A    between atoms: C_4  and  C_5
REMARK    3  A    between atoms: C_5  and  C_6
REMARK    4  A    between atoms: C_6  and  C_7
REMARK    5  A    between atoms: C_7  and  N_8
REMARK                            x       y       z     vdW  Elec       q    Type
REMARK                         _______ _______ _______ _____ _____    ______ ____
ROOT
ATOM      1  O   UNL     1       1.080   4.563  16.933  0.00  0.00    +0.000 OA
ATOM      2  C   UNL     1       1.762   4.547  17.945  0.00  0.00    +0.000 C 
ATOM      3  N   UNL     1       1.780   5.572  18.833  0.00  0.00    +0.000 N 
ATOM      4  C   UNL     1       2.668   5.135  19.804  0.00  0.00    +0.000 C 
ATOM      5  O   UNL     1       2.700   5.590  20.932  0.00  0.00    +0.000 OA
ATOM      6  C   UNL     1       3.730   4.093  19.315  0.00  0.00    +0.000 C 
ATOM      7  C   UNL     1       5.148   4.769  18.860  0.00  0.00    +0.000 C 
ATOM      8  C   UNL     1       6.134   4.187  17.791  0.00  0.00    +0.000 C 
ATOM      9  C   UNL     1       5.225   3.858  16.615  0.00  0.00    +0.000 C 
ATOM     10  C   UNL     1       3.959   4.578  17.023  0.00  0.00    +0.000 C 
ATOM     11  C   UNL     1       4.592   5.732  17.912  0.00  0.00    +0.000 C 
ATOM     12  C   UNL     1       3.038   3.746  18.030  0.00  0.00    +0.000 C 
ATOM     13  C   UNL     1       2.838   2.176  18.203  0.00  0.00    +0.000 C 
ATOM     14  C   UNL     1       1.820   1.805  19.346  0.00  0.00    +0.000 C 
ATOM     15  C   UNL     1       2.521   2.263  20.629  0.00  0.00    +0.000 C 
ATOM     16  C   UNL     1       3.875   2.746  20.092  0.00  0.00    +0.000 C 
ATOM     17  C   UNL     1       4.109   1.758  18.950  0.00  0.00    +0.000 C 
ENDROOT
BRANCH   3  18
ATOM     18  C   UNL     1       1.949   6.914  18.138  0.00  0.00    +0.000 C 
BRANCH  18  19
ATOM     19  C   UNL     1       2.141   8.306  18.707  0.00  0.00    +0.000 C 
BRANCH  19  20
ATOM     20  C   UNL     1       1.555   9.378  17.808  0.00  0.00    +0.000 C 
BRANCH  20  21
ATOM     21  C   UNL     1       0.410  10.218  18.428  0.00  0.00    +0.000 C 
BRANCH  21  22
ATOM     22  N   UNL     1       0.801  11.409  19.220  0.00  0.00    +0.000 NA
ATOM     23  C   UNL     1      -0.076  12.566  18.981  0.00  0.00    +0.000 C 
ATOM     24  C   UNL     1      -1.520  12.225  19.344  0.00  0.00    +0.000 C 
ATOM     25  N   UNL     1      -1.566  11.812  20.737  0.00  0.00    +0.000 N 
ATOM     26  C   UNL     1      -2.437  12.420  21.649  0.00  0.00    +0.000 A 
ATOM     27  N   UNL     1      -3.300  13.385  21.197  0.00  0.00    +0.000 NA
ATOM     28  C   UNL     1      -4.184  13.970  22.013  0.00  0.00    +0.000 A 
ATOM     29  C   UNL     1      -4.254  13.588  23.356  0.00  0.00    +0.000 A 
ATOM     30  C   UNL     1      -3.376  12.601  23.822  0.00  0.00    +0.000 A 
ATOM     31  N   UNL     1      -2.497  12.048  22.947  0.00  0.00    +0.000 NA
ATOM     32  C   UNL     1      -0.616  10.751  21.173  0.00  0.00    +0.000 C 
ATOM     33  C   UNL     1       0.806  11.094  20.681  0.00  0.00    +0.000 C 
ENDBRANCH  21  22
ENDBRANCH  20  21
ENDBRANCH  19  20
ENDBRANCH  18  19
ENDBRANCH   3  18
TORSDOF 5
ENDMDL
MODEL 6
REMARK VINA RESULT:      -8.2      2.725     10.804
REMARK  Name = 
REMARK  5 active torsions:
REMARK  status: ('A' for Active; 'I' for Inactive)
REMARK    1  A    between atoms: N_3  and  C_4
REMARK    2  A    between atoms: C_4  and  C_5
REMARK    3  A    between atoms: C_5  and  C_6
REMARK    4  A    between atoms: C_6  and  C_7
REMARK    5  A    between atoms: C_7  and  N_8
REMARK                            x       y       z     vdW  Elec       q    Type
REMARK                         _______ _______ _______ _____ _____    ______ ____
ROOT
ATOM      1  O   UNL     1       6.467   5.280  19.931  0.00  0.00    +0.000 OA
ATOM      2  C   UNL     1       5.772   5.018  18.963  0.00  0.00    +0.000 C 
ATOM      3  N   UNL     1       6.171   5.255  17.688  0.00  0.00    +0.000 N 
ATOM      4  C   UNL     1       5.096   4.814  16.932  0.00  0.00    +0.000 C 
ATOM      5  O   UNL     1       5.183   4.526  15.753  0.00  0.00    +0.000 OA
ATOM      6  C   UNL     1       3.712   4.832  17.666  0.00  0.00    +0.000 C 
ATOM      7  C   UNL     1       2.851   6.197  17.403  0.00  0.00    +0.000 C 
ATOM      8  C   UNL     1       1.811   6.824  18.394  0.00  0.00    +0.000 C 
ATOM      9  C   UNL     1       2.552   6.831  19.724  0.00  0.00    +0.000 C 
ATOM     10  C   UNL     1       3.963   6.540  19.266  0.00  0.00    +0.000 C 
ATOM     11  C   UNL     1       3.890   7.145  17.799  0.00  0.00    +0.000 C 
ATOM     12  C   UNL     1       4.266   4.986  19.052  0.00  0.00    +0.000 C 
ATOM     13  C   UNL     1       3.661   3.698  19.768  0.00  0.00    +0.000 C 
ATOM     14  C   UNL     1       4.259   2.348  19.220  0.00  0.00    +0.000 C 
ATOM     15  C   UNL     1       3.752   2.278  17.776  0.00  0.00    +0.000 C 
ATOM     16  C   UNL     1       2.860   3.524  17.696  0.00  0.00    +0.000 C 
ATOM     17  C   UNL     1       2.284   3.566  19.110  0.00  0.00    +0.000 C 
ENDROOT
BRANCH   3  18
ATOM     18  C   UNL     1       6.740   6.656  17.529  0.00  0.00    +0.000 C 
BRANCH  18  19
ATOM     19  C   UNL     1       7.915   7.331  18.208  0.00  0.00    +0.000 C 
BRANCH  19  20
ATOM     20  C   UNL     1       8.222   8.689  17.608  0.00  0.00    +0.000 C 
BRANCH  20  21
ATOM     21  C   UNL     1       8.364   9.852  18.622  0.00  0.00    +0.000 C 
BRANCH  21  22
ATOM     22  N   UNL     1       9.739  10.312  18.933  0.00  0.00    +0.000 NA
ATOM     23  C   UNL     1      10.310  11.160  17.875  0.00  0.00    +0.000 C 
ATOM     24  C   UNL     1       9.446  12.402  17.663  0.00  0.00    +0.000 C 
ATOM     25  N   UNL     1       9.351  13.125  18.920  0.00  0.00    +0.000 N 
ATOM     26  C   UNL     1       9.682  14.483  19.007  0.00  0.00    +0.000 A 
ATOM     27  N   UNL     1      10.048  15.149  17.866  0.00  0.00    +0.000 NA
ATOM     28  C   UNL     1      10.333  16.456  17.880  0.00  0.00    +0.000 A 
ATOM     29  C   UNL     1      10.245  17.177  19.075  0.00  0.00    +0.000 A 
ATOM     30  C   UNL     1       9.869  16.502  20.243  0.00  0.00    +0.000 A 
ATOM     31  N   UNL     1       9.597  15.173  20.166  0.00  0.00    +0.000 NA
ATOM     32  C   UNL     1       8.936  12.357  20.128  0.00  0.00    +0.000 C 
ATOM     33  C   UNL     1       9.767  11.059  20.226  0.00  0.00    +0.000 C 
ENDBRANCH  21  22
ENDBRANCH  20  21
ENDBRANCH  19  20
ENDBRANCH  18  19
ENDBRANCH   3  18
TORSDOF 5
ENDMDL
MODEL 7
REMARK VINA RESULT:      -8.1      6.854     11.950
REMARK  Name = 
REMARK  5 active torsions:
REMARK  status: ('A' for Active; 'I' for Inactive)
REMARK    1  A    between atoms: N_3  and  C_4
REMARK    2  A    between atoms: C_4  and  C_5
REMARK    3  A    between atoms: C_5  and  C_6
REMARK    4  A    between atoms: C_6  and  C_7
REMARK    5  A    between atoms: C_7  and  N_8
REMARK                            x       y       z     vdW  Elec       q    Type
REMARK                         _______ _______ _______ _____ _____    ______ ____
ROOT
ATOM      1  O   UNL     1       4.676   5.826  19.163  0.00  0.00    +0.000 OA
ATOM      2  C   UNL     1       3.697   5.222  18.754  0.00  0.00    +0.000 C 
ATOM      3  N   UNL     1       2.658   5.841  18.141  0.00  0.00    +0.000 N 
ATOM      4  C   UNL     1       1.793   4.796  17.852  0.00  0.00    +0.000 C 
ATOM      5  O   UNL     1       0.921   4.868  17.006  0.00  0.00    +0.000 OA
ATOM      6  C   UNL     1       1.925   3.544  18.783  0.00  0.00    +0.000 C 
ATOM      7  C   UNL     1       0.884   3.556  20.045  0.00  0.00    +0.000 C 
ATOM      8  C   UNL     1       1.131   2.878  21.436  0.00  0.00    +0.000 C 
ATOM      9  C   UNL     1       2.531   3.343  21.811  0.00  0.00    +0.000 C 
ATOM     10  C   UNL     1       2.748   4.443  20.797  0.00  0.00    +0.000 C 
ATOM     11  C   UNL     1       1.238   4.877  20.558  0.00  0.00    +0.000 C 
ATOM     12  C   UNL     1       3.251   3.920  19.373  0.00  0.00    +0.000 C 
ATOM     13  C   UNL     1       4.132   2.652  18.981  0.00  0.00    +0.000 C 
ATOM     14  C   UNL     1       4.378   2.525  17.431  0.00  0.00    +0.000 C 
ATOM     15  C   UNL     1       2.986   2.240  16.857  0.00  0.00    +0.000 C 
ATOM     16  C   UNL     1       2.136   2.141  18.131  0.00  0.00    +0.000 C 
ATOM     17  C   UNL     1       3.128   1.500  19.100  0.00  0.00    +0.000 C 
ENDROOT
BRANCH   3  18
ATOM     18  C   UNL     1       2.201   7.068  18.913  0.00  0.00    +0.000 C 
BRANCH  18  19
ATOM     19  C   UNL     1       1.884   8.473  18.441  0.00  0.00    +0.000 C 
BRANCH  19  20
ATOM     20  C   UNL     1       1.228   9.308  19.525  0.00  0.00    +0.000 C 
BRANCH  20  21
ATOM     21  C   UNL     1       0.355  10.486  19.025  0.00  0.00    +0.000 C 
BRANCH  21  22
ATOM     22  N   UNL     1      -0.248  11.365  20.057  0.00  0.00    +0.000 NA
ATOM     23  C   UNL     1       0.750  12.186  20.760  0.00  0.00    +0.000 C 
ATOM     24  C   UNL     1       1.496  13.082  19.772  0.00  0.00    +0.000 C 
ATOM     25  N   UNL     1       0.529  13.913  19.074  0.00  0.00    +0.000 N 
ATOM     26  C   UNL     1       0.659  15.307  19.037  0.00  0.00    +0.000 A 
ATOM     27  N   UNL     1       1.754  15.885  19.626  0.00  0.00    +0.000 NA
ATOM     28  C   UNL     1       1.955  17.207  19.584  0.00  0.00    +0.000 A 
ATOM     29  C   UNL     1       1.044  18.030  18.915  0.00  0.00    +0.000 A 
ATOM     30  C   UNL     1      -0.076  17.444  18.310  0.00  0.00    +0.000 A 
ATOM     31  N   UNL     1      -0.226  16.097  18.391  0.00  0.00    +0.000 NA
ATOM     32  C   UNL     1      -0.636  13.234  18.441  0.00  0.00    +0.000 C 
ATOM     33  C   UNL     1      -1.279  12.260  19.452  0.00  0.00    +0.000 C 
ENDBRANCH  21  22
ENDBRANCH  20  21
ENDBRANCH  19  20
ENDBRANCH  18  19
ENDBRANCH   3  18
TORSDOF 5
ENDMDL
MODEL 8
REMARK VINA RESULT:      -8.1      7.559     11.785
REMARK  Name = 
REMARK  5 active torsions:
REMARK  status: ('A' for Active; 'I' for Inactive)
REMARK    1  A    between atoms: N_3  and  C_4
REMARK    2  A    between atoms: C_4  and  C_5
REMARK    3  A    between atoms: C_5  and  C_6
REMARK    4  A    between atoms: C_6  and  C_7
REMARK    5  A    between atoms: C_7  and  N_8
REMARK                            x       y       z     vdW  Elec       q    Type
REMARK                         _______ _______ _______ _____ _____    ______ ____
ROOT
ATOM      1  O   UNL     1       4.642   5.870  19.107  0.00  0.00    +0.000 OA
ATOM      2  C   UNL     1       3.673   5.240  18.713  0.00  0.00    +0.000 C 
ATOM      3  N   UNL     1       2.630   5.825  18.073  0.00  0.00    +0.000 N 
ATOM      4  C   UNL     1       1.781   4.760  17.814  0.00  0.00    +0.000 C 
ATOM      5  O   UNL     1       0.913   4.792  16.960  0.00  0.00    +0.000 OA
ATOM      6  C   UNL     1       1.922   3.542  18.787  0.00  0.00    +0.000 C 
ATOM      7  C   UNL     1       0.873   3.583  20.041  0.00  0.00    +0.000 C 
ATOM      8  C   UNL     1       1.119   2.955  21.456  0.00  0.00    +0.000 C 
ATOM      9  C   UNL     1       2.511   3.450  21.824  0.00  0.00    +0.000 C 
ATOM     10  C   UNL     1       2.721   4.518  20.774  0.00  0.00    +0.000 C 
ATOM     11  C   UNL     1       1.207   4.925  20.512  0.00  0.00    +0.000 C 
ATOM     12  C   UNL     1       3.240   3.954  19.372  0.00  0.00    +0.000 C 
ATOM     13  C   UNL     1       4.138   2.685  19.029  0.00  0.00    +0.000 C 
ATOM     14  C   UNL     1       4.397   2.510  17.485  0.00  0.00    +0.000 C 
ATOM     15  C   UNL     1       3.012   2.187  16.913  0.00  0.00    +0.000 C 
ATOM     16  C   UNL     1       2.155   2.121  18.184  0.00  0.00    +0.000 C 
ATOM     17  C   UNL     1       3.149   1.525  19.179  0.00  0.00    +0.000 C 
ENDROOT
BRANCH   3  18
ATOM     18  C   UNL     1       2.153   7.072  18.800  0.00  0.00    +0.000 C 
BRANCH  18  19
ATOM     19  C   UNL     1       1.549   8.357  18.271  0.00  0.00    +0.000 C 
BRANCH  19  20
ATOM     20  C   UNL     1       1.427   9.419  19.347  0.00  0.00    +0.000 C 
BRANCH  20  21
ATOM     21  C   UNL     1       0.392  10.537  19.068  0.00  0.00    +0.000 C 
BRANCH  21  22
ATOM     22  N   UNL     1       0.569  11.818  19.795  0.00  0.00    +0.000 NA
ATOM     23  C   UNL     1      -0.469  12.808  19.467  0.00  0.00    +0.000 C 
ATOM     24  C   UNL     1      -1.854  12.267  19.818  0.00  0.00    +0.000 C 
ATOM     25  N   UNL     1      -1.878  11.931  21.232  0.00  0.00    +0.000 N 
ATOM     26  C   UNL     1      -2.860  12.447  22.087  0.00  0.00    +0.000 A 
ATOM     27  N   UNL     1      -3.847  13.238  21.558  0.00  0.00    +0.000 NA
ATOM     28  C   UNL     1      -4.837  13.723  22.317  0.00  0.00    +0.000 A 
ATOM     29  C   UNL     1      -4.888  13.411  23.680  0.00  0.00    +0.000 A 
ATOM     30  C   UNL     1      -3.883  12.601  24.224  0.00  0.00    +0.000 A 
ATOM     31  N   UNL     1      -2.903  12.144  23.403  0.00  0.00    +0.000 NA
ATOM     32  C   UNL     1      -0.790  11.058  21.752  0.00  0.00    +0.000 C 
ATOM     33  C   UNL     1       0.577  11.591  21.271  0.00  0.00    +0.000 C 
ENDBRANCH  21  22
ENDBRANCH  20  21
ENDBRANCH  19  20
ENDBRANCH  18  19
ENDBRANCH   3  18
TORSDOF 5
ENDMDL
MODEL 9
REMARK VINA RESULT:      -8.1      7.572     11.693
REMARK  Name = 
REMARK  5 active torsions:
REMARK  status: ('A' for Active; 'I' for Inactive)
REMARK    1  A    between atoms: N_3  and  C_4
REMARK    2  A    between atoms: C_4  and  C_5
REMARK    3  A    between atoms: C_5  and  C_6
REMARK    4  A    between atoms: C_6  and  C_7
REMARK    5  A    between atoms: C_7  and  N_8
REMARK                            x       y       z     vdW  Elec       q    Type
REMARK                         _______ _______ _______ _____ _____    ______ ____
ROOT
ATOM      1  O   UNL     1       4.491   6.114  19.093  0.00  0.00    +0.000 OA
ATOM      2  C   UNL     1       3.572   5.413  18.701  0.00  0.00    +0.000 C 
ATOM      3  N   UNL     1       2.497   5.915  18.045  0.00  0.00    +0.000 N 
ATOM      4  C   UNL     1       1.725   4.791  17.795  0.00  0.00    +0.000 C 
ATOM      5  O   UNL     1       0.865   4.750  16.935  0.00  0.00    +0.000 OA
ATOM      6  C   UNL     1       1.941   3.600  18.789  0.00  0.00    +0.000 C 
ATOM      7  C   UNL     1       0.881   3.587  20.034  0.00  0.00    +0.000 C 
ATOM      8  C   UNL     1       1.156   2.999  21.460  0.00  0.00    +0.000 C 
ATOM      9  C   UNL     1       2.508   3.594  21.831  0.00  0.00    +0.000 C 
ATOM     10  C   UNL     1       2.653   4.658  20.767  0.00  0.00    +0.000 C 
ATOM     11  C   UNL     1       1.117   4.956  20.486  0.00  0.00    +0.000 C 
ATOM     12  C   UNL     1       3.222   4.110  19.378  0.00  0.00    +0.000 C 
ATOM     13  C   UNL     1       4.209   2.901  19.061  0.00  0.00    +0.000 C 
ATOM     14  C   UNL     1       4.492   2.721  17.523  0.00  0.00    +0.000 C 
ATOM     15  C   UNL     1       3.139   2.295  16.944  0.00  0.00    +0.000 C 
ATOM     16  C   UNL     1       2.277   2.189  18.209  0.00  0.00    +0.000 C 
ATOM     17  C   UNL     1       3.300   1.678  19.222  0.00  0.00    +0.000 C 
ENDROOT
BRANCH   3  18
ATOM     18  C   UNL     1       1.928   7.137  18.749  0.00  0.00    +0.000 C 
BRANCH  18  19
ATOM     19  C   UNL     1       1.955   8.603  18.365  0.00  0.00    +0.000 C 
BRANCH  19  20
ATOM     20  C   UNL     1       1.215   9.471  19.364  0.00  0.00    +0.000 C 
BRANCH  20  21
ATOM     21  C   UNL     1      -0.291   9.693  19.071  0.00  0.00    +0.000 C 
BRANCH  21  22
ATOM     22  N   UNL     1      -0.637  10.719  18.059  0.00  0.00    +0.000 NA
ATOM     23  C   UNL     1      -1.747  10.308  17.186  0.00  0.00    +0.000 C 
ATOM     24  C   UNL     1      -3.003  10.035  18.013  0.00  0.00    +0.000 C 
ATOM     25  N   UNL     1      -3.340  11.237  18.759  0.00  0.00    +0.000 N 
ATOM     26  C   UNL     1      -4.615  11.809  18.682  0.00  0.00    +0.000 A 
ATOM     27  N   UNL     1      -5.576  11.184  17.928  0.00  0.00    +0.000 NA
ATOM     28  C   UNL     1      -6.824  11.660  17.852  0.00  0.00    +0.000 A 
ATOM     29  C   UNL     1      -7.177  12.811  18.564  0.00  0.00    +0.000 A 
ATOM     30  C   UNL     1      -6.200  13.451  19.337  0.00  0.00    +0.000 A 
ATOM     31  N   UNL     1      -4.949  12.922  19.370  0.00  0.00    +0.000 NA
ATOM     32  C   UNL     1      -2.263  11.868  19.572  0.00  0.00    +0.000 C 
ATOM     33  C   UNL     1      -0.986  12.014  18.716  0.00  0.00    +0.000 C 
ENDBRANCH  21  22
ENDBRANCH  20  21
ENDBRANCH  19  20
ENDBRANCH  18  19
ENDBRANCH   3  18
TORSDOF 5
ENDMDL
