MODEL 1
REMARK VINA RESULT:      -7.3      0.000      0.000
REMARK  Name = 
REMARK  12 active torsions:
REMARK  status: ('A' for Active; 'I' for Inactive)
REMARK    1  A    between atoms: C_1  and  C_2
REMARK    2  A    between atoms: N_4  and  C_5
REMARK    3  A    between atoms: C_5  and  C_6
REMARK    4  A    between atoms: C_5  and  C_7
REMARK    5  A    between atoms: C_7  and  C_8
REMARK    6  A    between atoms: C_11  and  C_12
REMARK    7  A    between atoms: C_13  and  C_14
REMARK    8  A    between atoms: C_17  and  O_18
REMARK    9  A    between atoms: O_18  and  C_19
REMARK   10  A    between atoms: C_19  and  C_20
REMARK   11  A    between atoms: C_20  and  C_21
REMARK   12  A    between atoms: C_20  and  C_22
REMARK                            x       y       z     vdW  Elec       q    Type
REMARK                         _______ _______ _______ _____ _____    ______ ____
ROOT
ATOM      1  C   UNL     1       5.624   4.882  17.192  0.00  0.00    +0.000 A 
ATOM      2  C   UNL     1       6.777   4.821  17.987  0.00  0.00    +0.000 A 
ATOM      3  C   UNL     1       7.534   5.974  18.242  0.00  0.00    +0.000 A 
ATOM      4  C   UNL     1       7.153   7.206  17.709  0.00  0.00    +0.000 A 
ATOM      5  C   UNL     1       6.027   7.270  16.884  0.00  0.00    +0.000 A 
ATOM      6  C   UNL     1       5.271   6.116  16.626  0.00  0.00    +0.000 A 
ENDROOT
BRANCH   4   7
ATOM      7  C   UNL     1       7.887   8.398  18.042  0.00  0.00    +0.000 C 
ATOM      8  C   UNL     1       8.555   9.353  18.336  0.00  0.00    +0.000 C 
BRANCH   8   9
ATOM      9  C   UNL     1       9.412  10.448  18.684  0.00  0.00    +0.000 A 
ATOM     10  C   UNL     1      10.157  11.113  17.733  0.00  0.00    +0.000 A 
ATOM     11  N   UNL     1      10.972  12.157  18.002  0.00  0.00    +0.000 NA
ATOM     12  C   UNL     1      11.041  12.537  19.290  0.00  0.00    +0.000 A 
ATOM     13  N   UNL     1      10.379  11.954  20.302  0.00  0.00    +0.000 NA
ATOM     14  C   UNL     1       9.567  10.920  19.968  0.00  0.00    +0.000 A 
BRANCH  12  15
ATOM     15  O   UNL     1      11.882  13.574  19.645  0.00  0.00    +0.000 OA
BRANCH  15  16
ATOM     16  C   UNL     1      11.182  14.647  20.287  0.00  0.00    +0.000 C 
BRANCH  16  17
ATOM     17  C   UNL     1      10.400  15.459  19.239  0.00  0.00    +0.000 C 
ATOM     18  C   UNL     1       8.942  15.659  19.660  0.00  0.00    +0.000 C 
ATOM     19  C   UNL     1      11.060  16.818  19.003  0.00  0.00    +0.000 C 
ENDBRANCH  16  17
ENDBRANCH  15  16
ENDBRANCH  12  15
ENDBRANCH   8   9
ENDBRANCH   4   7
BRANCH   1  20
ATOM     20  C   UNL     1       4.785   3.647  16.921  0.00  0.00    +0.000 C 
BRANCH  20  21
ATOM     21  C   UNL     1       3.965   3.135  18.126  0.00  0.00    +0.000 C 
ATOM     22  C   UNL     1       3.059   1.973  17.702  0.00  0.00    +0.000 C 
BRANCH  21  26
ATOM     23  C   UNL     1       1.896   5.246  20.515  0.00  0.00    +0.000 C 
ATOM     24  C   UNL     1       2.745   4.093  20.053  0.00  0.00    +0.000 C 
ATOM     25  O   UNL     1       3.037   3.161  20.794  0.00  0.00    +0.000 OA
ATOM     26  N   UNL     1       3.163   4.190  18.744  0.00  0.00    +0.000 N 
ATOM     27  H   UNL     1       2.825   4.952  18.171  0.00  0.00    +0.000 HD
ENDBRANCH  21  26
ENDBRANCH  20  21
ENDBRANCH   1  20
TORSDOF 8
ENDMDL
MODEL 2
REMARK VINA RESULT:      -7.2      6.230      9.467
REMARK  Name = 
REMARK  12 active torsions:
REMARK  status: ('A' for Active; 'I' for Inactive)
REMARK    1  A    between atoms: C_1  and  C_2
REMARK    2  A    between atoms: N_4  and  C_5
REMARK    3  A    between atoms: C_5  and  C_6
REMARK    4  A    between atoms: C_5  and  C_7
REMARK    5  A    between atoms: C_7  and  C_8
REMARK    6  A    between atoms: C_11  and  C_12
REMARK    7  A    between atoms: C_13  and  C_14
REMARK    8  A    between atoms: C_17  and  O_18
REMARK    9  A    between atoms: O_18  and  C_19
REMARK   10  A    between atoms: C_19  and  C_20
REMARK   11  A    between atoms: C_20  and  C_21
REMARK   12  A    between atoms: C_20  and  C_22
REMARK                            x       y       z     vdW  Elec       q    Type
REMARK                         _______ _______ _______ _____ _____    ______ ____
ROOT
ATOM      1  C   UNL     1       3.880   5.548  17.470  0.00  0.00    +0.000 A 
ATOM      2  C   UNL     1       3.286   5.068  18.645  0.00  0.00    +0.000 A 
ATOM      3  C   UNL     1       2.545   5.921  19.476  0.00  0.00    +0.000 A 
ATOM      4  C   UNL     1       2.385   7.268  19.147  0.00  0.00    +0.000 A 
ATOM      5  C   UNL     1       3.006   7.765  17.998  0.00  0.00    +0.000 A 
ATOM      6  C   UNL     1       3.749   6.912  17.169  0.00  0.00    +0.000 A 
ENDROOT
BRANCH   4   7
ATOM      7  C   UNL     1       1.557   8.119  19.960  0.00  0.00    +0.000 C 
ATOM      8  C   UNL     1       0.903   8.885  20.617  0.00  0.00    +0.000 C 
BRANCH   8   9
ATOM      9  C   UNL     1       0.151   9.853  21.359  0.00  0.00    +0.000 A 
ATOM     10  C   UNL     1       0.058   9.798  22.734  0.00  0.00    +0.000 A 
ATOM     11  N   UNL     1      -0.627  10.690  23.484  0.00  0.00    +0.000 NA
ATOM     12  C   UNL     1      -1.250  11.672  22.812  0.00  0.00    +0.000 A 
ATOM     13  N   UNL     1      -1.247  11.816  21.477  0.00  0.00    +0.000 NA
ATOM     14  C   UNL     1      -0.531  10.898  20.779  0.00  0.00    +0.000 A 
BRANCH  12  15
ATOM     15  O   UNL     1      -2.001  12.600  23.510  0.00  0.00    +0.000 OA
BRANCH  15  16
ATOM     16  C   UNL     1      -2.964  13.257  22.678  0.00  0.00    +0.000 C 
BRANCH  16  17
ATOM     17  C   UNL     1      -4.385  12.945  23.179  0.00  0.00    +0.000 C 
ATOM     18  C   UNL     1      -4.372  12.447  24.626  0.00  0.00    +0.000 C 
ATOM     19  C   UNL     1      -5.284  14.177  23.066  0.00  0.00    +0.000 C 
ENDBRANCH  16  17
ENDBRANCH  15  16
ENDBRANCH  12  15
ENDBRANCH   8   9
ENDBRANCH   4   7
BRANCH   1  20
ATOM     20  C   UNL     1       4.670   4.633  16.552  0.00  0.00    +0.000 C 
BRANCH  20  21
ATOM     21  C   UNL     1       6.074   5.148  16.166  0.00  0.00    +0.000 C 
ATOM     22  C   UNL     1       6.782   4.139  15.254  0.00  0.00    +0.000 C 
BRANCH  21  26
ATOM     23  C   UNL     1       8.275   6.798  18.789  0.00  0.00    +0.000 C 
ATOM     24  C   UNL     1       7.406   6.693  17.565  0.00  0.00    +0.000 C 
ATOM     25  O   UNL     1       7.167   7.661  16.851  0.00  0.00    +0.000 OA
ATOM     26  N   UNL     1       6.906   5.430  17.335  0.00  0.00    +0.000 N 
ATOM     27  H   UNL     1       7.203   4.665  17.925  0.00  0.00    +0.000 HD
ENDBRANCH  21  26
ENDBRANCH  20  21
ENDBRANCH   1  20
TORSDOF 8
ENDMDL
MODEL 3
REMARK VINA RESULT:      -7.1      0.817      1.046
REMARK  Name = 
REMARK  12 active torsions:
REMARK  status: ('A' for Active; 'I' for Inactive)
REMARK    1  A    between atoms: C_1  and  C_2
REMARK    2  A    between atoms: N_4  and  C_5
REMARK    3  A    between atoms: C_5  and  C_6
REMARK    4  A    between atoms: C_5  and  C_7
REMARK    5  A    between atoms: C_7  and  C_8
REMARK    6  A    between atoms: C_11  and  C_12
REMARK    7  A    between atoms: C_13  and  C_14
REMARK    8  A    between atoms: C_17  and  O_18
REMARK    9  A    between atoms: O_18  and  C_19
REMARK   10  A    between atoms: C_19  and  C_20
REMARK   11  A    between atoms: C_20  and  C_21
REMARK   12  A    between atoms: C_20  and  C_22
REMARK                            x       y       z     vdW  Elec       q    Type
REMARK                         _______ _______ _______ _____ _____    ______ ____
ROOT
ATOM      1  C   UNL     1       5.318   4.628  17.245  0.00  0.00    +0.000 A 
ATOM      2  C   UNL     1       6.358   4.692  18.182  0.00  0.00    +0.000 A 
ATOM      3  C   UNL     1       7.128   5.856  18.321  0.00  0.00    +0.000 A 
ATOM      4  C   UNL     1       6.874   6.974  17.526  0.00  0.00    +0.000 A 
ATOM      5  C   UNL     1       5.865   6.907  16.562  0.00  0.00    +0.000 A 
ATOM      6  C   UNL     1       5.096   5.742  16.421  0.00  0.00    +0.000 A 
ENDROOT
BRANCH   4   7
ATOM      7  C   UNL     1       7.615   8.191  17.729  0.00  0.00    +0.000 C 
ATOM      8  C   UNL     1       8.211   9.208  17.965  0.00  0.00    +0.000 C 
BRANCH   8   9
ATOM      9  C   UNL     1       8.913  10.406  18.320  0.00  0.00    +0.000 A 
ATOM     10  C   UNL     1       8.619  11.618  17.731  0.00  0.00    +0.000 A 
ATOM     11  N   UNL     1       9.241  12.779  18.035  0.00  0.00    +0.000 NA
ATOM     12  C   UNL     1      10.206  12.707  18.967  0.00  0.00    +0.000 A 
ATOM     13  N   UNL     1      10.591  11.583  19.592  0.00  0.00    +0.000 NA
ATOM     14  C   UNL     1       9.921  10.452  19.255  0.00  0.00    +0.000 A 
BRANCH  12  15
ATOM     15  O   UNL     1      10.910  13.848  19.302  0.00  0.00    +0.000 OA
BRANCH  15  16
ATOM     16  C   UNL     1      10.105  14.793  20.018  0.00  0.00    +0.000 C 
BRANCH  16  17
ATOM     17  C   UNL     1      10.077  16.133  19.261  0.00  0.00    +0.000 C 
ATOM     18  C   UNL     1      11.225  16.231  18.255  0.00  0.00    +0.000 C 
ATOM     19  C   UNL     1       8.741  16.321  18.541  0.00  0.00    +0.000 C 
ENDBRANCH  16  17
ENDBRANCH  15  16
ENDBRANCH  12  15
ENDBRANCH   8   9
ENDBRANCH   4   7
BRANCH   1  20
ATOM     20  C   UNL     1       4.464   3.382  17.096  0.00  0.00    +0.000 C 
BRANCH  20  21
ATOM     21  C   UNL     1       3.504   3.102  18.274  0.00  0.00    +0.000 C 
ATOM     22  C   UNL     1       2.424   2.097  17.856  0.00  0.00    +0.000 C 
BRANCH  21  26
ATOM     23  C   UNL     1       1.899   5.752  20.473  0.00  0.00    +0.000 C 
ATOM     24  C   UNL     1       2.574   4.454  20.124  0.00  0.00    +0.000 C 
ATOM     25  O   UNL     1       2.831   3.604  20.970  0.00  0.00    +0.000 OA
ATOM     26  N   UNL     1       2.880   4.319  18.787  0.00  0.00    +0.000 N 
ATOM     27  H   UNL     1       2.574   5.030  18.135  0.00  0.00    +0.000 HD
ENDBRANCH  21  26
ENDBRANCH  20  21
ENDBRANCH   1  20
TORSDOF 8
ENDMDL
MODEL 4
REMARK VINA RESULT:      -7.1      0.664      1.495
REMARK  Name = 
REMARK  12 active torsions:
REMARK  status: ('A' for Active; 'I' for Inactive)
REMARK    1  A    between atoms: C_1  and  C_2
REMARK    2  A    between atoms: N_4  and  C_5
REMARK    3  A    between atoms: C_5  and  C_6
REMARK    4  A    between atoms: C_5  and  C_7
REMARK    5  A    between atoms: C_7  and  C_8
REMARK    6  A    between atoms: C_11  and  C_12
REMARK    7  A    between atoms: C_13  and  C_14
REMARK    8  A    between atoms: C_17  and  O_18
REMARK    9  A    between atoms: O_18  and  C_19
REMARK   10  A    between atoms: C_19  and  C_20
REMARK   11  A    between atoms: C_20  and  C_21
REMARK   12  A    between atoms: C_20  and  C_22
REMARK                            x       y       z     vdW  Elec       q    Type
REMARK                         _______ _______ _______ _____ _____    ______ ____
ROOT
ATOM      1  C   UNL     1       5.509   4.940  17.390  0.00  0.00    +0.000 A 
ATOM      2  C   UNL     1       5.204   6.205  16.869  0.00  0.00    +0.000 A 
ATOM      3  C   UNL     1       6.020   7.312  17.149  0.00  0.00    +0.000 A 
ATOM      4  C   UNL     1       7.151   7.174  17.953  0.00  0.00    +0.000 A 
ATOM      5  C   UNL     1       7.441   5.926  18.509  0.00  0.00    +0.000 A 
ATOM      6  C   UNL     1       6.625   4.819  18.232  0.00  0.00    +0.000 A 
ENDROOT
BRANCH   4   7
ATOM      7  C   UNL     1       8.027   8.295  18.170  0.00  0.00    +0.000 C 
ATOM      8  C   UNL     1       8.702   9.272  18.360  0.00  0.00    +0.000 C 
BRANCH   8   9
ATOM      9  C   UNL     1       9.447  10.469  18.616  0.00  0.00    +0.000 A 
ATOM     10  C   UNL     1       9.505  11.029  19.874  0.00  0.00    +0.000 A 
ATOM     11  N   UNL     1      10.200  12.150  20.174  0.00  0.00    +0.000 NA
ATOM     12  C   UNL     1      10.854  12.730  19.154  0.00  0.00    +0.000 A 
ATOM     13  N   UNL     1      10.854  12.289  17.887  0.00  0.00    +0.000 NA
ATOM     14  C   UNL     1      10.150  11.153  17.650  0.00  0.00    +0.000 A 
BRANCH  12  15
ATOM     15  O   UNL     1      11.556  13.900  19.379  0.00  0.00    +0.000 OA
BRANCH  15  16
ATOM     16  C   UNL     1      10.695  15.041  19.470  0.00  0.00    +0.000 C 
BRANCH  16  17
ATOM     17  C   UNL     1      10.578  15.717  18.092  0.00  0.00    +0.000 C 
ATOM     18  C   UNL     1       9.479  16.782  18.082  0.00  0.00    +0.000 C 
ATOM     19  C   UNL     1      11.910  16.347  17.682  0.00  0.00    +0.000 C 
ENDBRANCH  16  17
ENDBRANCH  15  16
ENDBRANCH  12  15
ENDBRANCH   8   9
ENDBRANCH   4   7
BRANCH   1  20
ATOM     20  C   UNL     1       4.646   3.730  17.082  0.00  0.00    +0.000 C 
BRANCH  20  21
ATOM     21  C   UNL     1       4.020   3.043  18.316  0.00  0.00    +0.000 C 
ATOM     22  C   UNL     1       3.669   1.585  17.995  0.00  0.00    +0.000 C 
BRANCH  21  26
ATOM     23  C   UNL     1       1.172   4.391  20.439  0.00  0.00    +0.000 C 
ATOM     24  C   UNL     1       2.434   3.639  20.118  0.00  0.00    +0.000 C 
ATOM     25  O   UNL     1       3.046   3.001  20.967  0.00  0.00    +0.000 OA
ATOM     26  N   UNL     1       2.833   3.744  18.803  0.00  0.00    +0.000 N 
ATOM     27  H   UNL     1       2.241   4.229  18.142  0.00  0.00    +0.000 HD
ENDBRANCH  21  26
ENDBRANCH  20  21
ENDBRANCH   1  20
TORSDOF 8
ENDMDL
MODEL 5
REMARK VINA RESULT:      -7.1      2.219     10.873
REMARK  Name = 
REMARK  12 active torsions:
REMARK  status: ('A' for Active; 'I' for Inactive)
REMARK    1  A    between atoms: C_1  and  C_2
REMARK    2  A    between atoms: N_4  and  C_5
REMARK    3  A    between atoms: C_5  and  C_6
REMARK    4  A    between atoms: C_5  and  C_7
REMARK    5  A    between atoms: C_7  and  C_8
REMARK    6  A    between atoms: C_11  and  C_12
REMARK    7  A    between atoms: C_13  and  C_14
REMARK    8  A    between atoms: C_17  and  O_18
REMARK    9  A    between atoms: O_18  and  C_19
REMARK   10  A    between atoms: C_19  and  C_20
REMARK   11  A    between atoms: C_20  and  C_21
REMARK   12  A    between atoms: C_20  and  C_22
REMARK                            x       y       z     vdW  Elec       q    Type
REMARK                         _______ _______ _______ _____ _____    ______ ____
ROOT
ATOM      1  C   UNL     1      10.640  13.496  17.900  0.00  0.00    +0.000 A 
ATOM      2  C   UNL     1      11.400  12.345  18.151  0.00  0.00    +0.000 A 
ATOM      3  C   UNL     1      10.785  11.088  18.251  0.00  0.00    +0.000 A 
ATOM      4  C   UNL     1       9.403  10.959  18.103  0.00  0.00    +0.000 A 
ATOM      5  C   UNL     1       8.634  12.106  17.892  0.00  0.00    +0.000 A 
ATOM      6  C   UNL     1       9.248  13.364  17.794  0.00  0.00    +0.000 A 
ENDROOT
BRANCH   4   7
ATOM      7  C   UNL     1       8.790   9.658  18.126  0.00  0.00    +0.000 C 
ATOM      8  C   UNL     1       8.220   8.599  18.118  0.00  0.00    +0.000 C 
BRANCH   8   9
ATOM      9  C   UNL     1       7.490   7.368  18.061  0.00  0.00    +0.000 A 
ATOM     10  C   UNL     1       7.843   6.282  18.834  0.00  0.00    +0.000 A 
ATOM     11  N   UNL     1       7.184   5.101  18.828  0.00  0.00    +0.000 NA
ATOM     12  C   UNL     1       6.131   5.015  17.998  0.00  0.00    +0.000 A 
ATOM     13  N   UNL     1       5.707   5.996  17.186  0.00  0.00    +0.000 NA
ATOM     14  C   UNL     1       6.400   7.162  17.246  0.00  0.00    +0.000 A 
BRANCH  12  15
ATOM     15  O   UNL     1       5.432   3.826  17.912  0.00  0.00    +0.000 OA
BRANCH  15  16
ATOM     16  C   UNL     1       4.626   3.584  19.072  0.00  0.00    +0.000 C 
BRANCH  16  17
ATOM     17  C   UNL     1       3.273   2.984  18.650  0.00  0.00    +0.000 C 
ATOM     18  C   UNL     1       2.632   3.789  17.518  0.00  0.00    +0.000 C 
ATOM     19  C   UNL     1       3.436   1.526  18.218  0.00  0.00    +0.000 C 
ENDBRANCH  16  17
ENDBRANCH  15  16
ENDBRANCH  12  15
ENDBRANCH   8   9
ENDBRANCH   4   7
BRANCH   1  20
ATOM     20  C   UNL     1      11.292  14.860  17.772  0.00  0.00    +0.000 C 
BRANCH  20  21
ATOM     21  C   UNL     1      10.398  16.053  18.179  0.00  0.00    +0.000 C 
ATOM     22  C   UNL     1      10.726  17.283  17.323  0.00  0.00    +0.000 C 
BRANCH  21  26
ATOM     23  C   UNL     1       9.731  16.734  21.857  0.00  0.00    +0.000 C 
ATOM     24  C   UNL     1       9.436  16.319  20.441  0.00  0.00    +0.000 C 
ATOM     25  O   UNL     1       8.322  15.947  20.090  0.00  0.00    +0.000 OA
ATOM     26  N   UNL     1      10.522  16.386  19.596  0.00  0.00    +0.000 N 
ATOM     27  H   UNL     1      11.393  16.770  19.938  0.00  0.00    +0.000 HD
ENDBRANCH  21  26
ENDBRANCH  20  21
ENDBRANCH   1  20
TORSDOF 8
ENDMDL
MODEL 6
REMARK VINA RESULT:      -7.1      0.967      1.115
REMARK  Name = 
REMARK  12 active torsions:
REMARK  status: ('A' for Active; 'I' for Inactive)
REMARK    1  A    between atoms: C_1  and  C_2
REMARK    2  A    between atoms: N_4  and  C_5
REMARK    3  A    between atoms: C_5  and  C_6
REMARK    4  A    between atoms: C_5  and  C_7
REMARK    5  A    between atoms: C_7  and  C_8
REMARK    6  A    between atoms: C_11  and  C_12
REMARK    7  A    between atoms: C_13  and  C_14
REMARK    8  A    between atoms: C_17  and  O_18
REMARK    9  A    between atoms: O_18  and  C_19
REMARK   10  A    between atoms: C_19  and  C_20
REMARK   11  A    between atoms: C_20  and  C_21
REMARK   12  A    between atoms: C_20  and  C_22
REMARK                            x       y       z     vdW  Elec       q    Type
REMARK                         _______ _______ _______ _____ _____    ______ ____
ROOT
ATOM      1  C   UNL     1       5.840   5.145  17.347  0.00  0.00    +0.000 A 
ATOM      2  C   UNL     1       6.815   5.066  18.351  0.00  0.00    +0.000 A 
ATOM      3  C   UNL     1       7.633   6.167  18.644  0.00  0.00    +0.000 A 
ATOM      4  C   UNL     1       7.492   7.364  17.940  0.00  0.00    +0.000 A 
ATOM      5  C   UNL     1       6.549   7.440  16.912  0.00  0.00    +0.000 A 
ATOM      6  C   UNL     1       5.732   6.338  16.616  0.00  0.00    +0.000 A 
ENDROOT
BRANCH   4   7
ATOM      7  C   UNL     1       8.278   8.514  18.301  0.00  0.00    +0.000 C 
ATOM      8  C   UNL     1       8.885   9.515  18.574  0.00  0.00    +0.000 C 
BRANCH   8   9
ATOM      9  C   UNL     1       9.545  10.747  18.890  0.00  0.00    +0.000 A 
ATOM     10  C   UNL     1       9.827  11.686  17.920  0.00  0.00    +0.000 A 
ATOM     11  N   UNL     1      10.437  12.868  18.162  0.00  0.00    +0.000 NA
ATOM     12  C   UNL     1      10.782  13.103  19.440  0.00  0.00    +0.000 A 
ATOM     13  N   UNL     1      10.578  12.258  20.462  0.00  0.00    +0.000 NA
ATOM     14  C   UNL     1       9.949  11.095  20.159  0.00  0.00    +0.000 A 
BRANCH  12  15
ATOM     15  O   UNL     1      11.443  14.276  19.757  0.00  0.00    +0.000 OA
BRANCH  15  16
ATOM     16  C   UNL     1      11.817  15.021  18.592  0.00  0.00    +0.000 C 
BRANCH  16  17
ATOM     17  C   UNL     1      11.104  16.385  18.594  0.00  0.00    +0.000 C 
ATOM     18  C   UNL     1      11.682  17.317  19.661  0.00  0.00    +0.000 C 
ATOM     19  C   UNL     1      11.199  17.050  17.220  0.00  0.00    +0.000 C 
ENDBRANCH  16  17
ENDBRANCH  15  16
ENDBRANCH  12  15
ENDBRANCH   8   9
ENDBRANCH   4   7
BRANCH   1  20
ATOM     20  C   UNL     1       4.935   3.968  17.030  0.00  0.00    +0.000 C 
BRANCH  20  21
ATOM     21  C   UNL     1       3.698   3.830  17.945  0.00  0.00    +0.000 C 
ATOM     22  C   UNL     1       2.578   3.076  17.218  0.00  0.00    +0.000 C 
BRANCH  21  26
ATOM     23  C   UNL     1       2.237   6.666  20.009  0.00  0.00    +0.000 C 
ATOM     24  C   UNL     1       2.746   5.283  19.705  0.00  0.00    +0.000 C 
ATOM     25  O   UNL     1       2.756   4.393  20.547  0.00  0.00    +0.000 OA
ATOM     26  N   UNL     1       3.203   5.122  18.415  0.00  0.00    +0.000 N 
ATOM     27  H   UNL     1       3.099   5.881  17.754  0.00  0.00    +0.000 HD
ENDBRANCH  21  26
ENDBRANCH  20  21
ENDBRANCH   1  20
TORSDOF 8
ENDMDL
MODEL 7
REMARK VINA RESULT:      -7.1      0.680      1.158
REMARK  Name = 
REMARK  12 active torsions:
REMARK  status: ('A' for Active; 'I' for Inactive)
REMARK    1  A    between atoms: C_1  and  C_2
REMARK    2  A    between atoms: N_4  and  C_5
REMARK    3  A    between atoms: C_5  and  C_6
REMARK    4  A    between atoms: C_5  and  C_7
REMARK    5  A    between atoms: C_7  and  C_8
REMARK    6  A    between atoms: C_11  and  C_12
REMARK    7  A    between atoms: C_13  and  C_14
REMARK    8  A    between atoms: C_17  and  O_18
REMARK    9  A    between atoms: O_18  and  C_19
REMARK   10  A    between atoms: C_19  and  C_20
REMARK   11  A    between atoms: C_20  and  C_21
REMARK   12  A    between atoms: C_20  and  C_22
REMARK                            x       y       z     vdW  Elec       q    Type
REMARK                         _______ _______ _______ _____ _____    ______ ____
ROOT
ATOM      1  C   UNL     1       5.777   5.113  17.494  0.00  0.00    +0.000 A 
ATOM      2  C   UNL     1       6.856   5.090  18.388  0.00  0.00    +0.000 A 
ATOM      3  C   UNL     1       7.675   6.217  18.554  0.00  0.00    +0.000 A 
ATOM      4  C   UNL     1       7.430   7.385  17.830  0.00  0.00    +0.000 A 
ATOM      5  C   UNL     1       6.380   7.404  16.908  0.00  0.00    +0.000 A 
ATOM      6  C   UNL     1       5.563   6.276  16.740  0.00  0.00    +0.000 A 
ENDROOT
BRANCH   4   7
ATOM      7  C   UNL     1       8.223   8.563  18.065  0.00  0.00    +0.000 C 
ATOM      8  C   UNL     1       8.865   9.544  18.328  0.00  0.00    +0.000 C 
BRANCH   8   9
ATOM      9  C   UNL     1       9.624  10.696  18.714  0.00  0.00    +0.000 A 
ATOM     10  C   UNL     1       9.638  11.150  20.016  0.00  0.00    +0.000 A 
ATOM     11  N   UNL     1      10.344  12.223  20.438  0.00  0.00    +0.000 NA
ATOM     12  C   UNL     1      11.058  12.867  19.499  0.00  0.00    +0.000 A 
ATOM     13  N   UNL     1      11.106  12.531  18.200  0.00  0.00    +0.000 NA
ATOM     14  C   UNL     1      10.387  11.437  17.840  0.00  0.00    +0.000 A 
BRANCH  12  15
ATOM     15  O   UNL     1      11.776  13.995  19.850  0.00  0.00    +0.000 OA
BRANCH  15  16
ATOM     16  C   UNL     1      10.931  15.054  20.314  0.00  0.00    +0.000 C 
BRANCH  16  17
ATOM     17  C   UNL     1      10.157  15.661  19.130  0.00  0.00    +0.000 C 
ATOM     18  C   UNL     1       8.696  15.931  19.496  0.00  0.00    +0.000 C 
ATOM     19  C   UNL     1      10.818  16.956  18.655  0.00  0.00    +0.000 C 
ENDBRANCH  16  17
ENDBRANCH  15  16
ENDBRANCH  12  15
ENDBRANCH   8   9
ENDBRANCH   4   7
BRANCH   1  20
ATOM     20  C   UNL     1       4.873   3.908  17.316  0.00  0.00    +0.000 C 
BRANCH  20  21
ATOM     21  C   UNL     1       3.672   3.842  18.287  0.00  0.00    +0.000 C 
ATOM     22  C   UNL     1       2.543   2.997  17.685  0.00  0.00    +0.000 C 
BRANCH  21  26
ATOM     23  C   UNL     1       2.129   6.821  20.071  0.00  0.00    +0.000 C 
ATOM     24  C   UNL     1       2.638   5.417  19.889  0.00  0.00    +0.000 C 
ATOM     25  O   UNL     1       2.588   4.585  20.788  0.00  0.00    +0.000 OA
ATOM     26  N   UNL     1       3.167   5.167  18.641  0.00  0.00    +0.000 N 
ATOM     27  H   UNL     1       3.111   5.880  17.927  0.00  0.00    +0.000 HD
ENDBRANCH  21  26
ENDBRANCH  20  21
ENDBRANCH   1  20
TORSDOF 8
ENDMDL
MODEL 8
REMARK VINA RESULT:      -7.1      0.955      1.354
REMARK  Name = 
REMARK  12 active torsions:
REMARK  status: ('A' for Active; 'I' for Inactive)
REMARK    1  A    between atoms: C_1  and  C_2
REMARK    2  A    between atoms: N_4  and  C_5
REMARK    3  A    between atoms: C_5  and  C_6
REMARK    4  A    between atoms: C_5  and  C_7
REMARK    5  A    between atoms: C_7  and  C_8
REMARK    6  A    between atoms: C_11  and  C_12
REMARK    7  A    between atoms: C_13  and  C_14
REMARK    8  A    between atoms: C_17  and  O_18
REMARK    9  A    between atoms: O_18  and  C_19
REMARK   10  A    between atoms: C_19  and  C_20
REMARK   11  A    between atoms: C_20  and  C_21
REMARK   12  A    between atoms: C_20  and  C_22
REMARK                            x       y       z     vdW  Elec       q    Type
REMARK                         _______ _______ _______ _____ _____    ______ ____
ROOT
ATOM      1  C   UNL     1       5.259   4.936  16.978  0.00  0.00    +0.000 A 
ATOM      2  C   UNL     1       6.604   4.723  17.313  0.00  0.00    +0.000 A 
ATOM      3  C   UNL     1       7.457   5.804  17.579  0.00  0.00    +0.000 A 
ATOM      4  C   UNL     1       6.983   7.115  17.513  0.00  0.00    +0.000 A 
ATOM      5  C   UNL     1       5.655   7.339  17.142  0.00  0.00    +0.000 A 
ATOM      6  C   UNL     1       4.801   6.258  16.874  0.00  0.00    +0.000 A 
ENDROOT
BRANCH   4   7
ATOM      7  C   UNL     1       7.842   8.215  17.866  0.00  0.00    +0.000 C 
ATOM      8  C   UNL     1       8.507   9.159  18.200  0.00  0.00    +0.000 C 
BRANCH   8   9
ATOM      9  C   UNL     1       9.252  10.295  18.654  0.00  0.00    +0.000 A 
ATOM     10  C   UNL     1       9.474  10.525  19.996  0.00  0.00    +0.000 A 
ATOM     11  N   UNL     1      10.178  11.574  20.479  0.00  0.00    +0.000 NA
ATOM     12  C   UNL     1      10.668  12.428  19.565  0.00  0.00    +0.000 A 
ATOM     13  N   UNL     1      10.499  12.318  18.238  0.00  0.00    +0.000 NA
ATOM     14  C   UNL     1       9.796  11.239  17.812  0.00  0.00    +0.000 A 
BRANCH  12  15
ATOM     15  O   UNL     1      11.367  13.543  19.988  0.00  0.00    +0.000 OA
BRANCH  15  16
ATOM     16  C   UNL     1      11.452  14.549  18.971  0.00  0.00    +0.000 C 
BRANCH  16  17
ATOM     17  C   UNL     1      10.861  15.870  19.495  0.00  0.00    +0.000 C 
ATOM     18  C   UNL     1       9.399  16.035  19.075  0.00  0.00    +0.000 C 
ATOM     19  C   UNL     1      10.973  15.950  21.018  0.00  0.00    +0.000 C 
ENDBRANCH  16  17
ENDBRANCH  15  16
ENDBRANCH  12  15
ENDBRANCH   8   9
ENDBRANCH   4   7
BRANCH   1  20
ATOM     20  C   UNL     1       4.320   3.776  16.705  0.00  0.00    +0.000 C 
BRANCH  20  21
ATOM     21  C   UNL     1       3.885   2.978  17.955  0.00  0.00    +0.000 C 
ATOM     22  C   UNL     1       2.747   2.012  17.604  0.00  0.00    +0.000 C 
BRANCH  21  26
ATOM     23  C   UNL     1       2.129   5.531  20.155  0.00  0.00    +0.000 C 
ATOM     24  C   UNL     1       2.384   4.677  18.943  0.00  0.00    +0.000 C 
ATOM     25  O   UNL     1       1.663   4.722  17.952  0.00  0.00    +0.000 OA
ATOM     26  N   UNL     1       3.477   3.847  19.058  0.00  0.00    +0.000 N 
ATOM     27  H   UNL     1       4.067   3.914  19.877  0.00  0.00    +0.000 HD
ENDBRANCH  21  26
ENDBRANCH  20  21
ENDBRANCH   1  20
TORSDOF 8
ENDMDL
MODEL 9
REMARK VINA RESULT:      -7.0      0.637      1.155
REMARK  Name = 
REMARK  12 active torsions:
REMARK  status: ('A' for Active; 'I' for Inactive)
REMARK    1  A    between atoms: C_1  and  C_2
REMARK    2  A    between atoms: N_4  and  C_5
REMARK    3  A    between atoms: C_5  and  C_6
REMARK    4  A    between atoms: C_5  and  C_7
REMARK    5  A    between atoms: C_7  and  C_8
REMARK    6  A    between atoms: C_11  and  C_12
REMARK    7  A    between atoms: C_13  and  C_14
REMARK    8  A    between atoms: C_17  and  O_18
REMARK    9  A    between atoms: O_18  and  C_19
REMARK   10  A    between atoms: C_19  and  C_20
REMARK   11  A    between atoms: C_20  and  C_21
REMARK   12  A    between atoms: C_20  and  C_22
REMARK                            x       y       z     vdW  Elec       q    Type
REMARK                         _______ _______ _______ _____ _____    ______ ____
ROOT
ATOM      1  C   UNL     1       5.615   4.969  17.284  0.00  0.00    +0.000 A 
ATOM      2  C   UNL     1       6.751   4.954  18.104  0.00  0.00    +0.000 A 
ATOM      3  C   UNL     1       7.491   6.125  18.328  0.00  0.00    +0.000 A 
ATOM      4  C   UNL     1       7.108   7.330  17.736  0.00  0.00    +0.000 A 
ATOM      5  C   UNL     1       6.000   7.346  16.886  0.00  0.00    +0.000 A 
ATOM      6  C   UNL     1       5.262   6.175  16.660  0.00  0.00    +0.000 A 
ENDROOT
BRANCH   4   7
ATOM      7  C   UNL     1       7.823   8.542  18.035  0.00  0.00    +0.000 C 
ATOM      8  C   UNL     1       8.480   9.521  18.271  0.00  0.00    +0.000 C 
BRANCH   8   9
ATOM      9  C   UNL     1       9.321  10.655  18.517  0.00  0.00    +0.000 A 
ATOM     10  C   UNL     1      10.225  10.672  19.558  0.00  0.00    +0.000 A 
ATOM     11  N   UNL     1      11.049  11.709  19.830  0.00  0.00    +0.000 NA
ATOM     12  C   UNL     1      10.946  12.775  19.018  0.00  0.00    +0.000 A 
ATOM     13  N   UNL     1      10.091  12.880  17.988  0.00  0.00    +0.000 NA
ATOM     14  C   UNL     1       9.299  11.802  17.757  0.00  0.00    +0.000 A 
BRANCH  12  15
ATOM     15  O   UNL     1      11.731  13.887  19.257  0.00  0.00    +0.000 OA
BRANCH  15  16
ATOM     16  C   UNL     1      11.168  14.745  20.257  0.00  0.00    +0.000 C 
BRANCH  16  17
ATOM     17  C   UNL     1      11.303  16.214  19.819  0.00  0.00    +0.000 C 
ATOM     18  C   UNL     1      11.884  16.326  18.408  0.00  0.00    +0.000 C 
ATOM     19  C   UNL     1       9.951  16.926  19.878  0.00  0.00    +0.000 C 
ENDBRANCH  16  17
ENDBRANCH  15  16
ENDBRANCH  12  15
ENDBRANCH   8   9
ENDBRANCH   4   7
BRANCH   1  20
ATOM     20  C   UNL     1       4.795   3.715  17.046  0.00  0.00    +0.000 C 
BRANCH  20  21
ATOM     21  C   UNL     1       4.074   3.159  18.295  0.00  0.00    +0.000 C 
ATOM     22  C   UNL     1       3.392   1.824  17.968  0.00  0.00    +0.000 C 
BRANCH  21  26
ATOM     23  C   UNL     1       1.602   5.003  20.514  0.00  0.00    +0.000 C 
ATOM     24  C   UNL     1       2.636   3.979  20.132  0.00  0.00    +0.000 C 
ATOM     25  O   UNL     1       3.033   3.128  20.920  0.00  0.00    +0.000 OA
ATOM     26  N   UNL     1       3.094   4.097  18.838  0.00  0.00    +0.000 N 
ATOM     27  H   UNL     1       2.670   4.779  18.222  0.00  0.00    +0.000 HD
ENDBRANCH  21  26
ENDBRANCH  20  21
ENDBRANCH   1  20
TORSDOF 8
ENDMDL
