MODEL 1
REMARK VINA RESULT:      -9.3      0.000      0.000
REMARK  Name = 
REMARK  7 active torsions:
REMARK  status: ('A' for Active; 'I' for Inactive)
REMARK    1  A    between atoms: C_2  and  C_13
REMARK    2  A    between atoms: N_3  and  C_4
REMARK    3  A    between atoms: C_4  and  C_5
REMARK    4  A    between atoms: C_17  and  O_18
REMARK    5  A    between atoms: C_24  and  C_25
REMARK    6  A    between atoms: C_25  and  C_26
REMARK    7  A    between atoms: C_29  and  O_30
REMARK                            x       y       z     vdW  Elec       q    Type
REMARK                         _______ _______ _______ _____ _____    ______ ____
ROOT
ATOM      1  C   UNL     1       0.790   9.499  21.235  0.00  0.00    +0.000 A 
ATOM      2  C   UNL     1       1.207   8.243  21.433  0.00  0.00    +0.000 A 
ATOM      3  N   UNL     1       1.793   7.436  20.473  0.00  0.00    +0.000 N 
ATOM      4  C   UNL     1       1.993   7.956  19.178  0.00  0.00    +0.000 A 
ATOM      5  C   UNL     1       1.653   9.222  18.834  0.00  0.00    +0.000 A 
ATOM      6  C   UNL     1       0.964  10.071  19.875  0.00  0.00    +0.000 A 
ATOM      7  O   UNL     1       0.526  11.188  19.604  0.00  0.00    +0.000 OA
ATOM      8  C   UNL     1       2.552   7.057  18.083  0.00  0.00    +0.000 C 
ATOM      9  O   UNL     1       2.610   7.440  16.915  0.00  0.00    +0.000 OA
ATOM     10  N   UNL     1       2.903   5.790  18.469  0.00  0.00    +0.000 N 
ATOM     11  C   UNL     1       3.124   4.672  17.577  0.00  0.00    +0.000 C 
ATOM     12  C   UNL     1       3.140   3.487  18.537  0.00  0.00    +0.000 C 
ATOM     13  O   UNL     1       3.102   3.999  19.884  0.00  0.00    +0.000 OA
ATOM     14  C   UNL     1       3.084   5.425  19.841  0.00  0.00    +0.000 C 
ATOM     15  C   UNL     1       1.994   5.999  20.749  0.00  0.00    +0.000 C 
ENDROOT
BRANCH   1  17
ATOM     16  O   UNL     1       0.266   9.782  23.526  0.00  0.00    +0.000 OA
ATOM     17  C   UNL     1       0.107  10.175  22.369  0.00  0.00    +0.000 C 
ATOM     18  N   UNL     1      -0.733  11.193  22.035  0.00  0.00    +0.000 N 
ATOM     19  H   UNL     1      -0.775  11.503  21.064  0.00  0.00    +0.000 HD
BRANCH  18  20
ATOM     20  C   UNL     1      -1.550  11.871  23.015  0.00  0.00    +0.000 C 
BRANCH  20  21
ATOM     21  C   UNL     1      -2.824  12.393  22.406  0.00  0.00    +0.000 A 
ATOM     22  C   UNL     1      -2.931  12.632  21.025  0.00  0.00    +0.000 A 
ATOM     23  C   UNL     1      -4.134  13.088  20.483  0.00  0.00    +0.000 A 
ATOM     24  C   UNL     1      -5.232  13.301  21.314  0.00  0.00    +0.000 A 
ATOM     25  F   UNL     1      -6.384  13.731  20.788  0.00  0.00    +0.000 F 
ATOM     26  C   UNL     1      -5.149  13.060  22.677  0.00  0.00    +0.000 A 
ATOM     27  C   UNL     1      -3.949  12.608  23.210  0.00  0.00    +0.000 A 
ATOM     28  F   UNL     1      -3.884  12.365  24.526  0.00  0.00    +0.000 F 
ENDBRANCH  20  21
ENDBRANCH  18  20
ENDBRANCH   1  17
BRANCH   5  29
ATOM     29  O   UNL     1       1.845   9.794  17.585  0.00  0.00    +0.000 OA
ATOM     30  H   UNL     1       2.501  10.520  17.669  0.00  0.00    +0.000 HD
ENDBRANCH   5  29
BRANCH  11  31
ATOM     31  C   UNL     1       4.396   4.791  16.713  0.00  0.00    +0.000 C 
BRANCH  31  32
ATOM     32  C   UNL     1       5.546   5.539  17.364  0.00  0.00    +0.000 A 
ATOM     33  C   UNL     1       6.291   4.944  18.396  0.00  0.00    +0.000 A 
ATOM     34  C   UNL     1       7.378   5.606  18.972  0.00  0.00    +0.000 A 
ATOM     35  C   UNL     1       7.734   6.869  18.516  0.00  0.00    +0.000 A 
ATOM     36  C   UNL     1       7.027   7.470  17.482  0.00  0.00    +0.000 A 
ATOM     37  C   UNL     1       5.937   6.807  16.903  0.00  0.00    +0.000 A 
BRANCH  35  38
ATOM     38  O   UNL     1       8.783   7.550  19.058  0.00  0.00    +0.000 OA
ATOM     39  H   UNL     1       9.432   6.909  19.390  0.00  0.00    +0.000 HD
ENDBRANCH  35  38
ENDBRANCH  31  32
ENDBRANCH  11  31
TORSDOF 7
ENDMDL
MODEL 2
REMARK VINA RESULT:      -9.2      4.335     10.730
REMARK  Name = 
REMARK  7 active torsions:
REMARK  status: ('A' for Active; 'I' for Inactive)
REMARK    1  A    between atoms: C_2  and  C_13
REMARK    2  A    between atoms: N_3  and  C_4
REMARK    3  A    between atoms: C_4  and  C_5
REMARK    4  A    between atoms: C_17  and  O_18
REMARK    5  A    between atoms: C_24  and  C_25
REMARK    6  A    between atoms: C_25  and  C_26
REMARK    7  A    between atoms: C_29  and  O_30
REMARK                            x       y       z     vdW  Elec       q    Type
REMARK                         _______ _______ _______ _____ _____    ______ ____
ROOT
ATOM      1  C   UNL     1       2.768   6.953  18.978  0.00  0.00    +0.000 A 
ATOM      2  C   UNL     1       2.076   7.103  20.113  0.00  0.00    +0.000 A 
ATOM      3  N   UNL     1       1.291   8.199  20.430  0.00  0.00    +0.000 N 
ATOM      4  C   UNL     1       1.181   9.249  19.497  0.00  0.00    +0.000 A 
ATOM      5  C   UNL     1       1.797   9.227  18.290  0.00  0.00    +0.000 A 
ATOM      6  C   UNL     1       2.695   8.054  17.982  0.00  0.00    +0.000 A 
ATOM      7  O   UNL     1       3.374   8.017  16.956  0.00  0.00    +0.000 OA
ATOM      8  C   UNL     1       0.398  10.503  19.863  0.00  0.00    +0.000 C 
ATOM      9  O   UNL     1       0.398  11.489  19.127  0.00  0.00    +0.000 OA
ATOM     10  N   UNL     1      -0.228  10.483  21.081  0.00  0.00    +0.000 N 
ATOM     11  C   UNL     1      -0.729  11.644  21.786  0.00  0.00    +0.000 C 
ATOM     12  C   UNL     1      -0.995  11.090  23.182  0.00  0.00    +0.000 C 
ATOM     13  O   UNL     1      -0.800   9.662  23.143  0.00  0.00    +0.000 OA
ATOM     14  C   UNL     1      -0.451   9.275  21.815  0.00  0.00    +0.000 C 
ATOM     15  C   UNL     1       0.767   8.349  21.803  0.00  0.00    +0.000 C 
ENDROOT
BRANCH   1  17
ATOM     16  O   UNL     1       4.496   5.501  19.692  0.00  0.00    +0.000 OA
ATOM     17  C   UNL     1       3.622   5.743  18.857  0.00  0.00    +0.000 C 
ATOM     18  N   UNL     1       3.413   4.976  17.751  0.00  0.00    +0.000 N 
ATOM     19  H   UNL     1       2.636   5.202  17.130  0.00  0.00    +0.000 HD
BRANCH  18  20
ATOM     20  C   UNL     1       4.238   3.831  17.441  0.00  0.00    +0.000 C 
BRANCH  20  21
ATOM     21  C   UNL     1       5.245   4.151  16.368  0.00  0.00    +0.000 A 
ATOM     22  C   UNL     1       4.901   4.106  15.005  0.00  0.00    +0.000 A 
ATOM     23  C   UNL     1       5.846   4.436  14.032  0.00  0.00    +0.000 A 
ATOM     24  C   UNL     1       7.131   4.814  14.414  0.00  0.00    +0.000 A 
ATOM     25  F   UNL     1       8.030   5.137  13.478  0.00  0.00    +0.000 F 
ATOM     26  C   UNL     1       7.486   4.877  15.754  0.00  0.00    +0.000 A 
ATOM     27  C   UNL     1       6.541   4.545  16.716  0.00  0.00    +0.000 A 
ATOM     28  F   UNL     1       6.890   4.621  18.008  0.00  0.00    +0.000 F 
ENDBRANCH  20  21
ENDBRANCH  18  20
ENDBRANCH   1  17
BRANCH   5  29
ATOM     29  O   UNL     1       1.710  10.220  17.326  0.00  0.00    +0.000 OA
ATOM     30  H   UNL     1       0.904  10.063  16.786  0.00  0.00    +0.000 HD
ENDBRANCH   5  29
BRANCH  11  31
ATOM     31  C   UNL     1      -1.962  12.301  21.132  0.00  0.00    +0.000 C 
BRANCH  31  32
ATOM     32  C   UNL     1      -2.775  13.197  22.050  0.00  0.00    +0.000 A 
ATOM     33  C   UNL     1      -4.045  12.795  22.497  0.00  0.00    +0.000 A 
ATOM     34  C   UNL     1      -4.784  13.592  23.376  0.00  0.00    +0.000 A 
ATOM     35  C   UNL     1      -4.254  14.797  23.820  0.00  0.00    +0.000 A 
ATOM     36  C   UNL     1      -2.992  15.206  23.410  0.00  0.00    +0.000 A 
ATOM     37  C   UNL     1      -2.250  14.408  22.529  0.00  0.00    +0.000 A 
BRANCH  35  38
ATOM     38  O   UNL     1      -4.946  15.605  24.672  0.00  0.00    +0.000 OA
ATOM     39  H   UNL     1      -5.775  15.163  24.917  0.00  0.00    +0.000 HD
ENDBRANCH  35  38
ENDBRANCH  31  32
ENDBRANCH  11  31
TORSDOF 7
ENDMDL
MODEL 3
REMARK VINA RESULT:      -9.0      4.108     10.532
REMARK  Name = 
REMARK  7 active torsions:
REMARK  status: ('A' for Active; 'I' for Inactive)
REMARK    1  A    between atoms: C_2  and  C_13
REMARK    2  A    between atoms: N_3  and  C_4
REMARK    3  A    between atoms: C_4  and  C_5
REMARK    4  A    between atoms: C_17  and  O_18
REMARK    5  A    between atoms: C_24  and  C_25
REMARK    6  A    between atoms: C_25  and  C_26
REMARK    7  A    between atoms: C_29  and  O_30
REMARK                            x       y       z     vdW  Elec       q    Type
REMARK                         _______ _______ _______ _____ _____    ______ ____
ROOT
ATOM      1  C   UNL     1       1.761   7.678  19.953  0.00  0.00    +0.000 A 
ATOM      2  C   UNL     1       1.138   8.160  21.034  0.00  0.00    +0.000 A 
ATOM      3  N   UNL     1       0.559   9.414  21.130  0.00  0.00    +0.000 N 
ATOM      4  C   UNL     1       0.602  10.269  20.010  0.00  0.00    +0.000 A 
ATOM      5  C   UNL     1       1.171   9.911  18.833  0.00  0.00    +0.000 A 
ATOM      6  C   UNL     1       1.847   8.563  18.762  0.00  0.00    +0.000 A 
ATOM      7  O   UNL     1       2.480   8.214  17.766  0.00  0.00    +0.000 OA
ATOM      8  C   UNL     1       0.054  11.685  20.123  0.00  0.00    +0.000 C 
ATOM      9  O   UNL     1       0.200  12.497  19.210  0.00  0.00    +0.000 OA
ATOM     10  N   UNL     1      -0.530  12.008  21.319  0.00  0.00    +0.000 N 
ATOM     11  C   UNL     1      -0.806  13.351  21.783  0.00  0.00    +0.000 C 
ATOM     12  C   UNL     1      -1.121  13.128  23.259  0.00  0.00    +0.000 C 
ATOM     13  O   UNL     1      -1.173  11.708  23.498  0.00  0.00    +0.000 OA
ATOM     14  C   UNL     1      -0.934  11.019  22.272  0.00  0.00    +0.000 C 
ATOM     15  C   UNL     1       0.109   9.913  22.445  0.00  0.00    +0.000 C 
ENDROOT
BRANCH   1  17
ATOM     16  O   UNL     1       1.939   5.493  20.846  0.00  0.00    +0.000 OA
ATOM     17  C   UNL     1       2.393   6.339  20.072  0.00  0.00    +0.000 C 
ATOM     18  N   UNL     1       3.519   6.143  19.330  0.00  0.00    +0.000 N 
ATOM     19  H   UNL     1       3.808   6.865  18.669  0.00  0.00    +0.000 HD
BRANCH  18  20
ATOM     20  C   UNL     1       4.304   4.935  19.425  0.00  0.00    +0.000 C 
BRANCH  20  21
ATOM     21  C   UNL     1       5.124   4.710  18.183  0.00  0.00    +0.000 A 
ATOM     22  C   UNL     1       4.524   4.329  16.970  0.00  0.00    +0.000 A 
ATOM     23  C   UNL     1       5.305   4.156  15.825  0.00  0.00    +0.000 A 
ATOM     24  C   UNL     1       6.681   4.365  15.887  0.00  0.00    +0.000 A 
ATOM     25  F   UNL     1       7.423   4.205  14.786  0.00  0.00    +0.000 F 
ATOM     26  C   UNL     1       7.289   4.752  17.072  0.00  0.00    +0.000 A 
ATOM     27  C   UNL     1       6.506   4.921  18.207  0.00  0.00    +0.000 A 
ATOM     28  F   UNL     1       7.102   5.308  19.343  0.00  0.00    +0.000 F 
ENDBRANCH  20  21
ENDBRANCH  18  20
ENDBRANCH   1  17
BRANCH   5  29
ATOM     29  O   UNL     1       1.225  10.701  17.694  0.00  0.00    +0.000 OA
ATOM     30  H   UNL     1       1.333  10.116  16.912  0.00  0.00    +0.000 HD
ENDBRANCH   5  29
BRANCH  11  31
ATOM     31  C   UNL     1      -1.929  14.072  21.009  0.00  0.00    +0.000 C 
BRANCH  31  32
ATOM     32  C   UNL     1      -3.291  13.404  21.082  0.00  0.00    +0.000 A 
ATOM     33  C   UNL     1      -4.103  13.564  22.217  0.00  0.00    +0.000 A 
ATOM     34  C   UNL     1      -5.376  12.989  22.277  0.00  0.00    +0.000 A 
ATOM     35  C   UNL     1      -5.849  12.253  21.198  0.00  0.00    +0.000 A 
ATOM     36  C   UNL     1      -5.074  12.099  20.056  0.00  0.00    +0.000 A 
ATOM     37  C   UNL     1      -3.798  12.675  19.994  0.00  0.00    +0.000 A 
BRANCH  35  38
ATOM     38  O   UNL     1      -7.081  11.671  21.222  0.00  0.00    +0.000 OA
ATOM     39  H   UNL     1      -7.272  11.311  20.341  0.00  0.00    +0.000 HD
ENDBRANCH  35  38
ENDBRANCH  31  32
ENDBRANCH  11  31
TORSDOF 7
ENDMDL
MODEL 4
REMARK VINA RESULT:      -9.0      1.500      1.843
REMARK  Name = 
REMARK  7 active torsions:
REMARK  status: ('A' for Active; 'I' for Inactive)
REMARK    1  A    between atoms: C_2  and  C_13
REMARK    2  A    between atoms: N_3  and  C_4
REMARK    3  A    between atoms: C_4  and  C_5
REMARK    4  A    between atoms: C_17  and  O_18
REMARK    5  A    between atoms: C_24  and  C_25
REMARK    6  A    between atoms: C_25  and  C_26
REMARK    7  A    between atoms: C_29  and  O_30
REMARK                            x       y       z     vdW  Elec       q    Type
REMARK                         _______ _______ _______ _____ _____    ______ ____
ROOT
ATOM      1  C   UNL     1       0.818   9.409  21.225  0.00  0.00    +0.000 A 
ATOM      2  C   UNL     1       1.248   8.155  21.405  0.00  0.00    +0.000 A 
ATOM      3  N   UNL     1       1.855   7.373  20.437  0.00  0.00    +0.000 N 
ATOM      4  C   UNL     1       2.063   7.919  19.154  0.00  0.00    +0.000 A 
ATOM      5  C   UNL     1       1.711   9.187  18.829  0.00  0.00    +0.000 A 
ATOM      6  C   UNL     1       0.999  10.008  19.877  0.00  0.00    +0.000 A 
ATOM      7  O   UNL     1       0.550  11.125  19.622  0.00  0.00    +0.000 OA
ATOM      8  C   UNL     1       2.644   7.047  18.049  0.00  0.00    +0.000 C 
ATOM      9  O   UNL     1       2.710   7.452  16.889  0.00  0.00    +0.000 OA
ATOM     10  N   UNL     1       3.006   5.778  18.416  0.00  0.00    +0.000 N 
ATOM     11  C   UNL     1       3.251   4.679  17.507  0.00  0.00    +0.000 C 
ATOM     12  C   UNL     1       3.272   3.477  18.445  0.00  0.00    +0.000 C 
ATOM     13  O   UNL     1       3.213   3.963  19.800  0.00  0.00    +0.000 OA
ATOM     14  C   UNL     1       3.177   5.390  19.783  0.00  0.00    +0.000 C 
ATOM     15  C   UNL     1       2.071   5.934  20.689  0.00  0.00    +0.000 C 
ENDROOT
BRANCH   1  17
ATOM     16  O   UNL     1       0.387   9.756  23.527  0.00  0.00    +0.000 OA
ATOM     17  C   UNL     1       0.114  10.056  22.363  0.00  0.00    +0.000 C 
ATOM     18  N   UNL     1      -0.872  10.935  22.030  0.00  0.00    +0.000 N 
ATOM     19  H   UNL     1      -1.007  11.180  21.049  0.00  0.00    +0.000 HD
BRANCH  18  20
ATOM     20  C   UNL     1      -1.716  11.558  23.023  0.00  0.00    +0.000 C 
BRANCH  20  21
ATOM     21  C   UNL     1      -1.533  13.052  23.045  0.00  0.00    +0.000 A 
ATOM     22  C   UNL     1      -0.468  13.669  22.365  0.00  0.00    +0.000 A 
ATOM     23  C   UNL     1      -0.340  15.059  22.378  0.00  0.00    +0.000 A 
ATOM     24  C   UNL     1      -1.272  15.835  23.063  0.00  0.00    +0.000 A 
ATOM     25  F   UNL     1      -1.148  17.166  23.065  0.00  0.00    +0.000 F 
ATOM     26  C   UNL     1      -2.336  15.246  23.730  0.00  0.00    +0.000 A 
ATOM     27  C   UNL     1      -2.457  13.862  23.715  0.00  0.00    +0.000 A 
ATOM     28  F   UNL     1      -3.495  13.303  24.351  0.00  0.00    +0.000 F 
ENDBRANCH  20  21
ENDBRANCH  18  20
ENDBRANCH   1  17
BRANCH   5  29
ATOM     29  O   UNL     1       1.908   9.784  17.593  0.00  0.00    +0.000 OA
ATOM     30  H   UNL     1       1.494   9.220  16.903  0.00  0.00    +0.000 HD
ENDBRANCH   5  29
BRANCH  11  31
ATOM     31  C   UNL     1       4.531   4.829  16.659  0.00  0.00    +0.000 C 
BRANCH  31  32
ATOM     32  C   UNL     1       5.661   5.589  17.332  0.00  0.00    +0.000 A 
ATOM     33  C   UNL     1       6.392   5.001  18.378  0.00  0.00    +0.000 A 
ATOM     34  C   UNL     1       7.461   5.674  18.975  0.00  0.00    +0.000 A 
ATOM     35  C   UNL     1       7.812   6.941  18.526  0.00  0.00    +0.000 A 
ATOM     36  C   UNL     1       7.119   7.535  17.479  0.00  0.00    +0.000 A 
ATOM     37  C   UNL     1       6.048   6.861  16.879  0.00  0.00    +0.000 A 
BRANCH  35  38
ATOM     38  O   UNL     1       8.843   7.633  19.088  0.00  0.00    +0.000 OA
ATOM     39  H   UNL     1       8.479   8.366  19.610  0.00  0.00    +0.000 HD
ENDBRANCH  35  38
ENDBRANCH  31  32
ENDBRANCH  11  31
TORSDOF 7
ENDMDL
MODEL 5
REMARK VINA RESULT:      -8.9      4.028     10.491
REMARK  Name = 
REMARK  7 active torsions:
REMARK  status: ('A' for Active; 'I' for Inactive)
REMARK    1  A    between atoms: C_2  and  C_13
REMARK    2  A    between atoms: N_3  and  C_4
REMARK    3  A    between atoms: C_4  and  C_5
REMARK    4  A    between atoms: C_17  and  O_18
REMARK    5  A    between atoms: C_24  and  C_25
REMARK    6  A    between atoms: C_25  and  C_26
REMARK    7  A    between atoms: C_29  and  O_30
REMARK                            x       y       z     vdW  Elec       q    Type
REMARK                         _______ _______ _______ _____ _____    ______ ____
ROOT
ATOM      1  C   UNL     1       1.738   7.745  19.970  0.00  0.00    +0.000 A 
ATOM      2  C   UNL     1       1.087   8.210  21.042  0.00  0.00    +0.000 A 
ATOM      3  N   UNL     1       0.522   9.469  21.149  0.00  0.00    +0.000 N 
ATOM      4  C   UNL     1       0.613  10.350  20.052  0.00  0.00    +0.000 A 
ATOM      5  C   UNL     1       1.214  10.011  18.885  0.00  0.00    +0.000 A 
ATOM      6  C   UNL     1       1.874   8.656  18.804  0.00  0.00    +0.000 A 
ATOM      7  O   UNL     1       2.533   8.321  17.820  0.00  0.00    +0.000 OA
ATOM      8  C   UNL     1       0.080  11.770  20.181  0.00  0.00    +0.000 C 
ATOM      9  O   UNL     1       0.266  12.601  19.292  0.00  0.00    +0.000 OA
ATOM     10  N   UNL     1      -0.538  12.073  21.365  0.00  0.00    +0.000 N 
ATOM     11  C   UNL     1      -0.811  13.409  21.852  0.00  0.00    +0.000 C 
ATOM     12  C   UNL     1      -1.176  13.156  23.311  0.00  0.00    +0.000 C 
ATOM     13  O   UNL     1      -1.255  11.732  23.515  0.00  0.00    +0.000 OA
ATOM     14  C   UNL     1      -0.985  11.068  22.280  0.00  0.00    +0.000 C 
ATOM     15  C   UNL     1       0.037   9.944  22.461  0.00  0.00    +0.000 C 
ENDROOT
BRANCH   1  17
ATOM     16  O   UNL     1       1.870   5.544  20.832  0.00  0.00    +0.000 OA
ATOM     17  C   UNL     1       2.348   6.394  20.078  0.00  0.00    +0.000 C 
ATOM     18  N   UNL     1       3.480   6.192  19.347  0.00  0.00    +0.000 N 
ATOM     19  H   UNL     1       3.789   6.919  18.701  0.00  0.00    +0.000 HD
BRANCH  18  20
ATOM     20  C   UNL     1       4.245   4.970  19.435  0.00  0.00    +0.000 C 
BRANCH  20  21
ATOM     21  C   UNL     1       5.075   4.748  18.197  0.00  0.00    +0.000 A 
ATOM     22  C   UNL     1       6.471   4.915  18.213  0.00  0.00    +0.000 A 
ATOM     23  C   UNL     1       7.219   4.674  17.059  0.00  0.00    +0.000 A 
ATOM     24  C   UNL     1       6.579   4.264  15.892  0.00  0.00    +0.000 A 
ATOM     25  F   UNL     1       7.301   4.028  14.792  0.00  0.00    +0.000 F 
ATOM     26  C   UNL     1       5.204   4.083  15.860  0.00  0.00    +0.000 A 
ATOM     27  C   UNL     1       4.466   4.326  17.011  0.00  0.00    +0.000 A 
ATOM     28  F   UNL     1       3.140   4.135  16.974  0.00  0.00    +0.000 F 
ENDBRANCH  20  21
ENDBRANCH  18  20
ENDBRANCH   1  17
BRANCH   5  29
ATOM     29  O   UNL     1       1.315  10.826  17.768  0.00  0.00    +0.000 OA
ATOM     30  H   UNL     1       0.681  11.571  17.864  0.00  0.00    +0.000 HD
ENDBRANCH   5  29
BRANCH  11  31
ATOM     31  C   UNL     1      -1.898  14.164  21.060  0.00  0.00    +0.000 C 
BRANCH  31  32
ATOM     32  C   UNL     1      -3.251  13.476  21.012  0.00  0.00    +0.000 A 
ATOM     33  C   UNL     1      -4.169  13.634  22.064  0.00  0.00    +0.000 A 
ATOM     34  C   UNL     1      -5.433  13.041  22.010  0.00  0.00    +0.000 A 
ATOM     35  C   UNL     1      -5.792  12.288  20.899  0.00  0.00    +0.000 A 
ATOM     36  C   UNL     1      -4.912  12.136  19.837  0.00  0.00    +0.000 A 
ATOM     37  C   UNL     1      -3.644  12.730  19.888  0.00  0.00    +0.000 A 
BRANCH  35  38
ATOM     38  O   UNL     1      -7.013  11.688  20.813  0.00  0.00    +0.000 OA
ATOM     39  H   UNL     1      -6.970  10.828  21.261  0.00  0.00    +0.000 HD
ENDBRANCH  35  38
ENDBRANCH  31  32
ENDBRANCH  11  31
TORSDOF 7
ENDMDL
MODEL 6
REMARK VINA RESULT:      -8.9      4.273     10.842
REMARK  Name = 
REMARK  7 active torsions:
REMARK  status: ('A' for Active; 'I' for Inactive)
REMARK    1  A    between atoms: C_2  and  C_13
REMARK    2  A    between atoms: N_3  and  C_4
REMARK    3  A    between atoms: C_4  and  C_5
REMARK    4  A    between atoms: C_17  and  O_18
REMARK    5  A    between atoms: C_24  and  C_25
REMARK    6  A    between atoms: C_25  and  C_26
REMARK    7  A    between atoms: C_29  and  O_30
REMARK                            x       y       z     vdW  Elec       q    Type
REMARK                         _______ _______ _______ _____ _____    ______ ____
ROOT
ATOM      1  C   UNL     1       2.099   7.515  19.724  0.00  0.00    +0.000 A 
ATOM      2  C   UNL     1       1.442   7.901  20.824  0.00  0.00    +0.000 A 
ATOM      3  N   UNL     1       0.768   9.102  20.971  0.00  0.00    +0.000 N 
ATOM      4  C   UNL     1       0.743  10.005  19.889  0.00  0.00    +0.000 A 
ATOM      5  C   UNL     1       1.336   9.741  18.699  0.00  0.00    +0.000 A 
ATOM      6  C   UNL     1       2.114   8.454  18.572  0.00  0.00    +0.000 A 
ATOM      7  O   UNL     1       2.770   8.197  17.563  0.00  0.00    +0.000 OA
ATOM      8  C   UNL     1       0.088  11.368  20.061  0.00  0.00    +0.000 C 
ATOM      9  O   UNL     1       0.169  12.227  19.183  0.00  0.00    +0.000 OA
ATOM     10  N   UNL     1      -0.518  11.594  21.269  0.00  0.00    +0.000 N 
ATOM     11  C   UNL     1      -0.896  12.891  21.789  0.00  0.00    +0.000 C 
ATOM     12  C   UNL     1      -1.190  12.582  23.253  0.00  0.00    +0.000 C 
ATOM     13  O   UNL     1      -1.132  11.153  23.432  0.00  0.00    +0.000 OA
ATOM     14  C   UNL     1      -0.842  10.538  22.178  0.00  0.00    +0.000 C 
ATOM     15  C   UNL     1       0.283   9.509  22.306  0.00  0.00    +0.000 C 
ENDROOT
BRANCH   1  17
ATOM     16  O   UNL     1       2.400   5.286  20.459  0.00  0.00    +0.000 OA
ATOM     17  C   UNL     1       2.832   6.225  19.788  0.00  0.00    +0.000 C 
ATOM     18  N   UNL     1       4.017   6.180  19.118  0.00  0.00    +0.000 N 
ATOM     19  H   UNL     1       4.288   6.974  18.537  0.00  0.00    +0.000 HD
BRANCH  18  20
ATOM     20  C   UNL     1       4.894   5.034  19.178  0.00  0.00    +0.000 C 
BRANCH  20  21
ATOM     21  C   UNL     1       5.416   4.665  17.815  0.00  0.00    +0.000 A 
ATOM     22  C   UNL     1       4.546   4.288  16.776  0.00  0.00    +0.000 A 
ATOM     23  C   UNL     1       5.055   3.980  15.513  0.00  0.00    +0.000 A 
ATOM     24  C   UNL     1       6.427   4.049  15.283  0.00  0.00    +0.000 A 
ATOM     25  F   UNL     1       6.907   3.760  14.069  0.00  0.00    +0.000 F 
ATOM     26  C   UNL     1       7.299   4.430  16.291  0.00  0.00    +0.000 A 
ATOM     27  C   UNL     1       6.787   4.734  17.546  0.00  0.00    +0.000 A 
ATOM     28  F   UNL     1       7.637   5.114  18.510  0.00  0.00    +0.000 F 
ENDBRANCH  20  21
ENDBRANCH  18  20
ENDBRANCH   1  17
BRANCH   5  29
ATOM     29  O   UNL     1       1.327  10.581  17.594  0.00  0.00    +0.000 OA
ATOM     30  H   UNL     1       1.518  10.046  16.792  0.00  0.00    +0.000 HD
ENDBRANCH   5  29
BRANCH  11  31
ATOM     31  C   UNL     1      -2.072  13.556  21.044  0.00  0.00    +0.000 C 
BRANCH  31  32
ATOM     32  C   UNL     1      -3.305  13.814  21.892  0.00  0.00    +0.000 A 
ATOM     33  C   UNL     1      -4.289  12.822  22.040  0.00  0.00    +0.000 A 
ATOM     34  C   UNL     1      -5.406  13.033  22.853  0.00  0.00    +0.000 A 
ATOM     35  C   UNL     1      -5.546  14.239  23.529  0.00  0.00    +0.000 A 
ATOM     36  C   UNL     1      -4.576  15.226  23.416  0.00  0.00    +0.000 A 
ATOM     37  C   UNL     1      -3.455  15.016  22.602  0.00  0.00    +0.000 A 
BRANCH  35  38
ATOM     38  O   UNL     1      -6.625  14.485  24.324  0.00  0.00    +0.000 OA
ATOM     39  H   UNL     1      -6.310  14.777  25.195  0.00  0.00    +0.000 HD
ENDBRANCH  35  38
ENDBRANCH  31  32
ENDBRANCH  11  31
TORSDOF 7
ENDMDL
MODEL 7
REMARK VINA RESULT:      -8.8      4.120     10.800
REMARK  Name = 
REMARK  7 active torsions:
REMARK  status: ('A' for Active; 'I' for Inactive)
REMARK    1  A    between atoms: C_2  and  C_13
REMARK    2  A    between atoms: N_3  and  C_4
REMARK    3  A    between atoms: C_4  and  C_5
REMARK    4  A    between atoms: C_17  and  O_18
REMARK    5  A    between atoms: C_24  and  C_25
REMARK    6  A    between atoms: C_25  and  C_26
REMARK    7  A    between atoms: C_29  and  O_30
REMARK                            x       y       z     vdW  Elec       q    Type
REMARK                         _______ _______ _______ _____ _____    ______ ____
ROOT
ATOM      1  C   UNL     1       1.994   7.542  19.810  0.00  0.00    +0.000 A 
ATOM      2  C   UNL     1       1.347   7.939  20.911  0.00  0.00    +0.000 A 
ATOM      3  N   UNL     1       0.679   9.144  21.054  0.00  0.00    +0.000 N 
ATOM      4  C   UNL     1       0.649  10.037  19.964  0.00  0.00    +0.000 A 
ATOM      5  C   UNL     1       1.232   9.761  18.771  0.00  0.00    +0.000 A 
ATOM      6  C   UNL     1       2.004   8.470  18.650  0.00  0.00    +0.000 A 
ATOM      7  O   UNL     1       2.652   8.202  17.638  0.00  0.00    +0.000 OA
ATOM      8  C   UNL     1       0.000  11.405  20.128  0.00  0.00    +0.000 C 
ATOM      9  O   UNL     1       0.078  12.255  19.243  0.00  0.00    +0.000 OA
ATOM     10  N   UNL     1      -0.596  11.643  21.339  0.00  0.00    +0.000 N 
ATOM     11  C   UNL     1      -0.965  12.946  21.851  0.00  0.00    +0.000 C 
ATOM     12  C   UNL     1      -1.250  12.651  23.319  0.00  0.00    +0.000 C 
ATOM     13  O   UNL     1      -1.196  11.223  23.510  0.00  0.00    +0.000 OA
ATOM     14  C   UNL     1      -0.917  10.596  22.259  0.00  0.00    +0.000 C 
ATOM     15  C   UNL     1       0.206   9.564  22.388  0.00  0.00    +0.000 C 
ENDROOT
BRANCH   1  17
ATOM     16  O   UNL     1       2.291   5.316  20.560  0.00  0.00    +0.000 OA
ATOM     17  C   UNL     1       2.724   6.249  19.880  0.00  0.00    +0.000 C 
ATOM     18  N   UNL     1       3.905   6.195  19.204  0.00  0.00    +0.000 N 
ATOM     19  H   UNL     1       4.176   6.984  18.616  0.00  0.00    +0.000 HD
BRANCH  18  20
ATOM     20  C   UNL     1       4.778   5.046  19.269  0.00  0.00    +0.000 C 
BRANCH  20  21
ATOM     21  C   UNL     1       5.402   4.751  17.931  0.00  0.00    +0.000 A 
ATOM     22  C   UNL     1       6.789   4.864  17.730  0.00  0.00    +0.000 A 
ATOM     23  C   UNL     1       7.345   4.555  16.487  0.00  0.00    +0.000 A 
ATOM     24  C   UNL     1       6.523   4.131  15.446  0.00  0.00    +0.000 A 
ATOM     25  F   UNL     1       7.062   3.830  14.260  0.00  0.00    +0.000 F 
ATOM     26  C   UNL     1       5.154   4.002  15.628  0.00  0.00    +0.000 A 
ATOM     27  C   UNL     1       4.607   4.313  16.867  0.00  0.00    +0.000 A 
ATOM     28  F   UNL     1       3.285   4.172  17.036  0.00  0.00    +0.000 F 
ENDBRANCH  20  21
ENDBRANCH  18  20
ENDBRANCH   1  17
BRANCH   5  29
ATOM     29  O   UNL     1       1.218  10.591  17.660  0.00  0.00    +0.000 OA
ATOM     30  H   UNL     1       1.559  11.475  17.924  0.00  0.00    +0.000 HD
ENDBRANCH   5  29
BRANCH  11  31
ATOM     31  C   UNL     1      -2.144  13.608  21.109  0.00  0.00    +0.000 C 
BRANCH  31  32
ATOM     32  C   UNL     1      -3.382  13.847  21.955  0.00  0.00    +0.000 A 
ATOM     33  C   UNL     1      -4.368  12.853  22.071  0.00  0.00    +0.000 A 
ATOM     34  C   UNL     1      -5.491  13.046  22.881  0.00  0.00    +0.000 A 
ATOM     35  C   UNL     1      -5.633  14.233  23.587  0.00  0.00    +0.000 A 
ATOM     36  C   UNL     1      -4.662  15.222  23.506  0.00  0.00    +0.000 A 
ATOM     37  C   UNL     1      -3.536  15.031  22.695  0.00  0.00    +0.000 A 
BRANCH  35  38
ATOM     38  O   UNL     1      -6.717  14.461  24.382  0.00  0.00    +0.000 OA
ATOM     39  H   UNL     1      -7.498  14.579  23.817  0.00  0.00    +0.000 HD
ENDBRANCH  35  38
ENDBRANCH  31  32
ENDBRANCH  11  31
TORSDOF 7
ENDMDL
MODEL 8
REMARK VINA RESULT:      -8.7      0.817      1.170
REMARK  Name = 
REMARK  7 active torsions:
REMARK  status: ('A' for Active; 'I' for Inactive)
REMARK    1  A    between atoms: C_2  and  C_13
REMARK    2  A    between atoms: N_3  and  C_4
REMARK    3  A    between atoms: C_4  and  C_5
REMARK    4  A    between atoms: C_17  and  O_18
REMARK    5  A    between atoms: C_24  and  C_25
REMARK    6  A    between atoms: C_25  and  C_26
REMARK    7  A    between atoms: C_29  and  O_30
REMARK                            x       y       z     vdW  Elec       q    Type
REMARK                         _______ _______ _______ _____ _____    ______ ____
ROOT
ATOM      1  C   UNL     1       0.795   9.763  21.140  0.00  0.00    +0.000 A 
ATOM      2  C   UNL     1       1.171   8.502  21.385  0.00  0.00    +0.000 A 
ATOM      3  N   UNL     1       1.734   7.643  20.457  0.00  0.00    +0.000 N 
ATOM      4  C   UNL     1       1.952   8.108  19.145  0.00  0.00    +0.000 A 
ATOM      5  C   UNL     1       1.652   9.371  18.753  0.00  0.00    +0.000 A 
ATOM      6  C   UNL     1       0.988  10.278  19.760  0.00  0.00    +0.000 A 
ATOM      7  O   UNL     1       0.585  11.398  19.447  0.00  0.00    +0.000 OA
ATOM      8  C   UNL     1       2.484   7.153  18.085  0.00  0.00    +0.000 C 
ATOM      9  O   UNL     1       2.556   7.490  16.904  0.00  0.00    +0.000 OA
ATOM     10  N   UNL     1       2.794   5.891  18.518  0.00  0.00    +0.000 N 
ATOM     11  C   UNL     1       2.982   4.734  17.669  0.00  0.00    +0.000 C 
ATOM     12  C   UNL     1       2.960   3.585  18.672  0.00  0.00    +0.000 C 
ATOM     13  O   UNL     1       2.936   4.147  19.999  0.00  0.00    +0.000 OA
ATOM     14  C   UNL     1       2.962   5.571  19.903  0.00  0.00    +0.000 C 
ATOM     15  C   UNL     1       1.889   6.211  20.787  0.00  0.00    +0.000 C 
ENDROOT
BRANCH   1  17
ATOM     16  O   UNL     1       0.040  10.005  23.371  0.00  0.00    +0.000 OA
ATOM     17  C   UNL     1       0.131  10.501  22.246  0.00  0.00    +0.000 C 
ATOM     18  N   UNL     1      -0.410  11.707  21.916  0.00  0.00    +0.000 N 
ATOM     19  H   UNL     1      -0.249  12.083  20.981  0.00  0.00    +0.000 HD
BRANCH  18  20
ATOM     20  C   UNL     1      -1.180  12.488  22.855  0.00  0.00    +0.000 C 
BRANCH  20  21
ATOM     21  C   UNL     1      -2.608  12.646  22.402  0.00  0.00    +0.000 A 
ATOM     22  C   UNL     1      -3.678  12.541  23.307  0.00  0.00    +0.000 A 
ATOM     23  C   UNL     1      -4.990  12.721  22.865  0.00  0.00    +0.000 A 
ATOM     24  C   UNL     1      -5.237  13.009  21.525  0.00  0.00    +0.000 A 
ATOM     25  F   UNL     1      -6.495  13.188  21.109  0.00  0.00    +0.000 F 
ATOM     26  C   UNL     1      -4.193  13.128  20.619  0.00  0.00    +0.000 A 
ATOM     27  C   UNL     1      -2.890  12.946  21.065  0.00  0.00    +0.000 A 
ATOM     28  F   UNL     1      -1.888  13.076  20.185  0.00  0.00    +0.000 F 
ENDBRANCH  20  21
ENDBRANCH  18  20
ENDBRANCH   1  17
BRANCH   5  29
ATOM     29  O   UNL     1       1.863   9.890  17.484  0.00  0.00    +0.000 OA
ATOM     30  H   UNL     1       1.093  10.451  17.243  0.00  0.00    +0.000 HD
ENDBRANCH   5  29
BRANCH  11  31
ATOM     31  C   UNL     1       4.259   4.781  16.804  0.00  0.00    +0.000 C 
BRANCH  31  32
ATOM     32  C   UNL     1       5.433   5.509  17.434  0.00  0.00    +0.000 A 
ATOM     33  C   UNL     1       6.148   4.926  18.494  0.00  0.00    +0.000 A 
ATOM     34  C   UNL     1       7.257   5.568  19.053  0.00  0.00    +0.000 A 
ATOM     35  C   UNL     1       7.664   6.797  18.550  0.00  0.00    +0.000 A 
ATOM     36  C   UNL     1       6.988   7.383  17.488  0.00  0.00    +0.000 A 
ATOM     37  C   UNL     1       5.877   6.741  16.926  0.00  0.00    +0.000 A 
BRANCH  35  38
ATOM     38  O   UNL     1       8.736   7.457  19.072  0.00  0.00    +0.000 OA
ATOM     39  H   UNL     1       9.098   6.933  19.805  0.00  0.00    +0.000 HD
ENDBRANCH  35  38
ENDBRANCH  31  32
ENDBRANCH  11  31
TORSDOF 7
ENDMDL
MODEL 9
REMARK VINA RESULT:      -8.7      4.285     10.850
REMARK  Name = 
REMARK  7 active torsions:
REMARK  status: ('A' for Active; 'I' for Inactive)
REMARK    1  A    between atoms: C_2  and  C_13
REMARK    2  A    between atoms: N_3  and  C_4
REMARK    3  A    between atoms: C_4  and  C_5
REMARK    4  A    between atoms: C_17  and  O_18
REMARK    5  A    between atoms: C_24  and  C_25
REMARK    6  A    between atoms: C_25  and  C_26
REMARK    7  A    between atoms: C_29  and  O_30
REMARK                            x       y       z     vdW  Elec       q    Type
REMARK                         _______ _______ _______ _____ _____    ______ ____
ROOT
ATOM      1  C   UNL     1       2.427   7.308  19.302  0.00  0.00    +0.000 A 
ATOM      2  C   UNL     1       1.819   7.570  20.465  0.00  0.00    +0.000 A 
ATOM      3  N   UNL     1       1.020   8.672  20.718  0.00  0.00    +0.000 N 
ATOM      4  C   UNL     1       0.800   9.603  19.683  0.00  0.00    +0.000 A 
ATOM      5  C   UNL     1       1.322   9.458  18.441  0.00  0.00    +0.000 A 
ATOM      6  C   UNL     1       2.237   8.283  18.197  0.00  0.00    +0.000 A 
ATOM      7  O   UNL     1       2.836   8.146  17.131  0.00  0.00    +0.000 OA
ATOM      8  C   UNL     1       0.001  10.868  19.966  0.00  0.00    +0.000 C 
ATOM      9  O   UNL     1      -0.093  11.762  19.125  0.00  0.00    +0.000 OA
ATOM     10  N   UNL     1      -0.528  10.973  21.226  0.00  0.00    +0.000 N 
ATOM     11  C   UNL     1      -1.017  12.194  21.832  0.00  0.00    +0.000 C 
ATOM     12  C   UNL     1      -1.153  11.798  23.298  0.00  0.00    +0.000 C 
ATOM     13  O   UNL     1      -0.909  10.382  23.406  0.00  0.00    +0.000 OA
ATOM     14  C   UNL     1      -0.649   9.853  22.107  0.00  0.00    +0.000 C 
ATOM     15  C   UNL     1       0.599   8.967  22.103  0.00  0.00    +0.000 C 
ENDROOT
BRANCH   1  17
ATOM     16  O   UNL     1       3.083   5.128  19.952  0.00  0.00    +0.000 OA
ATOM     17  C   UNL     1       3.314   6.117  19.252  0.00  0.00    +0.000 C 
ATOM     18  N   UNL     1       4.405   6.221  18.443  0.00  0.00    +0.000 N 
ATOM     19  H   UNL     1       4.504   7.044  17.849  0.00  0.00    +0.000 HD
BRANCH  18  20
ATOM     20  C   UNL     1       5.414   5.190  18.374  0.00  0.00    +0.000 C 
BRANCH  20  21
ATOM     21  C   UNL     1       5.786   4.875  16.950  0.00  0.00    +0.000 A 
ATOM     22  C   UNL     1       7.031   5.256  16.418  0.00  0.00    +0.000 A 
ATOM     23  C   UNL     1       7.362   4.925  15.103  0.00  0.00    +0.000 A 
ATOM     24  C   UNL     1       6.457   4.213  14.318  0.00  0.00    +0.000 A 
ATOM     25  F   UNL     1       6.783   3.893  13.062  0.00  0.00    +0.000 F 
ATOM     26  C   UNL     1       5.229   3.818  14.829  0.00  0.00    +0.000 A 
ATOM     27  C   UNL     1       4.906   4.152  16.138  0.00  0.00    +0.000 A 
ATOM     28  F   UNL     1       3.723   3.755  16.626  0.00  0.00    +0.000 F 
ENDBRANCH  20  21
ENDBRANCH  18  20
ENDBRANCH   1  17
BRANCH   5  29
ATOM     29  O   UNL     1       1.124  10.330  17.380  0.00  0.00    +0.000 OA
ATOM     30  H   UNL     1       0.250  10.135  16.974  0.00  0.00    +0.000 HD
ENDBRANCH   5  29
BRANCH  11  31
ATOM     31  C   UNL     1      -2.320  12.735  21.209  0.00  0.00    +0.000 C 
BRANCH  31  32
ATOM     32  C   UNL     1      -3.176  13.575  22.140  0.00  0.00    +0.000 A 
ATOM     33  C   UNL     1      -2.768  14.867  22.512  0.00  0.00    +0.000 A 
ATOM     34  C   UNL     1      -3.568  15.665  23.334  0.00  0.00    +0.000 A 
ATOM     35  C   UNL     1      -4.788  15.179  23.786  0.00  0.00    +0.000 A 
ATOM     36  C   UNL     1      -5.224  13.915  23.414  0.00  0.00    +0.000 A 
ATOM     37  C   UNL     1      -4.424  13.113  22.590  0.00  0.00    +0.000 A 
BRANCH  35  38
ATOM     38  O   UNL     1      -5.593  15.925  24.594  0.00  0.00    +0.000 OA
ATOM     39  H   UNL     1      -5.828  15.396  25.374  0.00  0.00    +0.000 HD
ENDBRANCH  35  38
ENDBRANCH  31  32
ENDBRANCH  11  31
TORSDOF 7
ENDMDL
