MODEL 1
REMARK VINA RESULT:      -8.2      0.000      0.000
REMARK  Name = 
REMARK  6 active torsions:
REMARK  status: ('A' for Active; 'I' for Inactive)
REMARK    1  A    between atoms: C_1  and  S_2
REMARK    2  A    between atoms: S_2  and  C_5
REMARK    3  A    between atoms: C_8  and  C_9
REMARK    4  A    between atoms: C_9  and  C_10
REMARK    5  A    between atoms: C_9  and  C_16
REMARK    6  A    between atoms: C_10  and  C_11
REMARK                            x       y       z     vdW  Elec       q    Type
REMARK                         _______ _______ _______ _____ _____    ______ ____
ROOT
ATOM      1  C   UNL     1       3.158   5.993  18.433  0.00  0.00    +0.000 C 
ENDROOT
BRANCH   1   2
ATOM      2  C   UNL     1       4.346   6.064  17.463  0.00  0.00    +0.000 C 
ATOM      3  O   UNL     1       5.036   7.082  17.417  0.00  0.00    +0.000 OA
ATOM      4  N   UNL     1       4.473   5.010  16.581  0.00  0.00    +0.000 N 
ATOM      5  C   UNL     1       5.564   4.946  15.753  0.00  0.00    +0.000 A 
ATOM      6  N   UNL     1       6.698   5.587  15.862  0.00  0.00    +0.000 NA
ATOM      7  C   UNL     1       7.469   5.350  14.748  0.00  0.00    +0.000 A 
ATOM      8  C   UNL     1       6.920   4.488  13.824  0.00  0.00    +0.000 A 
ATOM      9  S   UNL     1       5.411   3.905  14.410  0.00  0.00    +0.000 S 
ATOM     10  H   UNL     1       3.715   4.364  16.413  0.00  0.00    +0.000 HD
ENDBRANCH   1   2
BRANCH   1  14
ATOM     11  C   UNL     1       1.275   9.775  19.414  0.00  0.00    +0.000 A 
ATOM     12  C   UNL     1       1.720   9.514  18.109  0.00  0.00    +0.000 A 
ATOM     13  C   UNL     1       2.291   8.280  17.794  0.00  0.00    +0.000 A 
ATOM     14  C   UNL     1       2.442   7.290  18.778  0.00  0.00    +0.000 A 
ATOM     15  C   UNL     1       1.973   7.561  20.070  0.00  0.00    +0.000 A 
ATOM     16  C   UNL     1       1.362   8.782  20.386  0.00  0.00    +0.000 A 
ATOM     17 BR   UNL     1       0.679   8.907  22.154  0.00  0.00    +0.000 Br
BRANCH  11  19
ATOM     18  C   UNL     1      -1.107  11.178  19.975  0.00  0.00    +0.000 C 
ATOM     19  S   UNL     1       0.640  11.403  19.754  0.00  0.00    +0.000 S 
ATOM     20  O   UNL     1       0.879  12.215  18.575  0.00  0.00    +0.000 OA
ATOM     21  O   UNL     1       1.170  11.814  21.037  0.00  0.00    +0.000 OA
ENDBRANCH  11  19
ENDBRANCH   1  14
BRANCH   1  22
ATOM     22  C   UNL     1       2.150   4.869  18.050  0.00  0.00    +0.000 C 
BRANCH  22  23
ATOM     23  C   UNL     1       2.030   3.658  19.003  0.00  0.00    +0.000 C 
ATOM     24  C   UNL     1       3.278   3.364  19.835  0.00  0.00    +0.000 C 
ATOM     25  C   UNL     1       2.767   2.646  21.071  0.00  0.00    +0.000 C 
ATOM     26  C   UNL     1       1.441   3.319  21.376  0.00  0.00    +0.000 C 
ATOM     27  C   UNL     1       0.913   3.852  20.045  0.00  0.00    +0.000 C 
ENDBRANCH  22  23
ENDBRANCH   1  22
TORSDOF 5
ENDMDL
MODEL 2
REMARK VINA RESULT:      -8.1      3.101      7.157
REMARK  Name = 
REMARK  6 active torsions:
REMARK  status: ('A' for Active; 'I' for Inactive)
REMARK    1  A    between atoms: C_1  and  S_2
REMARK    2  A    between atoms: S_2  and  C_5
REMARK    3  A    between atoms: C_8  and  C_9
REMARK    4  A    between atoms: C_9  and  C_10
REMARK    5  A    between atoms: C_9  and  C_16
REMARK    6  A    between atoms: C_10  and  C_11
REMARK                            x       y       z     vdW  Elec       q    Type
REMARK                         _______ _______ _______ _____ _____    ______ ____
ROOT
ATOM      1  C   UNL     1       2.380   6.139  19.219  0.00  0.00    +0.000 C 
ENDROOT
BRANCH   1   2
ATOM      2  C   UNL     1       1.939   7.592  19.445  0.00  0.00    +0.000 C 
ATOM      3  O   UNL     1       2.278   8.464  18.645  0.00  0.00    +0.000 OA
ATOM      4  N   UNL     1       1.299   7.854  20.640  0.00  0.00    +0.000 N 
ATOM      5  C   UNL     1       0.783   9.102  20.874  0.00  0.00    +0.000 A 
ATOM      6  N   UNL     1       0.527  10.045  20.005  0.00  0.00    +0.000 NA
ATOM      7  C   UNL     1       0.153  11.191  20.666  0.00  0.00    +0.000 A 
ATOM      8  C   UNL     1       0.086  11.084  22.039  0.00  0.00    +0.000 A 
ATOM      9  S   UNL     1       0.442   9.466  22.505  0.00  0.00    +0.000 S 
ATOM     10  H   UNL     1       1.332   7.205  21.413  0.00  0.00    +0.000 HD
ENDBRANCH   1   2
BRANCH   1  14
ATOM     11  C   UNL     1       5.724   5.266  16.600  0.00  0.00    +0.000 A 
ATOM     12  C   UNL     1       4.491   4.620  16.426  0.00  0.00    +0.000 A 
ATOM     13  C   UNL     1       3.409   4.934  17.249  0.00  0.00    +0.000 A 
ATOM     14  C   UNL     1       3.542   5.887  18.271  0.00  0.00    +0.000 A 
ATOM     15  C   UNL     1       4.775   6.537  18.417  0.00  0.00    +0.000 A 
ATOM     16  C   UNL     1       5.855   6.257  17.569  0.00  0.00    +0.000 A 
ATOM     17 BR   UNL     1       7.396   7.333  17.845  0.00  0.00    +0.000 Br
BRANCH  11  19
ATOM     18  C   UNL     1       6.357   3.611  14.405  0.00  0.00    +0.000 C 
ATOM     19  S   UNL     1       7.076   4.745  15.566  0.00  0.00    +0.000 S 
ATOM     20  O   UNL     1       8.020   4.039  16.412  0.00  0.00    +0.000 OA
ATOM     21  O   UNL     1       7.508   5.899  14.805  0.00  0.00    +0.000 OA
ENDBRANCH  11  19
ENDBRANCH   1  14
BRANCH   1  22
ATOM     22  C   UNL     1       2.556   5.362  20.557  0.00  0.00    +0.000 C 
BRANCH  22  23
ATOM     23  C   UNL     1       2.109   3.882  20.591  0.00  0.00    +0.000 C 
ATOM     24  C   UNL     1       0.946   3.536  19.661  0.00  0.00    +0.000 C 
ATOM     25  C   UNL     1       1.106   2.056  19.365  0.00  0.00    +0.000 C 
ATOM     26  C   UNL     1       2.609   1.848  19.285  0.00  0.00    +0.000 C 
ATOM     27  C   UNL     1       3.239   2.928  20.161  0.00  0.00    +0.000 C 
ENDBRANCH  22  23
ENDBRANCH   1  22
TORSDOF 5
ENDMDL
MODEL 3
REMARK VINA RESULT:      -8.0      1.105      1.328
REMARK  Name = 
REMARK  6 active torsions:
REMARK  status: ('A' for Active; 'I' for Inactive)
REMARK    1  A    between atoms: C_1  and  S_2
REMARK    2  A    between atoms: S_2  and  C_5
REMARK    3  A    between atoms: C_8  and  C_9
REMARK    4  A    between atoms: C_9  and  C_10
REMARK    5  A    between atoms: C_9  and  C_16
REMARK    6  A    between atoms: C_10  and  C_11
REMARK                            x       y       z     vdW  Elec       q    Type
REMARK                         _______ _______ _______ _____ _____    ______ ____
ROOT
ATOM      1  C   UNL     1       2.620   5.895  18.819  0.00  0.00    +0.000 C 
ENDROOT
BRANCH   1   2
ATOM      2  C   UNL     1       4.042   5.740  18.262  0.00  0.00    +0.000 C 
ATOM      3  O   UNL     1       4.996   6.203  18.887  0.00  0.00    +0.000 OA
ATOM      4  N   UNL     1       4.143   5.207  16.993  0.00  0.00    +0.000 N 
ATOM      5  C   UNL     1       5.378   4.939  16.465  0.00  0.00    +0.000 A 
ATOM      6  N   UNL     1       6.518   4.829  17.095  0.00  0.00    +0.000 NA
ATOM      7  C   UNL     1       7.539   4.699  16.182  0.00  0.00    +0.000 A 
ATOM      8  C   UNL     1       7.146   4.667  14.861  0.00  0.00    +0.000 A 
ATOM      9  S   UNL     1       5.429   4.736  14.772  0.00  0.00    +0.000 S 
ATOM     10  H   UNL     1       3.344   5.149  16.377  0.00  0.00    +0.000 HD
ENDBRANCH   1   2
BRANCH   1  14
ATOM     11  C   UNL     1       1.314   9.969  19.534  0.00  0.00    +0.000 A 
ATOM     12  C   UNL     1       1.797   9.582  18.274  0.00  0.00    +0.000 A 
ATOM     13  C   UNL     1       2.179   8.260  18.042  0.00  0.00    +0.000 A 
ATOM     14  C   UNL     1       2.103   7.304  19.067  0.00  0.00    +0.000 A 
ATOM     15  C   UNL     1       1.599   7.704  20.312  0.00  0.00    +0.000 A 
ATOM     16  C   UNL     1       1.174   9.019  20.542  0.00  0.00    +0.000 A 
ATOM     17 BR   UNL     1       0.405   9.330  22.251  0.00  0.00    +0.000 Br
BRANCH  11  19
ATOM     18  C   UNL     1       1.703  12.527  18.410  0.00  0.00    +0.000 C 
ATOM     19  S   UNL     1       0.930  11.691  19.772  0.00  0.00    +0.000 S 
ATOM     20  O   UNL     1       1.556  12.105  21.014  0.00  0.00    +0.000 OA
ATOM     21  O   UNL     1      -0.499  11.844  19.595  0.00  0.00    +0.000 OA
ENDBRANCH  11  19
ENDBRANCH   1  14
BRANCH   1  22
ATOM     22  C   UNL     1       1.583   5.036  18.036  0.00  0.00    +0.000 C 
BRANCH  22  23
ATOM     23  C   UNL     1       1.159   3.685  18.656  0.00  0.00    +0.000 C 
ATOM     24  C   UNL     1       2.178   2.556  18.507  0.00  0.00    +0.000 C 
ATOM     25  C   UNL     1       1.895   1.615  19.664  0.00  0.00    +0.000 C 
ATOM     26  C   UNL     1       1.509   2.533  20.811  0.00  0.00    +0.000 C 
ATOM     27  C   UNL     1       0.927   3.794  20.175  0.00  0.00    +0.000 C 
ENDBRANCH  22  23
ENDBRANCH   1  22
TORSDOF 5
ENDMDL
MODEL 4
REMARK VINA RESULT:      -8.0      3.013      6.803
REMARK  Name = 
REMARK  6 active torsions:
REMARK  status: ('A' for Active; 'I' for Inactive)
REMARK    1  A    between atoms: C_1  and  S_2
REMARK    2  A    between atoms: S_2  and  C_5
REMARK    3  A    between atoms: C_8  and  C_9
REMARK    4  A    between atoms: C_9  and  C_10
REMARK    5  A    between atoms: C_9  and  C_16
REMARK    6  A    between atoms: C_10  and  C_11
REMARK                            x       y       z     vdW  Elec       q    Type
REMARK                         _______ _______ _______ _____ _____    ______ ____
ROOT
ATOM      1  C   UNL     1       2.218   6.054  19.763  0.00  0.00    +0.000 C 
ENDROOT
BRANCH   1   2
ATOM      2  C   UNL     1       1.803   7.453  20.242  0.00  0.00    +0.000 C 
ATOM      3  O   UNL     1       1.763   7.698  21.448  0.00  0.00    +0.000 OA
ATOM      4  N   UNL     1       1.351   8.319  19.267  0.00  0.00    +0.000 N 
ATOM      5  C   UNL     1       1.060   9.618  19.595  0.00  0.00    +0.000 A 
ATOM      6  N   UNL     1       1.428  10.283  20.659  0.00  0.00    +0.000 NA
ATOM      7  C   UNL     1       0.806  11.510  20.673  0.00  0.00    +0.000 A 
ATOM      8  C   UNL     1       0.003  11.775  19.584  0.00  0.00    +0.000 A 
ATOM      9  S   UNL     1       0.089  10.462  18.475  0.00  0.00    +0.000 S 
ATOM     10  H   UNL     1       1.079   7.992  18.351  0.00  0.00    +0.000 HD
ENDBRANCH   1   2
BRANCH   1  14
ATOM     11  C   UNL     1       5.758   5.548  17.309  0.00  0.00    +0.000 A 
ATOM     12  C   UNL     1       4.492   5.691  16.719  0.00  0.00    +0.000 A 
ATOM     13  C   UNL     1       3.363   5.891  17.515  0.00  0.00    +0.000 A 
ATOM     14  C   UNL     1       3.474   5.936  18.914  0.00  0.00    +0.000 A 
ATOM     15  C   UNL     1       4.749   5.812  19.484  0.00  0.00    +0.000 A 
ATOM     16  C   UNL     1       5.893   5.652  18.690  0.00  0.00    +0.000 A 
ATOM     17 BR   UNL     1       7.536   5.632  19.642  0.00  0.00    +0.000 Br
BRANCH  11  19
ATOM     18  C   UNL     1       6.397   4.699  14.696  0.00  0.00    +0.000 C 
ATOM     19  S   UNL     1       7.131   5.209  16.229  0.00  0.00    +0.000 S 
ATOM     20  O   UNL     1       7.871   4.101  16.805  0.00  0.00    +0.000 OA
ATOM     21  O   UNL     1       7.798   6.468  15.969  0.00  0.00    +0.000 OA
ENDBRANCH  11  19
ENDBRANCH   1  14
BRANCH   1  22
ATOM     22  C   UNL     1       2.210   5.010  20.919  0.00  0.00    +0.000 C 
BRANCH  22  23
ATOM     23  C   UNL     1       1.767   3.569  20.578  0.00  0.00    +0.000 C 
ATOM     24  C   UNL     1       0.802   3.450  19.399  0.00  0.00    +0.000 C 
ATOM     25  C   UNL     1       1.016   2.049  18.855  0.00  0.00    +0.000 C 
ATOM     26  C   UNL     1       2.508   1.807  19.016  0.00  0.00    +0.000 C 
ATOM     27  C   UNL     1       2.959   2.676  20.188  0.00  0.00    +0.000 C 
ENDBRANCH  22  23
ENDBRANCH   1  22
TORSDOF 5
ENDMDL
MODEL 5
REMARK VINA RESULT:      -8.0      3.047      7.110
REMARK  Name = 
REMARK  6 active torsions:
REMARK  status: ('A' for Active; 'I' for Inactive)
REMARK    1  A    between atoms: C_1  and  S_2
REMARK    2  A    between atoms: S_2  and  C_5
REMARK    3  A    between atoms: C_8  and  C_9
REMARK    4  A    between atoms: C_9  and  C_10
REMARK    5  A    between atoms: C_9  and  C_16
REMARK    6  A    between atoms: C_10  and  C_11
REMARK                            x       y       z     vdW  Elec       q    Type
REMARK                         _______ _______ _______ _____ _____    ______ ____
ROOT
ATOM      1  C   UNL     1       2.339   6.819  18.795  0.00  0.00    +0.000 C 
ENDROOT
BRANCH   1   2
ATOM      2  C   UNL     1       1.904   8.290  18.725  0.00  0.00    +0.000 C 
ATOM      3  O   UNL     1       2.230   8.977  17.756  0.00  0.00    +0.000 OA
ATOM      4  N   UNL     1       1.286   8.795  19.850  0.00  0.00    +0.000 N 
ATOM      5  C   UNL     1       0.775  10.067  19.831  0.00  0.00    +0.000 A 
ATOM      6  N   UNL     1       0.505  10.812  18.791  0.00  0.00    +0.000 NA
ATOM      7  C   UNL     1       0.144  12.072  19.209  0.00  0.00    +0.000 A 
ATOM      8  C   UNL     1       0.101  12.249  20.575  0.00  0.00    +0.000 A 
ATOM      9  S   UNL     1       0.463  10.760  21.358  0.00  0.00    +0.000 S 
ATOM     10  H   UNL     1       1.330   8.319  20.739  0.00  0.00    +0.000 HD
ENDBRANCH   1   2
BRANCH   1  14
ATOM     11  C   UNL     1       5.784   5.461  16.537  0.00  0.00    +0.000 A 
ATOM     12  C   UNL     1       4.549   4.805  16.423  0.00  0.00    +0.000 A 
ATOM     13  C   UNL     1       3.436   5.271  17.124  0.00  0.00    +0.000 A 
ATOM     14  C   UNL     1       3.539   6.391  17.964  0.00  0.00    +0.000 A 
ATOM     15  C   UNL     1       4.775   7.046  18.050  0.00  0.00    +0.000 A 
ATOM     16  C   UNL     1       5.888   6.609  17.318  0.00  0.00    +0.000 A 
ATOM     17 BR   UNL     1       7.432   7.704  17.470  0.00  0.00    +0.000 Br
BRANCH  11  19
ATOM     18  C   UNL     1       6.471   3.522  14.608  0.00  0.00    +0.000 C 
ATOM     19  S   UNL     1       7.173   4.751  15.679  0.00  0.00    +0.000 S 
ATOM     20  O   UNL     1       8.011   4.107  16.672  0.00  0.00    +0.000 OA
ATOM     21  O   UNL     1       7.724   5.781  14.822  0.00  0.00    +0.000 OA
ENDBRANCH  11  19
ENDBRANCH   1  14
BRANCH   1  22
ATOM     22  C   UNL     1       2.448   6.307  20.262  0.00  0.00    +0.000 C 
BRANCH  22  23
ATOM     23  C   UNL     1       1.599   5.077  20.656  0.00  0.00    +0.000 C 
ATOM     24  C   UNL     1       1.188   4.175  19.493  0.00  0.00    +0.000 C 
ATOM     25  C   UNL     1       0.975   2.805  20.113  0.00  0.00    +0.000 C 
ATOM     26  C   UNL     1       2.046   2.708  21.185  0.00  0.00    +0.000 C 
ATOM     27  C   UNL     1       2.352   4.140  21.618  0.00  0.00    +0.000 C 
ENDBRANCH  22  23
ENDBRANCH   1  22
TORSDOF 5
ENDMDL
MODEL 6
REMARK VINA RESULT:      -7.8      1.419      1.726
REMARK  Name = 
REMARK  6 active torsions:
REMARK  status: ('A' for Active; 'I' for Inactive)
REMARK    1  A    between atoms: C_1  and  S_2
REMARK    2  A    between atoms: S_2  and  C_5
REMARK    3  A    between atoms: C_8  and  C_9
REMARK    4  A    between atoms: C_9  and  C_10
REMARK    5  A    between atoms: C_9  and  C_16
REMARK    6  A    between atoms: C_10  and  C_11
REMARK                            x       y       z     vdW  Elec       q    Type
REMARK                         _______ _______ _______ _____ _____    ______ ____
ROOT
ATOM      1  C   UNL     1       3.429   5.414  18.472  0.00  0.00    +0.000 C 
ENDROOT
BRANCH   1   2
ATOM      2  C   UNL     1       4.481   5.670  17.383  0.00  0.00    +0.000 C 
ATOM      3  O   UNL     1       5.011   6.778  17.294  0.00  0.00    +0.000 OA
ATOM      4  N   UNL     1       4.659   4.658  16.462  0.00  0.00    +0.000 N 
ATOM      5  C   UNL     1       5.650   4.764  15.521  0.00  0.00    +0.000 A 
ATOM      6  N   UNL     1       6.686   5.560  15.527  0.00  0.00    +0.000 NA
ATOM      7  C   UNL     1       7.357   5.453  14.331  0.00  0.00    +0.000 A 
ATOM      8  C   UNL     1       6.837   4.534  13.445  0.00  0.00    +0.000 A 
ATOM      9  S   UNL     1       5.499   3.730  14.171  0.00  0.00    +0.000 S 
ATOM     10  H   UNL     1       3.987   3.911  16.357  0.00  0.00    +0.000 HD
ENDBRANCH   1   2
BRANCH   1  14
ATOM     11  C   UNL     1       1.260   8.764  20.170  0.00  0.00    +0.000 A 
ATOM     12  C   UNL     1       1.468   7.594  20.917  0.00  0.00    +0.000 A 
ATOM     13  C   UNL     1       2.200   6.536  20.376  0.00  0.00    +0.000 A 
ATOM     14  C   UNL     1       2.723   6.619  19.076  0.00  0.00    +0.000 A 
ATOM     15  C   UNL     1       2.522   7.803  18.353  0.00  0.00    +0.000 A 
ATOM     16  C   UNL     1       1.824   8.887  18.904  0.00  0.00    +0.000 A 
ATOM     17 BR   UNL     1       1.770  10.445  17.818  0.00  0.00    +0.000 Br
BRANCH  11  19
ATOM     18  C   UNL     1      -0.371   9.319  22.404  0.00  0.00    +0.000 C 
ATOM     19  S   UNL     1       0.243  10.031  20.899  0.00  0.00    +0.000 S 
ATOM     20  O   UNL     1      -0.862  10.273  19.991  0.00  0.00    +0.000 OA
ATOM     21  O   UNL     1       1.118  11.120  21.282  0.00  0.00    +0.000 OA
ENDBRANCH  11  19
ENDBRANCH   1  14
BRANCH   1  22
ATOM     22  C   UNL     1       2.416   4.304  18.064  0.00  0.00    +0.000 C 
BRANCH  22  23
ATOM     23  C   UNL     1       2.178   3.149  19.063  0.00  0.00    +0.000 C 
ATOM     24  C   UNL     1       3.259   2.984  20.131  0.00  0.00    +0.000 C 
ATOM     25  C   UNL     1       2.560   2.313  21.299  0.00  0.00    +0.000 C 
ATOM     26  C   UNL     1       1.167   2.920  21.304  0.00  0.00    +0.000 C 
ATOM     27  C   UNL     1       0.876   3.336  19.864  0.00  0.00    +0.000 C 
ENDBRANCH  22  23
ENDBRANCH   1  22
TORSDOF 5
ENDMDL
MODEL 7
REMARK VINA RESULT:      -7.7      1.064      1.279
REMARK  Name = 
REMARK  6 active torsions:
REMARK  status: ('A' for Active; 'I' for Inactive)
REMARK    1  A    between atoms: C_1  and  S_2
REMARK    2  A    between atoms: S_2  and  C_5
REMARK    3  A    between atoms: C_8  and  C_9
REMARK    4  A    between atoms: C_9  and  C_10
REMARK    5  A    between atoms: C_9  and  C_16
REMARK    6  A    between atoms: C_10  and  C_11
REMARK                            x       y       z     vdW  Elec       q    Type
REMARK                         _______ _______ _______ _____ _____    ______ ____
ROOT
ATOM      1  C   UNL     1       2.846   6.378  18.890  0.00  0.00    +0.000 C 
ENDROOT
BRANCH   1   2
ATOM      2  C   UNL     1       3.962   6.414  17.836  0.00  0.00    +0.000 C 
ATOM      3  O   UNL     1       4.386   7.498  17.433  0.00  0.00    +0.000 OA
ATOM      4  N   UNL     1       4.322   5.199  17.291  0.00  0.00    +0.000 N 
ATOM      5  C   UNL     1       5.379   5.132  16.422  0.00  0.00    +0.000 A 
ATOM      6  N   UNL     1       6.327   6.012  16.235  0.00  0.00    +0.000 NA
ATOM      7  C   UNL     1       7.111   5.627  15.172  0.00  0.00    +0.000 A 
ATOM      8  C   UNL     1       6.767   4.424  14.593  0.00  0.00    +0.000 A 
ATOM      9  S   UNL     1       5.455   3.725  15.459  0.00  0.00    +0.000 S 
ATOM     10  H   UNL     1       3.740   4.380  17.389  0.00  0.00    +0.000 HD
ENDBRANCH   1   2
BRANCH   1  14
ATOM     11  C   UNL     1       0.940  10.171  19.782  0.00  0.00    +0.000 A 
ATOM     12  C   UNL     1       1.371   9.875  18.479  0.00  0.00    +0.000 A 
ATOM     13  C   UNL     1       1.949   8.637  18.194  0.00  0.00    +0.000 A 
ATOM     14  C   UNL     1       2.122   7.679  19.205  0.00  0.00    +0.000 A 
ATOM     15  C   UNL     1       1.668   7.984  20.495  0.00  0.00    +0.000 A 
ATOM     16  C   UNL     1       1.049   9.209  20.782  0.00  0.00    +0.000 A 
ATOM     17 BR   UNL     1       0.388   9.380  22.554  0.00  0.00    +0.000 Br
BRANCH  11  19
ATOM     18  C   UNL     1       0.585  12.695  18.575  0.00  0.00    +0.000 C 
ATOM     19  S   UNL     1       0.294  11.802  20.081  0.00  0.00    +0.000 S 
ATOM     20  O   UNL     1       1.079  12.389  21.151  0.00  0.00    +0.000 OA
ATOM     21  O   UNL     1      -1.142  11.680  20.218  0.00  0.00    +0.000 OA
ENDBRANCH  11  19
ENDBRANCH   1  14
BRANCH   1  22
ATOM     22  C   UNL     1       1.843   5.212  18.647  0.00  0.00    +0.000 C 
BRANCH  22  23
ATOM     23  C   UNL     1       1.321   4.446  19.884  0.00  0.00    +0.000 C 
ATOM     24  C   UNL     1       1.116   2.946  19.677  0.00  0.00    +0.000 C 
ATOM     25  C   UNL     1       1.250   2.336  21.061  0.00  0.00    +0.000 C 
ATOM     26  C   UNL     1       2.333   3.161  21.733  0.00  0.00    +0.000 C 
ATOM     27  C   UNL     1       2.295   4.538  21.074  0.00  0.00    +0.000 C 
ENDBRANCH  22  23
ENDBRANCH   1  22
TORSDOF 5
ENDMDL
MODEL 8
REMARK VINA RESULT:      -7.6      1.423      1.837
REMARK  Name = 
REMARK  6 active torsions:
REMARK  status: ('A' for Active; 'I' for Inactive)
REMARK    1  A    between atoms: C_1  and  S_2
REMARK    2  A    between atoms: S_2  and  C_5
REMARK    3  A    between atoms: C_8  and  C_9
REMARK    4  A    between atoms: C_9  and  C_10
REMARK    5  A    between atoms: C_9  and  C_16
REMARK    6  A    between atoms: C_10  and  C_11
REMARK                            x       y       z     vdW  Elec       q    Type
REMARK                         _______ _______ _______ _____ _____    ______ ____
ROOT
ATOM      1  C   UNL     1       2.739   5.648  19.639  0.00  0.00    +0.000 C 
ENDROOT
BRANCH   1   2
ATOM      2  C   UNL     1       4.128   5.494  19.003  0.00  0.00    +0.000 C 
ATOM      3  O   UNL     1       5.136   5.655  19.692  0.00  0.00    +0.000 OA
ATOM      4  N   UNL     1       4.155   5.324  17.634  0.00  0.00    +0.000 N 
ATOM      5  C   UNL     1       5.346   5.075  17.003  0.00  0.00    +0.000 A 
ATOM      6  N   UNL     1       6.469   4.667  17.533  0.00  0.00    +0.000 NA
ATOM      7  C   UNL     1       7.460   4.679  16.579  0.00  0.00    +0.000 A 
ATOM      8  C   UNL     1       7.056   5.058  15.316  0.00  0.00    +0.000 A 
ATOM      9  S   UNL     1       5.359   5.342  15.318  0.00  0.00    +0.000 S 
ATOM     10  H   UNL     1       3.350   5.528  17.058  0.00  0.00    +0.000 HD
ENDBRANCH   1   2
BRANCH   1  14
ATOM     11  C   UNL     1       1.201   9.697  19.866  0.00  0.00    +0.000 A 
ATOM     12  C   UNL     1       1.821   9.231  18.696  0.00  0.00    +0.000 A 
ATOM     13  C   UNL     1       2.279   7.915  18.619  0.00  0.00    +0.000 A 
ATOM     14  C   UNL     1       2.142   7.045  19.712  0.00  0.00    +0.000 A 
ATOM     15  C   UNL     1       1.502   7.521  20.864  0.00  0.00    +0.000 A 
ATOM     16  C   UNL     1       1.002   8.829  20.936  0.00  0.00    +0.000 A 
ATOM     17 BR   UNL     1       0.056   9.242  22.531  0.00  0.00    +0.000 Br
BRANCH  11  19
ATOM     18  C   UNL     1       1.526  12.151  18.516  0.00  0.00    +0.000 C 
ATOM     19  S   UNL     1       0.724  11.411  19.915  0.00  0.00    +0.000 S 
ATOM     20  O   UNL     1       1.263  11.975  21.138  0.00  0.00    +0.000 OA
ATOM     21  O   UNL     1      -0.699  11.471  19.655  0.00  0.00    +0.000 OA
ENDBRANCH  11  19
ENDBRANCH   1  14
BRANCH   1  22
ATOM     22  C   UNL     1       1.716   4.618  19.075  0.00  0.00    +0.000 C 
BRANCH  22  23
ATOM     23  C   UNL     1       2.061   3.118  19.212  0.00  0.00    +0.000 C 
ATOM     24  C   UNL     1       2.634   2.468  17.953  0.00  0.00    +0.000 C 
ATOM     25  C   UNL     1       3.461   1.298  18.455  0.00  0.00    +0.000 C 
ATOM     26  C   UNL     1       4.080   1.802  19.748  0.00  0.00    +0.000 C 
ATOM     27  C   UNL     1       3.130   2.867  20.292  0.00  0.00    +0.000 C 
ENDBRANCH  22  23
ENDBRANCH   1  22
TORSDOF 5
ENDMDL
MODEL 9
REMARK VINA RESULT:      -7.4      3.325      7.200
REMARK  Name = 
REMARK  6 active torsions:
REMARK  status: ('A' for Active; 'I' for Inactive)
REMARK    1  A    between atoms: C_1  and  S_2
REMARK    2  A    between atoms: S_2  and  C_5
REMARK    3  A    between atoms: C_8  and  C_9
REMARK    4  A    between atoms: C_9  and  C_10
REMARK    5  A    between atoms: C_9  and  C_16
REMARK    6  A    between atoms: C_10  and  C_11
REMARK                            x       y       z     vdW  Elec       q    Type
REMARK                         _______ _______ _______ _____ _____    ______ ____
ROOT
ATOM      1  C   UNL     1       1.824   6.352  19.665  0.00  0.00    +0.000 C 
ENDROOT
BRANCH   1   2
ATOM      2  C   UNL     1       1.501   7.819  19.981  0.00  0.00    +0.000 C 
ATOM      3  O   UNL     1       2.086   8.717  19.374  0.00  0.00    +0.000 OA
ATOM      4  N   UNL     1       0.662   8.040  21.054  0.00  0.00    +0.000 N 
ATOM      5  C   UNL     1       0.242   9.313  21.337  0.00  0.00    +0.000 A 
ATOM      6  N   UNL     1       0.269  10.363  20.559  0.00  0.00    +0.000 NA
ATOM      7  C   UNL     1      -0.110  11.476  21.273  0.00  0.00    +0.000 A 
ATOM      8  C   UNL     1      -0.466  11.240  22.584  0.00  0.00    +0.000 A 
ATOM      9  S   UNL     1      -0.384   9.552  22.906  0.00  0.00    +0.000 S 
ATOM     10  H   UNL     1       0.468   7.318  21.733  0.00  0.00    +0.000 HD
ENDBRANCH   1   2
BRANCH   1  14
ATOM     11  C   UNL     1       5.704   5.600  17.878  0.00  0.00    +0.000 A 
ATOM     12  C   UNL     1       5.408   5.136  19.169  0.00  0.00    +0.000 A 
ATOM     13  C   UNL     1       4.145   5.350  19.722  0.00  0.00    +0.000 A 
ATOM     14  C   UNL     1       3.158   6.044  19.003  0.00  0.00    +0.000 A 
ATOM     15  C   UNL     1       3.465   6.481  17.708  0.00  0.00    +0.000 A 
ATOM     16  C   UNL     1       4.718   6.236  17.129  0.00  0.00    +0.000 A 
ATOM     17 BR   UNL     1       4.893   6.794  15.322  0.00  0.00    +0.000 Br
BRANCH  11  19
ATOM     18  C   UNL     1       7.194   4.340  15.841  0.00  0.00    +0.000 C 
ATOM     19  S   UNL     1       7.364   5.363  17.281  0.00  0.00    +0.000 S 
ATOM     20  O   UNL     1       8.093   4.640  18.307  0.00  0.00    +0.000 OA
ATOM     21  O   UNL     1       7.845   6.649  16.821  0.00  0.00    +0.000 OA
ENDBRANCH  11  19
ENDBRANCH   1  14
BRANCH   1  22
ATOM     22  C   UNL     1       1.562   5.416  20.882  0.00  0.00    +0.000 C 
BRANCH  22  23
ATOM     23  C   UNL     1       1.071   3.980  20.589  0.00  0.00    +0.000 C 
ATOM     24  C   UNL     1       0.819   3.671  19.113  0.00  0.00    +0.000 C 
ATOM     25  C   UNL     1       0.993   2.168  18.991  0.00  0.00    +0.000 C 
ATOM     26  C   UNL     1       2.124   1.840  19.951  0.00  0.00    +0.000 C 
ATOM     27  C   UNL     1       2.094   2.918  21.033  0.00  0.00    +0.000 C 
ENDBRANCH  22  23
ENDBRANCH   1  22
TORSDOF 5
ENDMDL
