MODEL 1
REMARK VINA RESULT:      -8.6      0.000      0.000
REMARK  Name = 
REMARK  2 active torsions:
REMARK  status: ('A' for Active; 'I' for Inactive)
REMARK    1  A    between atoms: N_19  and  S_20
REMARK    2  A    between atoms: S_20  and  C_23
REMARK                            x       y       z     vdW  Elec       q    Type
REMARK                         _______ _______ _______ _____ _____    ______ ____
ROOT
ATOM      1  O   UNL     1       2.533  12.312  19.749  0.00  0.00    +0.000 OA
ATOM      2  C   UNL     1       1.389  12.646  19.560  0.00  0.00    +0.000 C 
ATOM      3  N   UNL     1       1.032  13.853  19.039  0.00  0.00    +0.000 N 
ATOM      4  C   UNL     1      -0.298  14.072  19.118  0.00  0.00    +0.000 C 
ATOM      5  O   UNL     1      -0.834  15.131  18.824  0.00  0.00    +0.000 OA
ATOM      6  C   UNL     1      -0.977  12.757  19.655  0.00  0.00    +0.000 C 
ATOM      7  C   UNL     1      -1.857  13.037  20.856  0.00  0.00    +0.000 A 
ATOM      8  C   UNL     1      -1.503  13.568  22.089  0.00  0.00    +0.000 A 
ATOM      9  C   UNL     1      -2.483  13.635  23.078  0.00  0.00    +0.000 A 
ATOM     10  C   UNL     1      -3.790  13.194  22.820  0.00  0.00    +0.000 A 
ATOM     11  C   UNL     1      -4.151  12.696  21.562  0.00  0.00    +0.000 A 
ATOM     12  C   UNL     1      -3.182  12.630  20.574  0.00  0.00    +0.000 A 
ATOM     13  C   UNL     1      -3.241  12.118  19.216  0.00  0.00    +0.000 A 
ATOM     14  C   UNL     1      -4.285  11.552  18.505  0.00  0.00    +0.000 A 
ATOM     15  C   UNL     1      -4.031  11.058  17.220  0.00  0.00    +0.000 A 
ATOM     16  C   UNL     1      -2.756  11.160  16.643  0.00  0.00    +0.000 A 
ATOM     17  C   UNL     1      -1.702  11.735  17.350  0.00  0.00    +0.000 A 
ATOM     18  C   UNL     1      -1.954  12.189  18.640  0.00  0.00    +0.000 A 
ATOM     19  N   UNL     1       0.236  11.935  19.847  0.00  0.00    +0.000 N 
ATOM     20  H   UNL     1       1.706  14.550  18.798  0.00  0.00    +0.000 HD
ENDROOT
BRANCH  19  21
ATOM     21  S   UNL     1       0.282  10.568  20.832  0.00  0.00    +0.000 S 
ATOM     22  O   UNL     1       1.140  10.820  21.967  0.00  0.00    +0.000 OA
ATOM     23  O   UNL     1      -1.084  10.109  21.075  0.00  0.00    +0.000 OA
BRANCH  21  24
ATOM     24  C   UNL     1       1.092   9.280  19.911  0.00  0.00    +0.000 A 
ATOM     25  C   UNL     1       1.308   9.482  18.544  0.00  0.00    +0.000 A 
ATOM     26  C   UNL     1       2.044   8.545  17.816  0.00  0.00    +0.000 A 
ATOM     27  C   UNL     1       2.422   7.342  18.422  0.00  0.00    +0.000 A 
ATOM     28  C   UNL     1       3.043   6.332  17.686  0.00  0.00    +0.000 A 
ATOM     29  C   UNL     1       2.803   5.012  18.009  0.00  0.00    +0.000 A 
ATOM     30  C   UNL     1       2.436   4.721  19.311  0.00  0.00    +0.000 A 
ATOM     31  C   UNL     1       2.249   5.763  20.232  0.00  0.00    +0.000 A 
ATOM     32  C   UNL     1       2.110   7.079  19.760  0.00  0.00    +0.000 A 
ATOM     33  C   UNL     1       1.587   8.130  20.543  0.00  0.00    +0.000 A 
ENDBRANCH  21  24
ENDBRANCH  19  21
TORSDOF 2
ENDMDL
MODEL 2
REMARK VINA RESULT:      -8.2      2.373      6.785
REMARK  Name = 
REMARK  2 active torsions:
REMARK  status: ('A' for Active; 'I' for Inactive)
REMARK    1  A    between atoms: N_19  and  S_20
REMARK    2  A    between atoms: S_20  and  C_23
REMARK                            x       y       z     vdW  Elec       q    Type
REMARK                         _______ _______ _______ _____ _____    ______ ____
ROOT
ATOM      1  O   UNL     1      -0.102  14.476  18.112  0.00  0.00    +0.000 OA
ATOM      2  C   UNL     1      -0.242  13.308  18.386  0.00  0.00    +0.000 C 
ATOM      3  N   UNL     1      -1.278  12.548  17.937  0.00  0.00    +0.000 N 
ATOM      4  C   UNL     1      -1.328  11.343  18.543  0.00  0.00    +0.000 C 
ATOM      5  O   UNL     1      -2.238  10.539  18.390  0.00  0.00    +0.000 OA
ATOM      6  C   UNL     1      -0.052  11.201  19.454  0.00  0.00    +0.000 C 
ATOM      7  C   UNL     1      -0.422  10.831  20.875  0.00  0.00    +0.000 A 
ATOM      8  C   UNL     1      -1.206  11.532  21.781  0.00  0.00    +0.000 A 
ATOM      9  C   UNL     1      -1.316  11.031  23.076  0.00  0.00    +0.000 A 
ATOM     10  C   UNL     1      -0.666   9.841  23.440  0.00  0.00    +0.000 A 
ATOM     11  C   UNL     1       0.091   9.117  22.511  0.00  0.00    +0.000 A 
ATOM     12  C   UNL     1       0.202   9.610  21.221  0.00  0.00    +0.000 A 
ATOM     13  C   UNL     1       0.950   9.119  20.077  0.00  0.00    +0.000 A 
ATOM     14  C   UNL     1       1.768   8.011  19.935  0.00  0.00    +0.000 A 
ATOM     15  C   UNL     1       2.444   7.827  18.723  0.00  0.00    +0.000 A 
ATOM     16  C   UNL     1       2.277   8.724  17.657  0.00  0.00    +0.000 A 
ATOM     17  C   UNL     1       1.451   9.838  17.790  0.00  0.00    +0.000 A 
ATOM     18  C   UNL     1       0.813  10.033  19.009  0.00  0.00    +0.000 A 
ATOM     19  N   UNL     1       0.554  12.525  19.205  0.00  0.00    +0.000 N 
ATOM     20  H   UNL     1      -2.005  12.922  17.362  0.00  0.00    +0.000 HD
ENDROOT
BRANCH  19  21
ATOM     21  S   UNL     1       1.705  13.222  20.220  0.00  0.00    +0.000 S 
ATOM     22  O   UNL     1       2.102  12.265  21.227  0.00  0.00    +0.000 OA
ATOM     23  O   UNL     1       2.742  13.851  19.404  0.00  0.00    +0.000 OA
BRANCH  21  24
ATOM     24  C   UNL     1       0.900  14.533  21.111  0.00  0.00    +0.000 A 
ATOM     25  C   UNL     1       1.172  15.852  20.734  0.00  0.00    +0.000 A 
ATOM     26  C   UNL     1       0.468  16.900  21.332  0.00  0.00    +0.000 A 
ATOM     27  C   UNL     1      -0.383  16.634  22.409  0.00  0.00    +0.000 A 
ATOM     28  C   UNL     1      -0.997  17.672  23.112  0.00  0.00    +0.000 A 
ATOM     29  C   UNL     1      -1.229  17.530  24.465  0.00  0.00    +0.000 A 
ATOM     30  C   UNL     1      -1.366  16.248  24.968  0.00  0.00    +0.000 A 
ATOM     31  C   UNL     1      -1.197  15.145  24.119  0.00  0.00    +0.000 A 
ATOM     32  C   UNL     1      -0.574  15.327  22.873  0.00  0.00    +0.000 A 
ATOM     33  C   UNL     1      -0.053  14.264  22.106  0.00  0.00    +0.000 A 
ENDBRANCH  21  24
ENDBRANCH  19  21
TORSDOF 2
ENDMDL
MODEL 3
REMARK VINA RESULT:      -8.1      2.877      4.299
REMARK  Name = 
REMARK  2 active torsions:
REMARK  status: ('A' for Active; 'I' for Inactive)
REMARK    1  A    between atoms: N_19  and  S_20
REMARK    2  A    between atoms: S_20  and  C_23
REMARK                            x       y       z     vdW  Elec       q    Type
REMARK                         _______ _______ _______ _____ _____    ______ ____
ROOT
ATOM      1  O   UNL     1      -1.244  15.005  21.563  0.00  0.00    +0.000 OA
ATOM      2  C   UNL     1      -2.388  14.784  21.246  0.00  0.00    +0.000 C 
ATOM      3  N   UNL     1      -3.124  15.612  20.455  0.00  0.00    +0.000 N 
ATOM      4  C   UNL     1      -4.426  15.258  20.415  0.00  0.00    +0.000 C 
ATOM      5  O   UNL     1      -5.297  15.920  19.868  0.00  0.00    +0.000 OA
ATOM      6  C   UNL     1      -4.586  13.898  21.193  0.00  0.00    +0.000 C 
ATOM      7  C   UNL     1      -5.662  13.989  22.255  0.00  0.00    +0.000 A 
ATOM      8  C   UNL     1      -5.727  14.830  23.357  0.00  0.00    +0.000 A 
ATOM      9  C   UNL     1      -6.778  14.651  24.255  0.00  0.00    +0.000 A 
ATOM     10  C   UNL     1      -7.746  13.660  24.033  0.00  0.00    +0.000 A 
ATOM     11  C   UNL     1      -7.697  12.841  22.899  0.00  0.00    +0.000 A 
ATOM     12  C   UNL     1      -6.656  13.016  22.002  0.00  0.00    +0.000 A 
ATOM     13  C   UNL     1      -6.315  12.295  20.788  0.00  0.00    +0.000 A 
ATOM     14  C   UNL     1      -6.933  11.223  20.166  0.00  0.00    +0.000 A 
ATOM     15  C   UNL     1      -6.325  10.663  19.036  0.00  0.00    +0.000 A 
ATOM     16  C   UNL     1      -5.132  11.191  18.517  0.00  0.00    +0.000 A 
ATOM     17  C   UNL     1      -4.509  12.273  19.135  0.00  0.00    +0.000 A 
ATOM     18  C   UNL     1      -5.099  12.800  20.278  0.00  0.00    +0.000 A 
ATOM     19  N   UNL     1      -3.184  13.716  21.623  0.00  0.00    +0.000 N 
ATOM     20  H   UNL     1      -2.762  16.474  20.102  0.00  0.00    +0.000 HD
ENDROOT
BRANCH  19  21
ATOM     21  S   UNL     1      -2.728  12.697  22.885  0.00  0.00    +0.000 S 
ATOM     22  O   UNL     1      -1.939  13.438  23.843  0.00  0.00    +0.000 OA
ATOM     23  O   UNL     1      -3.904  11.970  23.360  0.00  0.00    +0.000 OA
BRANCH  21  24
ATOM     24  C   UNL     1      -1.621  11.480  22.210  0.00  0.00    +0.000 A 
ATOM     25  C   UNL     1      -0.931  10.649  23.099  0.00  0.00    +0.000 A 
ATOM     26  C   UNL     1      -0.146   9.607  22.601  0.00  0.00    +0.000 A 
ATOM     27  C   UNL     1       0.068   9.501  21.224  0.00  0.00    +0.000 A 
ATOM     28  C   UNL     1       0.952   8.552  20.706  0.00  0.00    +0.000 A 
ATOM     29  C   UNL     1       1.673   8.848  19.567  0.00  0.00    +0.000 A 
ATOM     30  C   UNL     1       1.143   9.776  18.688  0.00  0.00    +0.000 A 
ATOM     31  C   UNL     1      -0.054  10.434  19.006  0.00  0.00    +0.000 A 
ATOM     32  C   UNL     1      -0.524  10.400  20.329  0.00  0.00    +0.000 A 
ATOM     33  C   UNL     1      -1.503  11.287  20.825  0.00  0.00    +0.000 A 
ENDBRANCH  21  24
ENDBRANCH  19  21
TORSDOF 2
ENDMDL
MODEL 4
REMARK VINA RESULT:      -8.1      8.583     11.580
REMARK  Name = 
REMARK  2 active torsions:
REMARK  status: ('A' for Active; 'I' for Inactive)
REMARK    1  A    between atoms: N_19  and  S_20
REMARK    2  A    between atoms: S_20  and  C_23
REMARK                            x       y       z     vdW  Elec       q    Type
REMARK                         _______ _______ _______ _____ _____    ______ ____
ROOT
ATOM      1  O   UNL     1       4.831  13.325  22.807  0.00  0.00    +0.000 OA
ATOM      2  C   UNL     1       6.036  13.256  22.795  0.00  0.00    +0.000 C 
ATOM      3  N   UNL     1       6.756  12.488  23.657  0.00  0.00    +0.000 N 
ATOM      4  C   UNL     1       8.080  12.738  23.583  0.00  0.00    +0.000 C 
ATOM      5  O   UNL     1       8.910  12.256  24.342  0.00  0.00    +0.000 OA
ATOM      6  C   UNL     1       8.321  13.738  22.391  0.00  0.00    +0.000 C 
ATOM      7  C   UNL     1       9.120  14.947  22.833  0.00  0.00    +0.000 A 
ATOM      8  C   UNL     1       8.801  15.895  23.795  0.00  0.00    +0.000 A 
ATOM      9  C   UNL     1       9.658  16.983  23.950  0.00  0.00    +0.000 A 
ATOM     10  C   UNL     1      10.816  17.098  23.165  0.00  0.00    +0.000 A 
ATOM     11  C   UNL     1      11.153  16.118  22.224  0.00  0.00    +0.000 A 
ATOM     12  C   UNL     1      10.306  15.033  22.067  0.00  0.00    +0.000 A 
ATOM     13  C   UNL     1      10.360  13.909  21.150  0.00  0.00    +0.000 A 
ATOM     14  C   UNL     1      11.278  13.585  20.165  0.00  0.00    +0.000 A 
ATOM     15  C   UNL     1      11.030  12.469  19.357  0.00  0.00    +0.000 A 
ATOM     16  C   UNL     1       9.894  11.668  19.557  0.00  0.00    +0.000 A 
ATOM     17  C   UNL     1       8.970  11.984  20.550  0.00  0.00    +0.000 A 
ATOM     18  C   UNL     1       9.204  13.115  21.322  0.00  0.00    +0.000 A 
ATOM     19  N   UNL     1       6.918  13.934  21.971  0.00  0.00    +0.000 N 
ATOM     20  H   UNL     1       6.323  11.943  24.375  0.00  0.00    +0.000 HD
ENDROOT
BRANCH  19  21
ATOM     21  S   UNL     1       6.406  15.241  21.038  0.00  0.00    +0.000 S 
ATOM     22  O   UNL     1       5.208  14.878  20.316  0.00  0.00    +0.000 OA
ATOM     23  O   UNL     1       6.386  16.442  21.870  0.00  0.00    +0.000 OA
BRANCH  21  24
ATOM     24  C   UNL     1       7.640  15.514  19.787  0.00  0.00    +0.000 A 
ATOM     25  C   UNL     1       7.723  14.600  18.731  0.00  0.00    +0.000 A 
ATOM     26  C   UNL     1       8.598  14.848  17.672  0.00  0.00    +0.000 A 
ATOM     27  C   UNL     1       9.494  15.919  17.751  0.00  0.00    +0.000 A 
ATOM     28  C   UNL     1      10.468  16.115  16.772  0.00  0.00    +0.000 A 
ATOM     29  C   UNL     1      11.691  16.646  17.128  0.00  0.00    +0.000 A 
ATOM     30  C   UNL     1      11.744  17.451  18.252  0.00  0.00    +0.000 A 
ATOM     31  C   UNL     1      10.591  17.643  19.028  0.00  0.00    +0.000 A 
ATOM     32  C   UNL     1       9.499  16.775  18.860  0.00  0.00    +0.000 A 
ATOM     33  C   UNL     1       8.451  16.659  19.798  0.00  0.00    +0.000 A 
ENDBRANCH  21  24
ENDBRANCH  19  21
TORSDOF 2
ENDMDL
MODEL 5
REMARK VINA RESULT:      -8.0      3.250      5.827
REMARK  Name = 
REMARK  2 active torsions:
REMARK  status: ('A' for Active; 'I' for Inactive)
REMARK    1  A    between atoms: N_19  and  S_20
REMARK    2  A    between atoms: S_20  and  C_23
REMARK                            x       y       z     vdW  Elec       q    Type
REMARK                         _______ _______ _______ _____ _____    ______ ____
ROOT
ATOM      1  O   UNL     1       0.076  15.079  18.430  0.00  0.00    +0.000 OA
ATOM      2  C   UNL     1      -0.141  13.906  18.612  0.00  0.00    +0.000 C 
ATOM      3  N   UNL     1      -1.168  13.230  18.028  0.00  0.00    +0.000 N 
ATOM      4  C   UNL     1      -1.327  11.993  18.545  0.00  0.00    +0.000 C 
ATOM      5  O   UNL     1      -2.256  11.249  18.262  0.00  0.00    +0.000 OA
ATOM      6  C   UNL     1      -0.142  11.728  19.547  0.00  0.00    +0.000 C 
ATOM      7  C   UNL     1      -0.651  11.287  20.905  0.00  0.00    +0.000 A 
ATOM      8  C   UNL     1      -1.478  11.970  21.787  0.00  0.00    +0.000 A 
ATOM      9  C   UNL     1      -1.724  11.394  23.031  0.00  0.00    +0.000 A 
ATOM     10  C   UNL     1      -1.164  10.151  23.367  0.00  0.00    +0.000 A 
ATOM     11  C   UNL     1      -0.363   9.449  22.458  0.00  0.00    +0.000 A 
ATOM     12  C   UNL     1      -0.117  10.016  21.218  0.00  0.00    +0.000 A 
ATOM     13  C   UNL     1       0.705   9.562  20.110  0.00  0.00    +0.000 A 
ATOM     14  C   UNL     1       1.479   8.423  19.962  0.00  0.00    +0.000 A 
ATOM     15  C   UNL     1       2.249   8.282  18.802  0.00  0.00    +0.000 A 
ATOM     16  C   UNL     1       2.217   9.252  17.788  0.00  0.00    +0.000 A 
ATOM     17  C   UNL     1       1.435  10.397  17.927  0.00  0.00    +0.000 A 
ATOM     18  C   UNL     1       0.703  10.547  19.099  0.00  0.00    +0.000 A 
ATOM     19  N   UNL     1       0.544  13.032  19.440  0.00  0.00    +0.000 N 
ATOM     20  H   UNL     1      -1.824  13.677  17.421  0.00  0.00    +0.000 HD
ENDROOT
BRANCH  19  21
ATOM     21  S   UNL     1       1.633  13.602  20.593  0.00  0.00    +0.000 S 
ATOM     22  O   UNL     1       1.126  14.824  21.174  0.00  0.00    +0.000 OA
ATOM     23  O   UNL     1       2.004  12.505  21.484  0.00  0.00    +0.000 OA
BRANCH  21  24
ATOM     24  C   UNL     1       3.115  14.075  19.731  0.00  0.00    +0.000 A 
ATOM     25  C   UNL     1       3.225  13.744  18.377  0.00  0.00    +0.000 A 
ATOM     26  C   UNL     1       4.320  14.202  17.641  0.00  0.00    +0.000 A 
ATOM     27  C   UNL     1       5.371  14.851  18.298  0.00  0.00    +0.000 A 
ATOM     28  C   UNL     1       6.536  15.204  17.615  0.00  0.00    +0.000 A 
ATOM     29  C   UNL     1       7.744  15.182  18.280  0.00  0.00    +0.000 A 
ATOM     30  C   UNL     1       7.731  15.355  19.653  0.00  0.00    +0.000 A 
ATOM     31  C   UNL     1       6.508  15.471  20.329  0.00  0.00    +0.000 A 
ATOM     32  C   UNL     1       5.324  15.087  19.677  0.00  0.00    +0.000 A 
ATOM     33  C   UNL     1       4.112  14.840  20.356  0.00  0.00    +0.000 A 
ENDBRANCH  21  24
ENDBRANCH  19  21
TORSDOF 2
ENDMDL
MODEL 6
REMARK VINA RESULT:      -7.9      0.856      1.549
REMARK  Name = 
REMARK  2 active torsions:
REMARK  status: ('A' for Active; 'I' for Inactive)
REMARK    1  A    between atoms: N_19  and  S_20
REMARK    2  A    between atoms: S_20  and  C_23
REMARK                            x       y       z     vdW  Elec       q    Type
REMARK                         _______ _______ _______ _____ _____    ______ ____
ROOT
ATOM      1  O   UNL     1       2.229  12.399  20.973  0.00  0.00    +0.000 OA
ATOM      2  C   UNL     1       1.140  12.738  20.578  0.00  0.00    +0.000 C 
ATOM      3  N   UNL     1       0.887  13.950  20.011  0.00  0.00    +0.000 N 
ATOM      4  C   UNL     1      -0.433  14.171  19.844  0.00  0.00    +0.000 C 
ATOM      5  O   UNL     1      -0.905  15.235  19.465  0.00  0.00    +0.000 OA
ATOM      6  C   UNL     1      -1.202  12.853  20.232  0.00  0.00    +0.000 C 
ATOM      7  C   UNL     1      -2.291  13.125  21.251  0.00  0.00    +0.000 A 
ATOM      8  C   UNL     1      -2.172  13.644  22.533  0.00  0.00    +0.000 A 
ATOM      9  C   UNL     1      -3.318  13.703  23.323  0.00  0.00    +0.000 A 
ATOM     10  C   UNL     1      -4.555  13.268  22.822  0.00  0.00    +0.000 A 
ATOM     11  C   UNL     1      -4.676  12.783  21.514  0.00  0.00    +0.000 A 
ATOM     12  C   UNL     1      -3.540  12.723  20.723  0.00  0.00    +0.000 A 
ATOM     13  C   UNL     1      -3.345  12.224  19.373  0.00  0.00    +0.000 A 
ATOM     14  C   UNL     1      -4.239  11.668  18.474  0.00  0.00    +0.000 A 
ATOM     15  C   UNL     1      -3.751  11.185  17.255  0.00  0.00    +0.000 A 
ATOM     16  C   UNL     1      -2.390  11.290  16.926  0.00  0.00    +0.000 A 
ATOM     17  C   UNL     1      -1.487  11.855  17.823  0.00  0.00    +0.000 A 
ATOM     18  C   UNL     1      -1.973  12.297  19.047  0.00  0.00    +0.000 A 
ATOM     19  N   UNL     1      -0.047  12.027  20.638  0.00  0.00    +0.000 N 
ATOM     20  H   UNL     1       1.595  14.648  19.907  0.00  0.00    +0.000 HD
ENDROOT
BRANCH  19  21
ATOM     21  S   UNL     1      -0.186  10.651  21.601  0.00  0.00    +0.000 S 
ATOM     22  O   UNL     1       0.490  10.872  22.859  0.00  0.00    +0.000 OA
ATOM     23  O   UNL     1      -1.583  10.222  21.623  0.00  0.00    +0.000 OA
BRANCH  21  24
ATOM     24  C   UNL     1       0.728   9.352  20.803  0.00  0.00    +0.000 A 
ATOM     25  C   UNL     1       1.082   8.230  21.561  0.00  0.00    +0.000 A 
ATOM     26  C   UNL     1       1.695   7.141  20.938  0.00  0.00    +0.000 A 
ATOM     27  C   UNL     1       2.091   7.243  19.601  0.00  0.00    +0.000 A 
ATOM     28  C   UNL     1       2.822   6.224  18.989  0.00  0.00    +0.000 A 
ATOM     29  C   UNL     1       3.756   6.544  18.025  0.00  0.00    +0.000 A 
ATOM     30  C   UNL     1       3.576   7.718  17.314  0.00  0.00    +0.000 A 
ATOM     31  C   UNL     1       2.511   8.571  17.635  0.00  0.00    +0.000 A 
ATOM     32  C   UNL     1       1.846   8.407  18.862  0.00  0.00    +0.000 A 
ATOM     33  C   UNL     1       1.014   9.395  19.429  0.00  0.00    +0.000 A 
ENDBRANCH  21  24
ENDBRANCH  19  21
TORSDOF 2
ENDMDL
MODEL 7
REMARK VINA RESULT:      -7.8      3.506      6.262
REMARK  Name = 
REMARK  2 active torsions:
REMARK  status: ('A' for Active; 'I' for Inactive)
REMARK    1  A    between atoms: N_19  and  S_20
REMARK    2  A    between atoms: S_20  and  C_23
REMARK                            x       y       z     vdW  Elec       q    Type
REMARK                         _______ _______ _______ _____ _____    ______ ____
ROOT
ATOM      1  O   UNL     1      -1.122  11.428  22.558  0.00  0.00    +0.000 OA
ATOM      2  C   UNL     1      -2.099  12.020  22.946  0.00  0.00    +0.000 C 
ATOM      3  N   UNL     1      -2.957  11.529  23.882  0.00  0.00    +0.000 N 
ATOM      4  C   UNL     1      -4.075  12.276  23.994  0.00  0.00    +0.000 C 
ATOM      5  O   UNL     1      -5.038  11.965  24.682  0.00  0.00    +0.000 OA
ATOM      6  C   UNL     1      -3.901  13.554  23.092  0.00  0.00    +0.000 C 
ATOM      7  C   UNL     1      -5.068  13.726  22.141  0.00  0.00    +0.000 A 
ATOM      8  C   UNL     1      -5.513  12.867  21.145  0.00  0.00    +0.000 A 
ATOM      9  C   UNL     1      -6.554  13.299  20.326  0.00  0.00    +0.000 A 
ATOM     10  C   UNL     1      -7.142  14.559  20.522  0.00  0.00    +0.000 A 
ATOM     11  C   UNL     1      -6.716  15.404  21.553  0.00  0.00    +0.000 A 
ATOM     12  C   UNL     1      -5.682  14.979  22.372  0.00  0.00    +0.000 A 
ATOM     13  C   UNL     1      -5.000  15.646  23.467  0.00  0.00    +0.000 A 
ATOM     14  C   UNL     1      -5.186  16.901  24.021  0.00  0.00    +0.000 A 
ATOM     15  C   UNL     1      -4.311  17.326  25.028  0.00  0.00    +0.000 A 
ATOM     16  C   UNL     1      -3.285  16.490  25.497  0.00  0.00    +0.000 A 
ATOM     17  C   UNL     1      -3.097  15.224  24.949  0.00  0.00    +0.000 A 
ATOM     18  C   UNL     1      -3.946  14.824  23.923  0.00  0.00    +0.000 A 
ATOM     19  N   UNL     1      -2.569  13.253  22.526  0.00  0.00    +0.000 N 
ATOM     20  H   UNL     1      -2.837  10.626  24.294  0.00  0.00    +0.000 HD
ENDROOT
BRANCH  19  21
ATOM     21  S   UNL     1      -1.972  13.979  21.127  0.00  0.00    +0.000 S 
ATOM     22  O   UNL     1      -2.891  15.003  20.685  0.00  0.00    +0.000 OA
ATOM     23  O   UNL     1      -0.571  14.337  21.335  0.00  0.00    +0.000 OA
BRANCH  21  24
ATOM     24  C   UNL     1      -1.993  12.748  19.843  0.00  0.00    +0.000 A 
ATOM     25  C   UNL     1      -0.789  12.118  19.513  0.00  0.00    +0.000 A 
ATOM     26  C   UNL     1      -0.789  11.065  18.595  0.00  0.00    +0.000 A 
ATOM     27  C   UNL     1      -1.963  10.757  17.899  0.00  0.00    +0.000 A 
ATOM     28  C   UNL     1      -1.964   9.800  16.883  0.00  0.00    +0.000 A 
ATOM     29  C   UNL     1      -2.807   9.960  15.803  0.00  0.00    +0.000 A 
ATOM     30  C   UNL     1      -3.963  10.698  15.988  0.00  0.00    +0.000 A 
ATOM     31  C   UNL     1      -4.206  11.315  17.223  0.00  0.00    +0.000 A 
ATOM     32  C   UNL     1      -3.149  11.460  18.137  0.00  0.00    +0.000 A 
ATOM     33  C   UNL     1      -3.192  12.346  19.235  0.00  0.00    +0.000 A 
ENDBRANCH  21  24
ENDBRANCH  19  21
TORSDOF 2
ENDMDL
MODEL 8
REMARK VINA RESULT:      -7.7      4.480      6.763
REMARK  Name = 
REMARK  2 active torsions:
REMARK  status: ('A' for Active; 'I' for Inactive)
REMARK    1  A    between atoms: N_19  and  S_20
REMARK    2  A    between atoms: S_20  and  C_23
REMARK                            x       y       z     vdW  Elec       q    Type
REMARK                         _______ _______ _______ _____ _____    ______ ____
ROOT
ATOM      1  O   UNL     1      -7.169  11.794  23.393  0.00  0.00    +0.000 OA
ATOM      2  C   UNL     1      -6.085  12.226  23.701  0.00  0.00    +0.000 C 
ATOM      3  N   UNL     1      -5.531  12.065  24.934  0.00  0.00    +0.000 N 
ATOM      4  C   UNL     1      -4.417  12.809  25.096  0.00  0.00    +0.000 C 
ATOM      5  O   UNL     1      -3.818  12.919  26.157  0.00  0.00    +0.000 OA
ATOM      6  C   UNL     1      -4.077  13.485  23.715  0.00  0.00    +0.000 C 
ATOM      7  C   UNL     1      -3.908  14.984  23.856  0.00  0.00    +0.000 A 
ATOM      8  C   UNL     1      -4.831  15.926  24.290  0.00  0.00    +0.000 A 
ATOM      9  C   UNL     1      -4.469  17.270  24.234  0.00  0.00    +0.000 A 
ATOM     10  C   UNL     1      -3.200  17.650  23.769  0.00  0.00    +0.000 A 
ATOM     11  C   UNL     1      -2.259  16.693  23.370  0.00  0.00    +0.000 A 
ATOM     12  C   UNL     1      -2.613  15.355  23.427  0.00  0.00    +0.000 A 
ATOM     13  C   UNL     1      -1.885  14.161  23.034  0.00  0.00    +0.000 A 
ATOM     14  C   UNL     1      -0.619  14.007  22.495  0.00  0.00    +0.000 A 
ATOM     15  C   UNL     1      -0.199  12.724  22.125  0.00  0.00    +0.000 A 
ATOM     16  C   UNL     1      -1.024  11.605  22.325  0.00  0.00    +0.000 A 
ATOM     17  C   UNL     1      -2.296  11.752  22.873  0.00  0.00    +0.000 A 
ATOM     18  C   UNL     1      -2.720  13.034  23.203  0.00  0.00    +0.000 A 
ATOM     19  N   UNL     1      -5.217  12.975  22.925  0.00  0.00    +0.000 N 
ATOM     20  H   UNL     1      -6.006  11.590  25.674  0.00  0.00    +0.000 HD
ENDROOT
BRANCH  19  21
ATOM     21  S   UNL     1      -5.728  13.675  21.480  0.00  0.00    +0.000 S 
ATOM     22  O   UNL     1      -7.163  13.551  21.365  0.00  0.00    +0.000 OA
ATOM     23  O   UNL     1      -5.127  15.001  21.353  0.00  0.00    +0.000 OA
BRANCH  21  24
ATOM     24  C   UNL     1      -5.067  12.693  20.153  0.00  0.00    +0.000 A 
ATOM     25  C   UNL     1      -5.955  11.923  19.395  0.00  0.00    +0.000 A 
ATOM     26  C   UNL     1      -5.488  11.234  18.274  0.00  0.00    +0.000 A 
ATOM     27  C   UNL     1      -4.115  11.191  18.012  0.00  0.00    +0.000 A 
ATOM     28  C   UNL     1      -3.606  10.404  16.978  0.00  0.00    +0.000 A 
ATOM     29  C   UNL     1      -2.365   9.818  17.120  0.00  0.00    +0.000 A 
ATOM     30  C   UNL     1      -1.456  10.425  17.968  0.00  0.00    +0.000 A 
ATOM     31  C   UNL     1      -1.837  11.556  18.705  0.00  0.00    +0.000 A 
ATOM     32  C   UNL     1      -3.202  11.863  18.833  0.00  0.00    +0.000 A 
ATOM     33  C   UNL     1      -3.708  12.749  19.807  0.00  0.00    +0.000 A 
ENDBRANCH  21  24
ENDBRANCH  19  21
TORSDOF 2
ENDMDL
MODEL 9
REMARK VINA RESULT:      -7.7      2.122      7.078
REMARK  Name = 
REMARK  2 active torsions:
REMARK  status: ('A' for Active; 'I' for Inactive)
REMARK    1  A    between atoms: N_19  and  S_20
REMARK    2  A    between atoms: S_20  and  C_23
REMARK                            x       y       z     vdW  Elec       q    Type
REMARK                         _______ _______ _______ _____ _____    ______ ____
ROOT
ATOM      1  O   UNL     1      -0.997  13.597  17.440  0.00  0.00    +0.000 OA
ATOM      2  C   UNL     1      -0.370  12.979  18.266  0.00  0.00    +0.000 C 
ATOM      3  N   UNL     1       0.765  13.445  18.856  0.00  0.00    +0.000 N 
ATOM      4  C   UNL     1       1.392  12.495  19.581  0.00  0.00    +0.000 C 
ATOM      5  O   UNL     1       2.488  12.647  20.102  0.00  0.00    +0.000 OA
ATOM      6  C   UNL     1       0.477  11.214  19.603  0.00  0.00    +0.000 C 
ATOM      7  C   UNL     1       1.238   9.981  19.160  0.00  0.00    +0.000 A 
ATOM      8  C   UNL     1       1.859   9.732  17.944  0.00  0.00    +0.000 A 
ATOM      9  C   UNL     1       2.410   8.469  17.738  0.00  0.00    +0.000 A 
ATOM     10  C   UNL     1       2.351   7.490  18.742  0.00  0.00    +0.000 A 
ATOM     11  C   UNL     1       1.757   7.760  19.981  0.00  0.00    +0.000 A 
ATOM     12  C   UNL     1       1.210   9.015  20.193  0.00  0.00    +0.000 A 
ATOM     13  C   UNL     1       0.492   9.560  21.332  0.00  0.00    +0.000 A 
ATOM     14  C   UNL     1       0.149   8.989  22.546  0.00  0.00    +0.000 A 
ATOM     15  C   UNL     1      -0.635   9.730  23.438  0.00  0.00    +0.000 A 
ATOM     16  C   UNL     1      -1.040  11.039  23.132  0.00  0.00    +0.000 A 
ATOM     17  C   UNL     1      -0.693  11.622  21.915  0.00  0.00    +0.000 A 
ATOM     18  C   UNL     1       0.053  10.866  21.019  0.00  0.00    +0.000 A 
ATOM     19  N   UNL     1      -0.625  11.707  18.750  0.00  0.00    +0.000 N 
ATOM     20  H   UNL     1       1.163  14.331  18.621  0.00  0.00    +0.000 HD
ENDROOT
BRANCH  19  21
ATOM     21  S   UNL     1      -1.726  10.689  17.981  0.00  0.00    +0.000 S 
ATOM     22  O   UNL     1      -1.594  10.831  16.549  0.00  0.00    +0.000 OA
ATOM     23  O   UNL     1      -1.629   9.352  18.564  0.00  0.00    +0.000 OA
BRANCH  21  24
ATOM     24  C   UNL     1      -3.356  11.289  18.361  0.00  0.00    +0.000 A 
ATOM     25  C   UNL     1      -4.415  10.887  17.541  0.00  0.00    +0.000 A 
ATOM     26  C   UNL     1      -5.723  11.242  17.879  0.00  0.00    +0.000 A 
ATOM     27  C   UNL     1      -5.947  12.123  18.942  0.00  0.00    +0.000 A 
ATOM     28  C   UNL     1      -7.228  12.600  19.221  0.00  0.00    +0.000 A 
ATOM     29  C   UNL     1      -7.383  13.876  19.722  0.00  0.00    +0.000 A 
ATOM     30  C   UNL     1      -6.328  14.426  20.429  0.00  0.00    +0.000 A 
ATOM     31  C   UNL     1      -5.125  13.715  20.552  0.00  0.00    +0.000 A 
ATOM     32  C   UNL     1      -4.882  12.625  19.699  0.00  0.00    +0.000 A 
ATOM     33  C   UNL     1      -3.601  12.068  19.502  0.00  0.00    +0.000 A 
ENDBRANCH  21  24
ENDBRANCH  19  21
TORSDOF 2
ENDMDL
