MODEL 1
REMARK VINA RESULT:      -9.2      0.000      0.000
REMARK  Name = 
REMARK  9 active torsions:
REMARK  status: ('A' for Active; 'I' for Inactive)
REMARK    1  A    between atoms: C_1  and  N_2
REMARK    2  A    between atoms: N_2  and  C_3
REMARK    3  A    between atoms: C_4  and  C_6
REMARK    4  A    between atoms: C_9  and  C_10
REMARK    5  A    between atoms: N_12  and  C_13
REMARK    6  A    between atoms: C_13  and  C_14
REMARK    7  A    between atoms: C_13  and  C_18
REMARK    8  A    between atoms: N_16  and  O_17
REMARK    9  A    between atoms: C_21  and  C_22
REMARK                            x       y       z     vdW  Elec       q    Type
REMARK                         _______ _______ _______ _____ _____    ______ ____
ROOT
ATOM      1  C   UNL     1       0.731  11.419  18.575  0.00  0.00    +0.000 C 
ENDROOT
BRANCH   1   2
ATOM      2  C   UNL     1       1.220  10.019  18.914  0.00  0.00    +0.000 A 
ATOM      3  C   UNL     1       1.831   9.244  17.921  0.00  0.00    +0.000 A 
ATOM      4  C   UNL     1       2.241   7.932  18.183  0.00  0.00    +0.000 A 
ATOM      5  C   UNL     1       2.071   7.346  19.450  0.00  0.00    +0.000 A 
ATOM      6  C   UNL     1       1.459   8.135  20.437  0.00  0.00    +0.000 A 
ATOM      7  C   UNL     1       1.022   9.440  20.173  0.00  0.00    +0.000 A 
BRANCH   5   8
ATOM      8  C   UNL     1       2.495   5.951  19.714  0.00  0.00    +0.000 A 
ATOM      9  C   UNL     1       1.755   5.103  20.562  0.00  0.00    +0.000 A 
ATOM     10  C   UNL     1       2.181   3.803  20.842  0.00  0.00    +0.000 A 
ATOM     11  F   UNL     1       1.456   3.045  21.675  0.00  0.00    +0.000 F 
ATOM     12  C   UNL     1       3.340   3.305  20.272  0.00  0.00    +0.000 A 
ATOM     13  F   UNL     1       3.746   2.058  20.546  0.00  0.00    +0.000 F 
ATOM     14  C   UNL     1       4.074   4.108  19.420  0.00  0.00    +0.000 A 
ATOM     15  F   UNL     1       5.197   3.643  18.851  0.00  0.00    +0.000 F 
ATOM     16  C   UNL     1       3.669   5.416  19.142  0.00  0.00    +0.000 A 
ENDBRANCH   5   8
ENDBRANCH   1   2
BRANCH   1  19
ATOM     17  C   UNL     1      -1.670  11.946  18.796  0.00  0.00    +0.000 C 
ATOM     18  O   UNL     1      -1.856  11.864  17.585  0.00  0.00    +0.000 OA
ATOM     19  N   UNL     1      -0.440  11.753  19.377  0.00  0.00    +0.000 N 
ATOM     20  H   UNL     1      -0.335  11.695  20.382  0.00  0.00    +0.000 HD
BRANCH  17  24
ATOM     21  C   UNL     1      -4.886  12.746  21.542  0.00  0.00    +0.000 A 
ATOM     22  C   UNL     1      -3.555  12.675  21.969  0.00  0.00    +0.000 A 
ATOM     23  C   UNL     1      -2.525  12.474  21.052  0.00  0.00    +0.000 A 
ATOM     24  C   UNL     1      -2.810  12.258  19.699  0.00  0.00    +0.000 A 
ATOM     25  C   UNL     1      -4.142  12.256  19.271  0.00  0.00    +0.000 A 
ATOM     26  C   UNL     1      -5.174  12.506  20.189  0.00  0.00    +0.000 A 
BRANCH  21  30
ATOM     27  C   UNL     1      -7.409  14.423  23.876  0.00  0.00    +0.000 C 
ATOM     28  N   UNL     1      -6.325  14.282  22.918  0.00  0.00    +0.000 N 
ATOM     29  C   UNL     1      -5.814  15.508  22.319  0.00  0.00    +0.000 C 
ATOM     30  C   UNL     1      -6.013  12.986  22.497  0.00  0.00    +0.000 C 
ATOM     31  O   UNL     1      -6.649  11.998  22.876  0.00  0.00    +0.000 OA
ENDBRANCH  21  30
ENDBRANCH  17  24
ENDBRANCH   1  19
BRANCH   1  32
ATOM     32  C   UNL     1       1.815  12.494  18.793  0.00  0.00    +0.000 C 
ATOM     33  O   UNL     1       2.050  13.011  19.889  0.00  0.00    +0.000 OA
ATOM     34  N   UNL     1       2.547  12.810  17.674  0.00  0.00    +0.000 N 
ATOM     35  H   UNL     1       2.400  12.430  16.745  0.00  0.00    +0.000 HD
BRANCH  34  36
ATOM     36  O   UNL     1       3.569  13.772  17.825  0.00  0.00    +0.000 OA
ATOM     37  H   UNL     1       3.429  14.095  18.742  0.00  0.00    +0.000 HD
ENDBRANCH  34  36
ENDBRANCH   1  32
TORSDOF 7
ENDMDL
MODEL 2
REMARK VINA RESULT:      -9.2      0.131      1.638
REMARK  Name = 
REMARK  9 active torsions:
REMARK  status: ('A' for Active; 'I' for Inactive)
REMARK    1  A    between atoms: C_1  and  N_2
REMARK    2  A    between atoms: N_2  and  C_3
REMARK    3  A    between atoms: C_4  and  C_6
REMARK    4  A    between atoms: C_9  and  C_10
REMARK    5  A    between atoms: N_12  and  C_13
REMARK    6  A    between atoms: C_13  and  C_14
REMARK    7  A    between atoms: C_13  and  C_18
REMARK    8  A    between atoms: N_16  and  O_17
REMARK    9  A    between atoms: C_21  and  C_22
REMARK                            x       y       z     vdW  Elec       q    Type
REMARK                         _______ _______ _______ _____ _____    ______ ____
ROOT
ATOM      1  C   UNL     1       0.751  11.404  18.536  0.00  0.00    +0.000 C 
ENDROOT
BRANCH   1   2
ATOM      2  C   UNL     1       1.193   9.975  18.813  0.00  0.00    +0.000 A 
ATOM      3  C   UNL     1       1.006   9.433  20.091  0.00  0.00    +0.000 A 
ATOM      4  C   UNL     1       1.452   8.143  20.397  0.00  0.00    +0.000 A 
ATOM      5  C   UNL     1       2.089   7.337  19.437  0.00  0.00    +0.000 A 
ATOM      6  C   UNL     1       2.268   7.892  18.160  0.00  0.00    +0.000 A 
ATOM      7  C   UNL     1       1.847   9.193  17.855  0.00  0.00    +0.000 A 
BRANCH   5   8
ATOM      8  C   UNL     1       2.570   5.977  19.774  0.00  0.00    +0.000 A 
ATOM      9  C   UNL     1       3.756   5.455  19.219  0.00  0.00    +0.000 A 
ATOM     10  C   UNL     1       4.184   4.157  19.506  0.00  0.00    +0.000 A 
ATOM     11  F   UNL     1       5.305   3.699  18.934  0.00  0.00    +0.000 F 
ATOM     12  C   UNL     1       3.458   3.352  20.367  0.00  0.00    +0.000 A 
ATOM     13  F   UNL     1       3.872   2.106  20.637  0.00  0.00    +0.000 F 
ATOM     14  C   UNL     1       2.303   3.845  20.943  0.00  0.00    +0.000 A 
ATOM     15  F   UNL     1       1.587   3.085  21.785  0.00  0.00    +0.000 F 
ATOM     16  C   UNL     1       1.854   5.136  20.653  0.00  0.00    +0.000 A 
ENDBRANCH   5   8
ENDBRANCH   1   2
BRANCH   1  19
ATOM     17  C   UNL     1      -1.632  11.984  18.812  0.00  0.00    +0.000 C 
ATOM     18  O   UNL     1      -1.842  11.934  17.603  0.00  0.00    +0.000 OA
ATOM     19  N   UNL     1      -0.398  11.748  19.366  0.00  0.00    +0.000 N 
ATOM     20  H   UNL     1      -0.277  11.664  20.367  0.00  0.00    +0.000 HD
BRANCH  17  24
ATOM     21  C   UNL     1      -4.774  12.807  21.636  0.00  0.00    +0.000 A 
ATOM     22  C   UNL     1      -3.429  12.771  22.022  0.00  0.00    +0.000 A 
ATOM     23  C   UNL     1      -2.425  12.561  21.078  0.00  0.00    +0.000 A 
ATOM     24  C   UNL     1      -2.749  12.302  19.742  0.00  0.00    +0.000 A 
ATOM     25  C   UNL     1      -4.094  12.265  19.357  0.00  0.00    +0.000 A 
ATOM     26  C   UNL     1      -5.101  12.524  20.300  0.00  0.00    +0.000 A 
BRANCH  21  30
ATOM     27  C   UNL     1      -7.262  14.508  23.989  0.00  0.00    +0.000 C 
ATOM     28  N   UNL     1      -6.207  14.358  23.001  0.00  0.00    +0.000 N 
ATOM     29  C   UNL     1      -5.751  15.573  22.338  0.00  0.00    +0.000 C 
ATOM     30  C   UNL     1      -5.874  13.055  22.619  0.00  0.00    +0.000 C 
ATOM     31  O   UNL     1      -6.471  12.066  23.058  0.00  0.00    +0.000 OA
ENDBRANCH  21  30
ENDBRANCH  17  24
ENDBRANCH   1  19
BRANCH   1  32
ATOM     32  C   UNL     1       1.876  12.430  18.782  0.00  0.00    +0.000 C 
ATOM     33  O   UNL     1       2.137  12.900  19.893  0.00  0.00    +0.000 OA
ATOM     34  N   UNL     1       2.611  12.758  17.668  0.00  0.00    +0.000 N 
ATOM     35  H   UNL     1       2.443  12.415  16.728  0.00  0.00    +0.000 HD
BRANCH  34  36
ATOM     36  O   UNL     1       3.668  13.676  17.843  0.00  0.00    +0.000 OA
ATOM     37  H   UNL     1       3.622  13.880  18.802  0.00  0.00    +0.000 HD
ENDBRANCH  34  36
ENDBRANCH   1  32
TORSDOF 7
ENDMDL
MODEL 3
REMARK VINA RESULT:      -9.1      3.631      7.079
REMARK  Name = 
REMARK  9 active torsions:
REMARK  status: ('A' for Active; 'I' for Inactive)
REMARK    1  A    between atoms: C_1  and  N_2
REMARK    2  A    between atoms: N_2  and  C_3
REMARK    3  A    between atoms: C_4  and  C_6
REMARK    4  A    between atoms: C_9  and  C_10
REMARK    5  A    between atoms: N_12  and  C_13
REMARK    6  A    between atoms: C_13  and  C_14
REMARK    7  A    between atoms: C_13  and  C_18
REMARK    8  A    between atoms: N_16  and  O_17
REMARK    9  A    between atoms: C_21  and  C_22
REMARK                            x       y       z     vdW  Elec       q    Type
REMARK                         _______ _______ _______ _____ _____    ______ ____
ROOT
ATOM      1  C   UNL     1       0.378  10.889  19.705  0.00  0.00    +0.000 C 
ENDROOT
BRANCH   1   2
ATOM      2  C   UNL     1       0.996   9.499  19.680  0.00  0.00    +0.000 A 
ATOM      3  C   UNL     1       0.948   8.704  20.832  0.00  0.00    +0.000 A 
ATOM      4  C   UNL     1       1.556   7.444  20.863  0.00  0.00    +0.000 A 
ATOM      5  C   UNL     1       2.224   6.922  19.741  0.00  0.00    +0.000 A 
ATOM      6  C   UNL     1       2.263   7.728  18.593  0.00  0.00    +0.000 A 
ATOM      7  C   UNL     1       1.679   9.002  18.565  0.00  0.00    +0.000 A 
BRANCH   5   8
ATOM      8  C   UNL     1       2.877   5.593  19.787  0.00  0.00    +0.000 A 
ATOM      9  C   UNL     1       4.129   5.364  19.182  0.00  0.00    +0.000 A 
ATOM     10  C   UNL     1       4.722   4.100  19.191  0.00  0.00    +0.000 A 
ATOM     11  F   UNL     1       5.901   3.928  18.580  0.00  0.00    +0.000 F 
ATOM     12  C   UNL     1       4.097   3.035  19.818  0.00  0.00    +0.000 A 
ATOM     13  F   UNL     1       4.669   1.823  19.822  0.00  0.00    +0.000 F 
ATOM     14  C   UNL     1       2.878   3.236  20.439  0.00  0.00    +0.000 A 
ATOM     15  F   UNL     1       2.259   2.220  21.058  0.00  0.00    +0.000 F 
ATOM     16  C   UNL     1       2.266   4.491  20.424  0.00  0.00    +0.000 A 
ENDBRANCH   5   8
ENDBRANCH   1   2
BRANCH   1  19
ATOM     17  C   UNL     1       1.744  12.812  20.430  0.00  0.00    +0.000 C 
ATOM     18  O   UNL     1       1.215  12.842  21.538  0.00  0.00    +0.000 OA
ATOM     19  N   UNL     1       1.400  11.900  19.462  0.00  0.00    +0.000 N 
ATOM     20  H   UNL     1       1.938  11.809  18.610  0.00  0.00    +0.000 HD
BRANCH  17  24
ATOM     21  C   UNL     1       4.877  15.544  19.311  0.00  0.00    +0.000 A 
ATOM     22  C   UNL     1       4.002  15.000  18.364  0.00  0.00    +0.000 A 
ATOM     23  C   UNL     1       2.959  14.164  18.758  0.00  0.00    +0.000 A 
ATOM     24  C   UNL     1       2.816  13.789  20.098  0.00  0.00    +0.000 A 
ATOM     25  C   UNL     1       3.728  14.270  21.045  0.00  0.00    +0.000 A 
ATOM     26  C   UNL     1       4.749  15.149  20.653  0.00  0.00    +0.000 A 
BRANCH  21  30
ATOM     27  C   UNL     1       8.271  16.917  18.208  0.00  0.00    +0.000 C 
ATOM     28  N   UNL     1       7.232  15.954  18.532  0.00  0.00    +0.000 N 
ATOM     29  C   UNL     1       7.505  14.560  18.205  0.00  0.00    +0.000 C 
ATOM     30  C   UNL     1       5.991  16.464  18.924  0.00  0.00    +0.000 C 
ATOM     31  O   UNL     1       5.757  17.676  18.956  0.00  0.00    +0.000 OA
ENDBRANCH  21  30
ENDBRANCH  17  24
ENDBRANCH   1  19
BRANCH   1  32
ATOM     32  C   UNL     1      -0.750  11.053  18.667  0.00  0.00    +0.000 C 
ATOM     33  O   UNL     1      -1.723  10.297  18.594  0.00  0.00    +0.000 OA
ATOM     34  N   UNL     1      -0.621  12.146  17.843  0.00  0.00    +0.000 N 
ATOM     35  H   UNL     1       0.155  12.799  17.846  0.00  0.00    +0.000 HD
BRANCH  34  36
ATOM     36  O   UNL     1      -1.641  12.356  16.890  0.00  0.00    +0.000 OA
ATOM     37  H   UNL     1      -1.710  13.335  16.859  0.00  0.00    +0.000 HD
ENDBRANCH  34  36
ENDBRANCH   1  32
TORSDOF 7
ENDMDL
MODEL 4
REMARK VINA RESULT:      -9.0      0.246      1.650
REMARK  Name = 
REMARK  9 active torsions:
REMARK  status: ('A' for Active; 'I' for Inactive)
REMARK    1  A    between atoms: C_1  and  N_2
REMARK    2  A    between atoms: N_2  and  C_3
REMARK    3  A    between atoms: C_4  and  C_6
REMARK    4  A    between atoms: C_9  and  C_10
REMARK    5  A    between atoms: N_12  and  C_13
REMARK    6  A    between atoms: C_13  and  C_14
REMARK    7  A    between atoms: C_13  and  C_18
REMARK    8  A    between atoms: N_16  and  O_17
REMARK    9  A    between atoms: C_21  and  C_22
REMARK                            x       y       z     vdW  Elec       q    Type
REMARK                         _______ _______ _______ _____ _____    ______ ____
ROOT
ATOM      1  C   UNL     1       0.710  11.383  18.670  0.00  0.00    +0.000 C 
ENDROOT
BRANCH   1   2
ATOM      2  C   UNL     1       1.242   9.993  18.985  0.00  0.00    +0.000 A 
ATOM      3  C   UNL     1       1.904   9.268  17.987  0.00  0.00    +0.000 A 
ATOM      4  C   UNL     1       2.356   7.965  18.224  0.00  0.00    +0.000 A 
ATOM      5  C   UNL     1       2.178   7.339  19.471  0.00  0.00    +0.000 A 
ATOM      6  C   UNL     1       1.514   8.078  20.463  0.00  0.00    +0.000 A 
ATOM      7  C   UNL     1       1.036   9.373  20.222  0.00  0.00    +0.000 A 
BRANCH   5   8
ATOM      8  C   UNL     1       2.647   5.954  19.708  0.00  0.00    +0.000 A 
ATOM      9  C   UNL     1       3.745   5.416  19.007  0.00  0.00    +0.000 A 
ATOM     10  C   UNL     1       4.157   4.097  19.204  0.00  0.00    +0.000 A 
ATOM     11  F   UNL     1       5.191   3.625  18.495  0.00  0.00    +0.000 F 
ATOM     12  C   UNL     1       3.504   3.284  20.115  0.00  0.00    +0.000 A 
ATOM     13  F   UNL     1       3.902   2.017  20.297  0.00  0.00    +0.000 F 
ATOM     14  C   UNL     1       2.438   3.792  20.831  0.00  0.00    +0.000 A 
ATOM     15  F   UNL     1       1.794   3.024  21.724  0.00  0.00    +0.000 F 
ATOM     16  C   UNL     1       2.004   5.105  20.635  0.00  0.00    +0.000 A 
ENDBRANCH   5   8
ENDBRANCH   1   2
BRANCH   1  19
ATOM     17  C   UNL     1      -1.666  11.947  19.030  0.00  0.00    +0.000 C 
ATOM     18  O   UNL     1      -1.911  11.926  17.827  0.00  0.00    +0.000 OA
ATOM     19  N   UNL     1      -0.415  11.702  19.542  0.00  0.00    +0.000 N 
ATOM     20  H   UNL     1      -0.265  11.594  20.537  0.00  0.00    +0.000 HD
BRANCH  17  24
ATOM     21  C   UNL     1      -4.904  12.893  21.704  0.00  0.00    +0.000 A 
ATOM     22  C   UNL     1      -5.121  12.653  20.342  0.00  0.00    +0.000 A 
ATOM     23  C   UNL     1      -4.065  12.290  19.508  0.00  0.00    +0.000 A 
ATOM     24  C   UNL     1      -2.756  12.239  20.000  0.00  0.00    +0.000 A 
ATOM     25  C   UNL     1      -2.516  12.546  21.344  0.00  0.00    +0.000 A 
ATOM     26  C   UNL     1      -3.587  12.865  22.193  0.00  0.00    +0.000 A 
BRANCH  21  30
ATOM     27  C   UNL     1      -7.404  14.868  23.818  0.00  0.00    +0.000 C 
ATOM     28  N   UNL     1      -6.331  14.600  22.875  0.00  0.00    +0.000 N 
ATOM     29  C   UNL     1      -5.834  15.734  22.106  0.00  0.00    +0.000 C 
ATOM     30  C   UNL     1      -6.019  13.259  22.631  0.00  0.00    +0.000 C 
ATOM     31  O   UNL     1      -6.647  12.331  23.151  0.00  0.00    +0.000 OA
ENDBRANCH  21  30
ENDBRANCH  17  24
ENDBRANCH   1  19
BRANCH   1  32
ATOM     32  C   UNL     1       1.787  12.476  18.816  0.00  0.00    +0.000 C 
ATOM     33  O   UNL     1       2.142  12.940  19.904  0.00  0.00    +0.000 OA
ATOM     34  N   UNL     1       2.368  12.874  17.637  0.00  0.00    +0.000 N 
ATOM     35  H   UNL     1       2.117  12.540  16.712  0.00  0.00    +0.000 HD
BRANCH  34  36
ATOM     36  O   UNL     1       3.378  13.857  17.717  0.00  0.00    +0.000 OA
ATOM     37  H   UNL     1       4.036  13.443  18.317  0.00  0.00    +0.000 HD
ENDBRANCH  34  36
ENDBRANCH   1  32
TORSDOF 7
ENDMDL
MODEL 5
REMARK VINA RESULT:      -9.0      0.363      1.222
REMARK  Name = 
REMARK  9 active torsions:
REMARK  status: ('A' for Active; 'I' for Inactive)
REMARK    1  A    between atoms: C_1  and  N_2
REMARK    2  A    between atoms: N_2  and  C_3
REMARK    3  A    between atoms: C_4  and  C_6
REMARK    4  A    between atoms: C_9  and  C_10
REMARK    5  A    between atoms: N_12  and  C_13
REMARK    6  A    between atoms: C_13  and  C_14
REMARK    7  A    between atoms: C_13  and  C_18
REMARK    8  A    between atoms: N_16  and  O_17
REMARK    9  A    between atoms: C_21  and  C_22
REMARK                            x       y       z     vdW  Elec       q    Type
REMARK                         _______ _______ _______ _____ _____    ______ ____
ROOT
ATOM      1  C   UNL     1       0.778  11.213  18.590  0.00  0.00    +0.000 C 
ENDROOT
BRANCH   1   2
ATOM      2  C   UNL     1       1.264   9.790  18.817  0.00  0.00    +0.000 A 
ATOM      3  C   UNL     1       1.119   9.207  20.081  0.00  0.00    +0.000 A 
ATOM      4  C   UNL     1       1.606   7.921  20.341  0.00  0.00    +0.000 A 
ATOM      5  C   UNL     1       2.243   7.160  19.344  0.00  0.00    +0.000 A 
ATOM      6  C   UNL     1       2.380   7.756  18.081  0.00  0.00    +0.000 A 
ATOM      7  C   UNL     1       1.918   9.054  17.823  0.00  0.00    +0.000 A 
BRANCH   5   8
ATOM      8  C   UNL     1       2.768   5.805  19.632  0.00  0.00    +0.000 A 
ATOM      9  C   UNL     1       2.131   4.946  20.549  0.00  0.00    +0.000 A 
ATOM     10  C   UNL     1       2.653   3.686  20.848  0.00  0.00    +0.000 A 
ATOM     11  F   UNL     1       2.024   2.916  21.746  0.00  0.00    +0.000 F 
ATOM     12  C   UNL     1       3.808   3.238  20.231  0.00  0.00    +0.000 A 
ATOM     13  F   UNL     1       4.306   2.029  20.524  0.00  0.00    +0.000 F 
ATOM     14  C   UNL     1       4.442   4.051  19.311  0.00  0.00    +0.000 A 
ATOM     15  F   UNL     1       5.559   3.635  18.695  0.00  0.00    +0.000 F 
ATOM     16  C   UNL     1       3.941   5.320  19.012  0.00  0.00    +0.000 A 
ENDBRANCH   5   8
ENDBRANCH   1   2
BRANCH   1  19
ATOM     17  C   UNL     1      -1.520  12.004  19.024  0.00  0.00    +0.000 C 
ATOM     18  O   UNL     1      -1.731  12.216  17.834  0.00  0.00    +0.000 OA
ATOM     19  N   UNL     1      -0.323  11.521  19.495  0.00  0.00    +0.000 N 
ATOM     20  H   UNL     1      -0.216  11.230  20.459  0.00  0.00    +0.000 HD
BRANCH  17  24
ATOM     21  C   UNL     1      -4.711  12.861  21.783  0.00  0.00    +0.000 A 
ATOM     22  C   UNL     1      -4.953  12.653  20.420  0.00  0.00    +0.000 A 
ATOM     23  C   UNL     1      -3.911  12.318  19.557  0.00  0.00    +0.000 A 
ATOM     24  C   UNL     1      -2.592  12.264  20.022  0.00  0.00    +0.000 A 
ATOM     25  C   UNL     1      -2.329  12.540  21.369  0.00  0.00    +0.000 A 
ATOM     26  C   UNL     1      -3.385  12.830  22.245  0.00  0.00    +0.000 A 
BRANCH  21  30
ATOM     27  C   UNL     1      -7.248  14.765  23.918  0.00  0.00    +0.000 C 
ATOM     28  N   UNL     1      -6.198  14.524  22.943  0.00  0.00    +0.000 N 
ATOM     29  C   UNL     1      -5.804  15.653  22.109  0.00  0.00    +0.000 C 
ATOM     30  C   UNL     1      -5.810  13.196  22.741  0.00  0.00    +0.000 C 
ATOM     31  O   UNL     1      -6.357  12.253  23.322  0.00  0.00    +0.000 OA
ENDBRANCH  21  30
ENDBRANCH  17  24
ENDBRANCH   1  19
BRANCH   1  32
ATOM     32  C   UNL     1       1.895  12.259  18.782  0.00  0.00    +0.000 C 
ATOM     33  O   UNL     1       2.156  12.784  19.869  0.00  0.00    +0.000 OA
ATOM     34  N   UNL     1       2.625  12.536  17.652  0.00  0.00    +0.000 N 
ATOM     35  H   UNL     1       2.458  12.147  16.730  0.00  0.00    +0.000 HD
BRANCH  34  36
ATOM     36  O   UNL     1       3.677  13.469  17.779  0.00  0.00    +0.000 OA
ATOM     37  H   UNL     1       4.064  13.242  18.652  0.00  0.00    +0.000 HD
ENDBRANCH  34  36
ENDBRANCH   1  32
TORSDOF 7
ENDMDL
MODEL 6
REMARK VINA RESULT:      -9.0      3.599      6.970
REMARK  Name = 
REMARK  9 active torsions:
REMARK  status: ('A' for Active; 'I' for Inactive)
REMARK    1  A    between atoms: C_1  and  N_2
REMARK    2  A    between atoms: N_2  and  C_3
REMARK    3  A    between atoms: C_4  and  C_6
REMARK    4  A    between atoms: C_9  and  C_10
REMARK    5  A    between atoms: N_12  and  C_13
REMARK    6  A    between atoms: C_13  and  C_14
REMARK    7  A    between atoms: C_13  and  C_18
REMARK    8  A    between atoms: N_16  and  O_17
REMARK    9  A    between atoms: C_21  and  C_22
REMARK                            x       y       z     vdW  Elec       q    Type
REMARK                         _______ _______ _______ _____ _____    ______ ____
ROOT
ATOM      1  C   UNL     1       0.428  10.978  19.767  0.00  0.00    +0.000 C 
ENDROOT
BRANCH   1   2
ATOM      2  C   UNL     1       1.024   9.580  19.709  0.00  0.00    +0.000 A 
ATOM      3  C   UNL     1       0.999   8.773  20.853  0.00  0.00    +0.000 A 
ATOM      4  C   UNL     1       1.590   7.504  20.851  0.00  0.00    +0.000 A 
ATOM      5  C   UNL     1       2.214   6.984  19.704  0.00  0.00    +0.000 A 
ATOM      6  C   UNL     1       2.229   7.803  18.563  0.00  0.00    +0.000 A 
ATOM      7  C   UNL     1       1.664   9.085  18.567  0.00  0.00    +0.000 A 
BRANCH   5   8
ATOM      8  C   UNL     1       2.848   5.645  19.715  0.00  0.00    +0.000 A 
ATOM      9  C   UNL     1       2.224   4.539  20.325  0.00  0.00    +0.000 A 
ATOM     10  C   UNL     1       2.844   3.288  20.371  0.00  0.00    +0.000 A 
ATOM     11  F   UNL     1       2.221   2.273  20.984  0.00  0.00    +0.000 F 
ATOM     12  C   UNL     1       4.090   3.099  19.795  0.00  0.00    +0.000 A 
ATOM     13  F   UNL     1       4.681   1.898  19.845  0.00  0.00    +0.000 F 
ATOM     14  C   UNL     1       4.715   4.162  19.172  0.00  0.00    +0.000 A 
ATOM     15  F   UNL     1       5.918   4.000  18.602  0.00  0.00    +0.000 F 
ATOM     16  C   UNL     1       4.114   5.422  19.132  0.00  0.00    +0.000 A 
ENDBRANCH   5   8
ENDBRANCH   1   2
BRANCH   1  19
ATOM     17  C   UNL     1       1.779  12.920  20.471  0.00  0.00    +0.000 C 
ATOM     18  O   UNL     1       1.216  12.988  21.560  0.00  0.00    +0.000 OA
ATOM     19  N   UNL     1       1.460  11.978  19.523  0.00  0.00    +0.000 N 
ATOM     20  H   UNL     1       2.024  11.857  18.691  0.00  0.00    +0.000 HD
BRANCH  17  24
ATOM     21  C   UNL     1       4.942  15.615  19.350  0.00  0.00    +0.000 A 
ATOM     22  C   UNL     1       4.019  15.135  18.414  0.00  0.00    +0.000 A 
ATOM     23  C   UNL     1       2.968  14.310  18.811  0.00  0.00    +0.000 A 
ATOM     24  C   UNL     1       2.864  13.883  20.140  0.00  0.00    +0.000 A 
ATOM     25  C   UNL     1       3.822  14.299  21.071  0.00  0.00    +0.000 A 
ATOM     26  C   UNL     1       4.852  15.168  20.678  0.00  0.00    +0.000 A 
BRANCH  21  30
ATOM     27  C   UNL     1       8.337  16.947  18.197  0.00  0.00    +0.000 C 
ATOM     28  N   UNL     1       7.285  15.997  18.520  0.00  0.00    +0.000 N 
ATOM     29  C   UNL     1       7.518  14.608  18.147  0.00  0.00    +0.000 C 
ATOM     30  C   UNL     1       6.066  16.522  18.960  0.00  0.00    +0.000 C 
ATOM     31  O   UNL     1       5.859  17.738  19.032  0.00  0.00    +0.000 OA
ENDBRANCH  21  30
ENDBRANCH  17  24
ENDBRANCH   1  19
BRANCH   1  32
ATOM     32  C   UNL     1      -0.717  11.177  18.753  0.00  0.00    +0.000 C 
ATOM     33  O   UNL     1      -1.760  10.518  18.767  0.00  0.00    +0.000 OA
ATOM     34  N   UNL     1      -0.512  12.187  17.844  0.00  0.00    +0.000 N 
ATOM     35  H   UNL     1       0.324  12.758  17.773  0.00  0.00    +0.000 HD
BRANCH  34  36
ATOM     36  O   UNL     1      -1.540  12.427  16.907  0.00  0.00    +0.000 OA
ATOM     37  H   UNL     1      -2.184  11.712  17.104  0.00  0.00    +0.000 HD
ENDBRANCH  34  36
ENDBRANCH   1  32
TORSDOF 7
ENDMDL
MODEL 7
REMARK VINA RESULT:      -8.8      3.614      6.981
REMARK  Name = 
REMARK  9 active torsions:
REMARK  status: ('A' for Active; 'I' for Inactive)
REMARK    1  A    between atoms: C_1  and  N_2
REMARK    2  A    between atoms: N_2  and  C_3
REMARK    3  A    between atoms: C_4  and  C_6
REMARK    4  A    between atoms: C_9  and  C_10
REMARK    5  A    between atoms: N_12  and  C_13
REMARK    6  A    between atoms: C_13  and  C_14
REMARK    7  A    between atoms: C_13  and  C_18
REMARK    8  A    between atoms: N_16  and  O_17
REMARK    9  A    between atoms: C_21  and  C_22
REMARK                            x       y       z     vdW  Elec       q    Type
REMARK                         _______ _______ _______ _____ _____    ______ ____
ROOT
ATOM      1  C   UNL     1       0.473  11.042  19.794  0.00  0.00    +0.000 C 
ENDROOT
BRANCH   1   2
ATOM      2  C   UNL     1       1.075   9.646  19.755  0.00  0.00    +0.000 A 
ATOM      3  C   UNL     1       1.655   9.179  18.570  0.00  0.00    +0.000 A 
ATOM      4  C   UNL     1       2.167   7.880  18.481  0.00  0.00    +0.000 A 
ATOM      5  C   UNL     1       2.134   7.000  19.577  0.00  0.00    +0.000 A 
ATOM      6  C   UNL     1       1.551   7.480  20.760  0.00  0.00    +0.000 A 
ATOM      7  C   UNL     1       1.012   8.771  20.846  0.00  0.00    +0.000 A 
BRANCH   5   8
ATOM      8  C   UNL     1       2.665   5.621  19.470  0.00  0.00    +0.000 A 
ATOM      9  C   UNL     1       3.304   5.165  18.300  0.00  0.00    +0.000 A 
ATOM     10  C   UNL     1       3.766   3.852  18.188  0.00  0.00    +0.000 A 
ATOM     11  F   UNL     1       4.344   3.459  17.045  0.00  0.00    +0.000 F 
ATOM     12  C   UNL     1       3.625   2.964  19.241  0.00  0.00    +0.000 A 
ATOM     13  F   UNL     1       4.067   1.704  19.128  0.00  0.00    +0.000 F 
ATOM     14  C   UNL     1       3.021   3.391  20.409  0.00  0.00    +0.000 A 
ATOM     15  F   UNL     1       2.880   2.550  21.445  0.00  0.00    +0.000 F 
ATOM     16  C   UNL     1       2.540   4.697  20.530  0.00  0.00    +0.000 A 
ENDBRANCH   5   8
ENDBRANCH   1   2
BRANCH   1  19
ATOM     17  C   UNL     1       1.789  13.033  20.419  0.00  0.00    +0.000 C 
ATOM     18  O   UNL     1       1.209  13.148  21.495  0.00  0.00    +0.000 OA
ATOM     19  N   UNL     1       1.497  12.041  19.515  0.00  0.00    +0.000 N 
ATOM     20  H   UNL     1       2.074  11.886  18.699  0.00  0.00    +0.000 HD
BRANCH  17  24
ATOM     21  C   UNL     1       4.910  15.867  19.548  0.00  0.00    +0.000 A 
ATOM     22  C   UNL     1       4.859  15.181  20.767  0.00  0.00    +0.000 A 
ATOM     23  C   UNL     1       3.872  14.225  21.003  0.00  0.00    +0.000 A 
ATOM     24  C   UNL     1       2.868  13.992  20.057  0.00  0.00    +0.000 A 
ATOM     25  C   UNL     1       2.868  14.722  18.863  0.00  0.00    +0.000 A 
ATOM     26  C   UNL     1       3.889  15.650  18.609  0.00  0.00    +0.000 A 
BRANCH  21  30
ATOM     27  C   UNL     1       8.160  17.541  18.427  0.00  0.00    +0.000 C 
ATOM     28  N   UNL     1       7.169  16.500  18.643  0.00  0.00    +0.000 N 
ATOM     29  C   UNL     1       7.419  15.213  18.008  0.00  0.00    +0.000 C 
ATOM     30  C   UNL     1       5.970  16.881  19.254  0.00  0.00    +0.000 C 
ATOM     31  O   UNL     1       5.729  18.052  19.560  0.00  0.00    +0.000 OA
ENDBRANCH  21  30
ENDBRANCH  17  24
ENDBRANCH   1  19
BRANCH   1  32
ATOM     32  C   UNL     1      -0.687  11.215  18.792  0.00  0.00    +0.000 C 
ATOM     33  O   UNL     1      -1.730  10.557  18.838  0.00  0.00    +0.000 OA
ATOM     34  N   UNL     1      -0.495  12.201  17.854  0.00  0.00    +0.000 N 
ATOM     35  H   UNL     1       0.340  12.769  17.756  0.00  0.00    +0.000 HD
BRANCH  34  36
ATOM     36  O   UNL     1      -1.537  12.417  16.927  0.00  0.00    +0.000 OA
ATOM     37  H   UNL     1      -1.573  13.397  16.866  0.00  0.00    +0.000 HD
ENDBRANCH  34  36
ENDBRANCH   1  32
TORSDOF 7
ENDMDL
MODEL 8
REMARK VINA RESULT:      -8.6      4.914      7.137
REMARK  Name = 
REMARK  9 active torsions:
REMARK  status: ('A' for Active; 'I' for Inactive)
REMARK    1  A    between atoms: C_1  and  N_2
REMARK    2  A    between atoms: N_2  and  C_3
REMARK    3  A    between atoms: C_4  and  C_6
REMARK    4  A    between atoms: C_9  and  C_10
REMARK    5  A    between atoms: N_12  and  C_13
REMARK    6  A    between atoms: C_13  and  C_14
REMARK    7  A    between atoms: C_13  and  C_18
REMARK    8  A    between atoms: N_16  and  O_17
REMARK    9  A    between atoms: C_21  and  C_22
REMARK                            x       y       z     vdW  Elec       q    Type
REMARK                         _______ _______ _______ _____ _____    ______ ____
ROOT
ATOM      1  C   UNL     1       3.084   5.810  19.633  0.00  0.00    +0.000 C 
ENDROOT
BRANCH   1   2
ATOM      2  C   UNL     1       3.854   5.468  18.367  0.00  0.00    +0.000 A 
ATOM      3  C   UNL     1       4.245   6.495  17.500  0.00  0.00    +0.000 A 
ATOM      4  C   UNL     1       4.904   6.212  16.299  0.00  0.00    +0.000 A 
ATOM      5  C   UNL     1       5.213   4.893  15.922  0.00  0.00    +0.000 A 
ATOM      6  C   UNL     1       4.817   3.872  16.802  0.00  0.00    +0.000 A 
ATOM      7  C   UNL     1       4.133   4.149  17.993  0.00  0.00    +0.000 A 
BRANCH   5   8
ATOM      8  C   UNL     1       5.899   4.601  14.642  0.00  0.00    +0.000 A 
ATOM      9  C   UNL     1       7.099   5.247  14.284  0.00  0.00    +0.000 A 
ATOM     10  C   UNL     1       7.720   5.000  13.058  0.00  0.00    +0.000 A 
ATOM     11  F   UNL     1       8.846   5.657  12.753  0.00  0.00    +0.000 F 
ATOM     12  C   UNL     1       7.177   4.092  12.164  0.00  0.00    +0.000 A 
ATOM     13  F   UNL     1       7.775   3.861  10.988  0.00  0.00    +0.000 F 
ATOM     14  C   UNL     1       6.012   3.428  12.499  0.00  0.00    +0.000 A 
ATOM     15  F   UNL     1       5.472   2.539  11.652  0.00  0.00    +0.000 F 
ATOM     16  C   UNL     1       5.371   3.676  13.716  0.00  0.00    +0.000 A 
ENDBRANCH   5   8
ENDBRANCH   1   2
BRANCH   1  19
ATOM     17  C   UNL     1       1.693   7.648  20.516  0.00  0.00    +0.000 C 
ATOM     18  O   UNL     1       1.525   7.079  21.591  0.00  0.00    +0.000 OA
ATOM     19  N   UNL     1       2.433   7.107  19.493  0.00  0.00    +0.000 N 
ATOM     20  H   UNL     1       2.667   7.648  18.670  0.00  0.00    +0.000 HD
BRANCH  17  24
ATOM     21  C   UNL     1      -0.197  11.477  19.973  0.00  0.00    +0.000 A 
ATOM     22  C   UNL     1      -0.190  10.830  21.214  0.00  0.00    +0.000 A 
ATOM     23  C   UNL     1       0.480   9.618  21.379  0.00  0.00    +0.000 A 
ATOM     24  C   UNL     1       1.088   8.988  20.288  0.00  0.00    +0.000 A 
ATOM     25  C   UNL     1       1.027   9.591  19.027  0.00  0.00    +0.000 A 
ATOM     26  C   UNL     1       0.393  10.833  18.873  0.00  0.00    +0.000 A 
BRANCH  21  30
ATOM     27  C   UNL     1      -0.967  15.220  19.831  0.00  0.00    +0.000 C 
ATOM     28  N   UNL     1      -0.214  13.991  20.019  0.00  0.00    +0.000 N 
ATOM     29  C   UNL     1       1.221  14.126  20.234  0.00  0.00    +0.000 C 
ATOM     30  C   UNL     1      -0.884  12.790  19.768  0.00  0.00    +0.000 C 
ATOM     31  O   UNL     1      -2.049  12.757  19.359  0.00  0.00    +0.000 OA
ENDBRANCH  21  30
ENDBRANCH  17  24
ENDBRANCH   1  19
BRANCH   1  32
ATOM     32  C   UNL     1       2.022   4.749  19.986  0.00  0.00    +0.000 C 
ATOM     33  O   UNL     1       1.101   4.430  19.230  0.00  0.00    +0.000 OA
ATOM     34  N   UNL     1       2.201   4.137  21.204  0.00  0.00    +0.000 N 
ATOM     35  H   UNL     1       2.931   4.358  21.874  0.00  0.00    +0.000 HD
BRANCH  34  36
ATOM     36  O   UNL     1       1.270   3.140  21.565  0.00  0.00    +0.000 OA
ATOM     37  H   UNL     1       0.416   3.623  21.544  0.00  0.00    +0.000 HD
ENDBRANCH  34  36
ENDBRANCH   1  32
TORSDOF 7
ENDMDL
MODEL 9
REMARK VINA RESULT:      -8.5      4.924      7.055
REMARK  Name = 
REMARK  9 active torsions:
REMARK  status: ('A' for Active; 'I' for Inactive)
REMARK    1  A    between atoms: C_1  and  N_2
REMARK    2  A    between atoms: N_2  and  C_3
REMARK    3  A    between atoms: C_4  and  C_6
REMARK    4  A    between atoms: C_9  and  C_10
REMARK    5  A    between atoms: N_12  and  C_13
REMARK    6  A    between atoms: C_13  and  C_14
REMARK    7  A    between atoms: C_13  and  C_18
REMARK    8  A    between atoms: N_16  and  O_17
REMARK    9  A    between atoms: C_21  and  C_22
REMARK                            x       y       z     vdW  Elec       q    Type
REMARK                         _______ _______ _______ _____ _____    ______ ____
ROOT
ATOM      1  C   UNL     1       3.076   5.786  19.628  0.00  0.00    +0.000 C 
ENDROOT
BRANCH   1   2
ATOM      2  C   UNL     1       3.835   5.454  18.353  0.00  0.00    +0.000 A 
ATOM      3  C   UNL     1       4.215   6.488  17.489  0.00  0.00    +0.000 A 
ATOM      4  C   UNL     1       4.864   6.214  16.280  0.00  0.00    +0.000 A 
ATOM      5  C   UNL     1       5.173   4.898  15.892  0.00  0.00    +0.000 A 
ATOM      6  C   UNL     1       4.788   3.871  16.768  0.00  0.00    +0.000 A 
ATOM      7  C   UNL     1       4.114   4.138  17.967  0.00  0.00    +0.000 A 
BRANCH   5   8
ATOM      8  C   UNL     1       5.848   4.616  14.603  0.00  0.00    +0.000 A 
ATOM      9  C   UNL     1       5.324   3.684  13.684  0.00  0.00    +0.000 A 
ATOM     10  C   UNL     1       5.986   3.390  12.490  0.00  0.00    +0.000 A 
ATOM     11  F   UNL     1       5.460   2.479  11.661  0.00  0.00    +0.000 F 
ATOM     12  C   UNL     1       7.172   4.028  12.168  0.00  0.00    +0.000 A 
ATOM     13  F   UNL     1       7.804   3.740  11.022  0.00  0.00    +0.000 F 
ATOM     14  C   UNL     1       7.697   4.962  13.041  0.00  0.00    +0.000 A 
ATOM     15  F   UNL     1       8.841   5.597  12.746  0.00  0.00    +0.000 F 
ATOM     16  C   UNL     1       7.054   5.255  14.246  0.00  0.00    +0.000 A 
ENDBRANCH   5   8
ENDBRANCH   1   2
BRANCH   1  19
ATOM     17  C   UNL     1       1.645   7.591  20.516  0.00  0.00    +0.000 C 
ATOM     18  O   UNL     1       1.450   6.993  21.570  0.00  0.00    +0.000 OA
ATOM     19  N   UNL     1       2.419   7.082  19.501  0.00  0.00    +0.000 N 
ATOM     20  H   UNL     1       2.674   7.645  18.700  0.00  0.00    +0.000 HD
BRANCH  17  24
ATOM     21  C   UNL     1      -0.249  11.425  20.025  0.00  0.00    +0.000 A 
ATOM     22  C   UNL     1      -0.201  10.782  21.267  0.00  0.00    +0.000 A 
ATOM     23  C   UNL     1       0.469   9.568  21.414  0.00  0.00    +0.000 A 
ATOM     24  C   UNL     1       1.037   8.932  20.304  0.00  0.00    +0.000 A 
ATOM     25  C   UNL     1       0.935   9.531  19.044  0.00  0.00    +0.000 A 
ATOM     26  C   UNL     1       0.300  10.775  18.908  0.00  0.00    +0.000 A 
BRANCH  21  30
ATOM     27  C   UNL     1      -1.011  15.170  19.899  0.00  0.00    +0.000 C 
ATOM     28  N   UNL     1      -0.256  13.939  20.066  0.00  0.00    +0.000 N 
ATOM     29  C   UNL     1       1.186  14.070  20.232  0.00  0.00    +0.000 C 
ATOM     30  C   UNL     1      -0.938  12.739  19.840  0.00  0.00    +0.000 C 
ATOM     31  O   UNL     1      -2.116  12.710  19.470  0.00  0.00    +0.000 OA
ENDBRANCH  21  30
ENDBRANCH  17  24
ENDBRANCH   1  19
BRANCH   1  32
ATOM     32  C   UNL     1       2.021   4.719  19.984  0.00  0.00    +0.000 C 
ATOM     33  O   UNL     1       1.099   4.395  19.230  0.00  0.00    +0.000 OA
ATOM     34  N   UNL     1       2.206   4.109  21.201  0.00  0.00    +0.000 N 
ATOM     35  H   UNL     1       2.936   4.334  21.870  0.00  0.00    +0.000 HD
BRANCH  34  36
ATOM     36  O   UNL     1       1.281   3.107  21.566  0.00  0.00    +0.000 OA
ATOM     37  H   UNL     1       1.328   2.483  20.809  0.00  0.00    +0.000 HD
ENDBRANCH  34  36
ENDBRANCH   1  32
TORSDOF 7
ENDMDL
