MODEL 1
REMARK VINA RESULT:      -8.0      0.000      0.000
REMARK  Name = 
REMARK  3 active torsions:
REMARK  status: ('A' for Active; 'I' for Inactive)
REMARK    1  A    between atoms: O_1  and  C_2
REMARK    2  A    between atoms: C_6  and  C_7
REMARK    3  A    between atoms: C_19  and  C_20
REMARK                            x       y       z     vdW  Elec       q    Type
REMARK                         _______ _______ _______ _____ _____    ______ ____
ROOT
ATOM      1  C   UNL     1       2.556   5.270  20.495  0.00  0.00    +0.000 A 
ATOM      2  N   UNL     1       1.866   6.404  20.470  0.00  0.00    +0.000 NA
ATOM      3  C   UNL     1       2.181   7.241  19.460  0.00  0.00    +0.000 A 
ATOM      4  C   UNL     1       3.154   6.946  18.503  0.00  0.00    +0.000 A 
ATOM      5  C   UNL     1       3.840   5.743  18.664  0.00  0.00    +0.000 A 
ATOM      6  N   UNL     1       3.525   4.888  19.662  0.00  0.00    +0.000 NA
ATOM      7  C   UNL     1       3.409   7.923  17.390  0.00  0.00    +0.000 C 
ATOM      8  O   UNL     1       2.383   8.906  17.261  0.00  0.00    +0.000 OA
ATOM      9  C   UNL     1       2.148   9.545  18.512  0.00  0.00    +0.000 C 
ATOM     10  C   UNL     1       1.472   8.546  19.409  0.00  0.00    +0.000 C 
ATOM     11  C   UNL     1       0.321   8.772  20.070  0.00  0.00    +0.000 C 
ENDROOT
BRANCH   5  12
ATOM     12  C   UNL     1       4.971   5.275  17.814  0.00  0.00    +0.000 A 
ATOM     13  C   UNL     1       6.275   5.160  18.340  0.00  0.00    +0.000 A 
ATOM     14  C   UNL     1       7.355   4.734  17.551  0.00  0.00    +0.000 A 
ATOM     15  C   UNL     1       7.156   4.390  16.219  0.00  0.00    +0.000 A 
ATOM     16  C   UNL     1       5.885   4.502  15.674  0.00  0.00    +0.000 A 
ATOM     17 CL   UNL     1       5.607   4.072  14.031  0.00  0.00    +0.000 Cl
ATOM     18  C   UNL     1       4.821   4.970  16.450  0.00  0.00    +0.000 A 
ENDBRANCH   5  12
BRANCH  11  19
ATOM     19  C   UNL     1      -0.436  10.026  19.987  0.00  0.00    +0.000 A 
ATOM     20  C   UNL     1      -0.268  11.009  20.972  0.00  0.00    +0.000 A 
ATOM     21  C   UNL     1      -0.989  12.205  20.907  0.00  0.00    +0.000 A 
ATOM     22  C   UNL     1      -1.882  12.422  19.858  0.00  0.00    +0.000 A 
ATOM     23  C   UNL     1      -2.059  11.438  18.887  0.00  0.00    +0.000 A 
ATOM     24 CL   UNL     1      -3.169  11.704  17.599  0.00  0.00    +0.000 Cl
ATOM     25  C   UNL     1      -1.346  10.240  18.947  0.00  0.00    +0.000 A 
ENDBRANCH  11  19
BRANCH   1  26
ATOM     26  O   UNL     1       2.236   4.429  21.511  0.00  0.00    +0.000 OA
ATOM     27  H   UNL     1       1.277   4.575  21.539  0.00  0.00    +0.000 HD
ENDBRANCH   1  26
TORSDOF 3
ENDMDL
MODEL 2
REMARK VINA RESULT:      -7.9      1.129      1.470
REMARK  Name = 
REMARK  3 active torsions:
REMARK  status: ('A' for Active; 'I' for Inactive)
REMARK    1  A    between atoms: O_1  and  C_2
REMARK    2  A    between atoms: C_6  and  C_7
REMARK    3  A    between atoms: C_19  and  C_20
REMARK                            x       y       z     vdW  Elec       q    Type
REMARK                         _______ _______ _______ _____ _____    ______ ____
ROOT
ATOM      1  C   UNL     1       2.542   5.174  20.510  0.00  0.00    +0.000 A 
ATOM      2  N   UNL     1       1.869   6.318  20.540  0.00  0.00    +0.000 NA
ATOM      3  C   UNL     1       2.179   7.187  19.557  0.00  0.00    +0.000 A 
ATOM      4  C   UNL     1       3.130   6.914  18.571  0.00  0.00    +0.000 A 
ATOM      5  C   UNL     1       3.800   5.696  18.674  0.00  0.00    +0.000 A 
ATOM      6  N   UNL     1       3.490   4.809  19.645  0.00  0.00    +0.000 NA
ATOM      7  C   UNL     1       3.379   7.929  17.491  0.00  0.00    +0.000 C 
ATOM      8  O   UNL     1       2.366   8.931  17.418  0.00  0.00    +0.000 OA
ATOM      9  C   UNL     1       2.164   9.525  18.696  0.00  0.00    +0.000 C 
ATOM     10  C   UNL     1       1.489   8.503  19.567  0.00  0.00    +0.000 C 
ATOM     11  C   UNL     1       0.354   8.722  20.258  0.00  0.00    +0.000 C 
ENDROOT
BRANCH   5  12
ATOM     12  C   UNL     1       4.908   5.244  17.786  0.00  0.00    +0.000 A 
ATOM     13  C   UNL     1       6.228   5.134  18.272  0.00  0.00    +0.000 A 
ATOM     14  C   UNL     1       7.287   4.723  17.446  0.00  0.00    +0.000 A 
ATOM     15  C   UNL     1       7.050   4.389  16.118  0.00  0.00    +0.000 A 
ATOM     16  C   UNL     1       5.762   4.497  15.613  0.00  0.00    +0.000 A 
ATOM     17 CL   UNL     1       5.438   4.080  13.975  0.00  0.00    +0.000 Cl
ATOM     18  C   UNL     1       4.719   4.950  16.424  0.00  0.00    +0.000 A 
ENDBRANCH   5  12
BRANCH  11  19
ATOM     19  C   UNL     1      -0.385   9.989  20.236  0.00  0.00    +0.000 A 
ATOM     20  C   UNL     1      -1.148  10.332  19.111  0.00  0.00    +0.000 A 
ATOM     21  C   UNL     1      -1.850  11.539  19.075  0.00  0.00    +0.000 A 
ATOM     22  C   UNL     1      -1.791  12.410  20.163  0.00  0.00    +0.000 A 
ATOM     23  C   UNL     1      -1.021  12.075  21.275  0.00  0.00    +0.000 A 
ATOM     24 CL   UNL     1      -0.942  13.157  22.612  0.00  0.00    +0.000 Cl
ATOM     25  C   UNL     1      -0.314  10.873  21.316  0.00  0.00    +0.000 A 
ENDBRANCH  11  19
BRANCH   1  26
ATOM     26  O   UNL     1       2.228   4.300  21.500  0.00  0.00    +0.000 OA
ATOM     27  H   UNL     1       2.162   3.486  20.976  0.00  0.00    +0.000 HD
ENDBRANCH   1  26
TORSDOF 3
ENDMDL
MODEL 3
REMARK VINA RESULT:      -7.6      1.131      1.341
REMARK  Name = 
REMARK  3 active torsions:
REMARK  status: ('A' for Active; 'I' for Inactive)
REMARK    1  A    between atoms: O_1  and  C_2
REMARK    2  A    between atoms: C_6  and  C_7
REMARK    3  A    between atoms: C_19  and  C_20
REMARK                            x       y       z     vdW  Elec       q    Type
REMARK                         _______ _______ _______ _____ _____    ______ ____
ROOT
ATOM      1  C   UNL     1       2.805   4.249  20.329  0.00  0.00    +0.000 A 
ATOM      2  N   UNL     1       2.173   5.374  20.641  0.00  0.00    +0.000 NA
ATOM      3  C   UNL     1       2.422   6.415  19.822  0.00  0.00    +0.000 A 
ATOM      4  C   UNL     1       3.276   6.328  18.719  0.00  0.00    +0.000 A 
ATOM      5  C   UNL     1       3.915   5.105  18.523  0.00  0.00    +0.000 A 
ATOM      6  N   UNL     1       3.663   4.049  19.328  0.00  0.00    +0.000 NA
ATOM      7  C   UNL     1       3.462   7.531  17.839  0.00  0.00    +0.000 C 
ATOM      8  O   UNL     1       2.478   8.541  18.053  0.00  0.00    +0.000 OA
ATOM      9  C   UNL     1       2.405   8.877  19.436  0.00  0.00    +0.000 C 
ATOM     10  C   UNL     1       1.777   7.713  20.150  0.00  0.00    +0.000 C 
ATOM     11  C   UNL     1       0.713   7.806  20.970  0.00  0.00    +0.000 C 
ENDROOT
BRANCH   5  12
ATOM     12  C   UNL     1       4.927   4.820  17.467  0.00  0.00    +0.000 A 
ATOM     13  C   UNL     1       6.306   4.814  17.767  0.00  0.00    +0.000 A 
ATOM     14  C   UNL     1       7.275   4.561  16.783  0.00  0.00    +0.000 A 
ATOM     15  C   UNL     1       6.890   4.288  15.476  0.00  0.00    +0.000 A 
ATOM     16  C   UNL     1       5.541   4.297  15.152  0.00  0.00    +0.000 A 
ATOM     17 CL   UNL     1       5.035   3.950  13.544  0.00  0.00    +0.000 Cl
ATOM     18  C   UNL     1       4.582   4.593  16.124  0.00  0.00    +0.000 A 
ENDBRANCH   5  12
BRANCH  11  19
ATOM     19  C   UNL     1       0.014   9.063  21.261  0.00  0.00    +0.000 A 
ATOM     20  C   UNL     1      -0.240   9.429  22.590  0.00  0.00    +0.000 A 
ATOM     21  C   UNL     1      -0.911  10.620  22.879  0.00  0.00    +0.000 A 
ATOM     22  C   UNL     1      -1.333  11.449  21.840  0.00  0.00    +0.000 A 
ATOM     23  C   UNL     1      -1.093  11.079  20.519  0.00  0.00    +0.000 A 
ATOM     24 CL   UNL     1      -1.623  12.100  19.239  0.00  0.00    +0.000 Cl
ATOM     25  C   UNL     1      -0.427   9.888  20.222  0.00  0.00    +0.000 A 
ENDBRANCH  11  19
BRANCH   1  26
ATOM     26  O   UNL     1       2.551   3.203  21.155  0.00  0.00    +0.000 OA
ATOM     27  H   UNL     1       3.388   3.184  21.645  0.00  0.00    +0.000 HD
ENDBRANCH   1  26
TORSDOF 3
ENDMDL
MODEL 4
REMARK VINA RESULT:      -7.6      2.780      8.279
REMARK  Name = 
REMARK  3 active torsions:
REMARK  status: ('A' for Active; 'I' for Inactive)
REMARK    1  A    between atoms: O_1  and  C_2
REMARK    2  A    between atoms: C_6  and  C_7
REMARK    3  A    between atoms: C_19  and  C_20
REMARK                            x       y       z     vdW  Elec       q    Type
REMARK                         _______ _______ _______ _____ _____    ______ ____
ROOT
ATOM      1  C   UNL     1       0.694   9.880  22.223  0.00  0.00    +0.000 A 
ATOM      2  N   UNL     1       1.117   8.880  21.459  0.00  0.00    +0.000 NA
ATOM      3  C   UNL     1       1.344   9.205  20.170  0.00  0.00    +0.000 A 
ATOM      4  C   UNL     1       1.157  10.494  19.665  0.00  0.00    +0.000 A 
ATOM      5  C   UNL     1       0.667  11.446  20.558  0.00  0.00    +0.000 A 
ATOM      6  N   UNL     1       0.449  11.138  21.856  0.00  0.00    +0.000 NA
ATOM      7  C   UNL     1       1.475  10.771  18.223  0.00  0.00    +0.000 C 
ATOM      8  O   UNL     1       2.248   9.740  17.611  0.00  0.00    +0.000 OA
ATOM      9  C   UNL     1       1.626   8.473  17.805  0.00  0.00    +0.000 C 
ATOM     10  C   UNL     1       1.776   8.114  19.257  0.00  0.00    +0.000 C 
ATOM     11  C   UNL     1       2.286   6.952  19.707  0.00  0.00    +0.000 C 
ENDROOT
BRANCH   5  12
ATOM     12  C   UNL     1       0.314  12.851  20.212  0.00  0.00    +0.000 A 
ATOM     13  C   UNL     1      -0.995  13.340  20.411  0.00  0.00    +0.000 A 
ATOM     14  C   UNL     1      -1.350  14.658  20.078  0.00  0.00    +0.000 A 
ATOM     15  C   UNL     1      -0.399  15.528  19.557  0.00  0.00    +0.000 A 
ATOM     16  C   UNL     1       0.893  15.069  19.343  0.00  0.00    +0.000 A 
ATOM     17 CL   UNL     1       2.093  16.128  18.710  0.00  0.00    +0.000 Cl
ATOM     18  C   UNL     1       1.231  13.745  19.633  0.00  0.00    +0.000 A 
ENDBRANCH   5  12
BRANCH  11  19
ATOM     19  C   UNL     1       2.782   5.885  18.831  0.00  0.00    +0.000 A 
ATOM     20  C   UNL     1       1.920   4.855  18.430  0.00  0.00    +0.000 A 
ATOM     21  C   UNL     1       2.382   3.829  17.601  0.00  0.00    +0.000 A 
ATOM     22  C   UNL     1       3.709   3.827  17.172  0.00  0.00    +0.000 A 
ATOM     23  C   UNL     1       4.569   4.844  17.582  0.00  0.00    +0.000 A 
ATOM     24 CL   UNL     1       6.209   4.834  17.058  0.00  0.00    +0.000 Cl
ATOM     25  C   UNL     1       4.116   5.869  18.413  0.00  0.00    +0.000 A 
ENDBRANCH  11  19
BRANCH   1  26
ATOM     26  O   UNL     1       0.466   9.550  23.520  0.00  0.00    +0.000 OA
ATOM     27  H   UNL     1       1.196   8.924  23.653  0.00  0.00    +0.000 HD
ENDBRANCH   1  26
TORSDOF 3
ENDMDL
MODEL 5
REMARK VINA RESULT:      -7.5      3.503      9.460
REMARK  Name = 
REMARK  3 active torsions:
REMARK  status: ('A' for Active; 'I' for Inactive)
REMARK    1  A    between atoms: O_1  and  C_2
REMARK    2  A    between atoms: C_6  and  C_7
REMARK    3  A    between atoms: C_19  and  C_20
REMARK                            x       y       z     vdW  Elec       q    Type
REMARK                         _______ _______ _______ _____ _____    ______ ____
ROOT
ATOM      1  C   UNL     1      -0.914  12.224  18.774  0.00  0.00    +0.000 A 
ATOM      2  N   UNL     1      -0.091  11.184  18.714  0.00  0.00    +0.000 NA
ATOM      3  C   UNL     1       0.139  10.570  19.892  0.00  0.00    +0.000 A 
ATOM      4  C   UNL     1      -0.443  10.983  21.093  0.00  0.00    +0.000 A 
ATOM      5  C   UNL     1      -1.253  12.116  21.033  0.00  0.00    +0.000 A 
ATOM      6  N   UNL     1      -1.504  12.733  19.856  0.00  0.00    +0.000 NA
ATOM      7  C   UNL     1      -0.159  10.212  22.350  0.00  0.00    +0.000 C 
ATOM      8  O   UNL     1       0.427   8.935  22.104  0.00  0.00    +0.000 OA
ATOM      9  C   UNL     1       1.572   9.067  21.268  0.00  0.00    +0.000 C 
ATOM     10  C   UNL     1       1.087   9.425  19.892  0.00  0.00    +0.000 C 
ATOM     11  C   UNL     1       1.428   8.767  18.768  0.00  0.00    +0.000 C 
ENDROOT
BRANCH   5  12
ATOM     12  C   UNL     1      -1.898  12.778  22.201  0.00  0.00    +0.000 A 
ATOM     13  C   UNL     1      -1.213  13.760  22.949  0.00  0.00    +0.000 A 
ATOM     14  C   UNL     1      -1.799  14.384  24.061  0.00  0.00    +0.000 A 
ATOM     15  C   UNL     1      -3.095  14.059  24.443  0.00  0.00    +0.000 A 
ATOM     16  C   UNL     1      -3.787  13.090  23.731  0.00  0.00    +0.000 A 
ATOM     17 CL   UNL     1      -5.398  12.676  24.176  0.00  0.00    +0.000 Cl
ATOM     18  C   UNL     1      -3.185  12.439  22.653  0.00  0.00    +0.000 A 
ENDBRANCH   5  12
BRANCH  11  19
ATOM     19  C   UNL     1       2.310   7.594  18.744  0.00  0.00    +0.000 A 
ATOM     20  C   UNL     1       3.357   7.527  17.816  0.00  0.00    +0.000 A 
ATOM     21  C   UNL     1       4.199   6.412  17.779  0.00  0.00    +0.000 A 
ATOM     22  C   UNL     1       3.995   5.358  18.670  0.00  0.00    +0.000 A 
ATOM     23  C   UNL     1       2.945   5.419  19.583  0.00  0.00    +0.000 A 
ATOM     24 CL   UNL     1       2.690   4.113  20.674  0.00  0.00    +0.000 Cl
ATOM     25  C   UNL     1       2.098   6.527  19.623  0.00  0.00    +0.000 A 
ENDBRANCH  11  19
BRANCH   1  26
ATOM     26  O   UNL     1      -1.144  12.840  17.587  0.00  0.00    +0.000 OA
ATOM     27  H   UNL     1      -0.414  13.479  17.598  0.00  0.00    +0.000 HD
ENDBRANCH   1  26
TORSDOF 3
ENDMDL
MODEL 6
REMARK VINA RESULT:      -7.5      3.321      9.457
REMARK  Name = 
REMARK  3 active torsions:
REMARK  status: ('A' for Active; 'I' for Inactive)
REMARK    1  A    between atoms: O_1  and  C_2
REMARK    2  A    between atoms: C_6  and  C_7
REMARK    3  A    between atoms: C_19  and  C_20
REMARK                            x       y       z     vdW  Elec       q    Type
REMARK                         _______ _______ _______ _____ _____    ______ ____
ROOT
ATOM      1  C   UNL     1      -0.802  12.368  18.908  0.00  0.00    +0.000 A 
ATOM      2  N   UNL     1      -0.002  11.312  18.819  0.00  0.00    +0.000 NA
ATOM      3  C   UNL     1       0.193  10.645  19.975  0.00  0.00    +0.000 A 
ATOM      4  C   UNL     1      -0.400  11.024  21.181  0.00  0.00    +0.000 A 
ATOM      5  C   UNL     1      -1.184  12.176  21.154  0.00  0.00    +0.000 A 
ATOM      6  N   UNL     1      -1.400  12.846  20.000  0.00  0.00    +0.000 NA
ATOM      7  C   UNL     1      -0.156  10.196  22.411  0.00  0.00    +0.000 C 
ATOM      8  O   UNL     1       0.405   8.916  22.123  0.00  0.00    +0.000 OA
ATOM      9  C   UNL     1       1.569   9.056  21.313  0.00  0.00    +0.000 C 
ATOM     10  C   UNL     1       1.116   9.481  19.944  0.00  0.00    +0.000 C 
ATOM     11  C   UNL     1       1.462   8.860  18.800  0.00  0.00    +0.000 C 
ENDROOT
BRANCH   5  12
ATOM     12  C   UNL     1      -1.834  12.805  22.338  0.00  0.00    +0.000 A 
ATOM     13  C   UNL     1      -1.269  13.938  22.961  0.00  0.00    +0.000 A 
ATOM     14  C   UNL     1      -1.860  14.535  24.085  0.00  0.00    +0.000 A 
ATOM     15  C   UNL     1      -3.046  14.028  24.604  0.00  0.00    +0.000 A 
ATOM     16  C   UNL     1      -3.618  12.910  24.016  0.00  0.00    +0.000 A 
ATOM     17 CL   UNL     1      -5.092  12.268  24.632  0.00  0.00    +0.000 Cl
ATOM     18  C   UNL     1      -3.003  12.290  22.926  0.00  0.00    +0.000 A 
ENDBRANCH   5  12
BRANCH  11  19
ATOM     19  C   UNL     1       2.318   7.670  18.743  0.00  0.00    +0.000 A 
ATOM     20  C   UNL     1       2.201   6.679  19.728  0.00  0.00    +0.000 A 
ATOM     21  C   UNL     1       3.015   5.545  19.689  0.00  0.00    +0.000 A 
ATOM     22  C   UNL     1       3.952   5.396  18.666  0.00  0.00    +0.000 A 
ATOM     23  C   UNL     1       4.077   6.387  17.695  0.00  0.00    +0.000 A 
ATOM     24 CL   UNL     1       5.240   6.206  16.439  0.00  0.00    +0.000 Cl
ATOM     25  C   UNL     1       3.270   7.526  17.730  0.00  0.00    +0.000 A 
ENDBRANCH  11  19
BRANCH   1  26
ATOM     26  O   UNL     1      -0.997  13.036  17.743  0.00  0.00    +0.000 OA
ATOM     27  H   UNL     1      -1.792  13.539  17.982  0.00  0.00    +0.000 HD
ENDBRANCH   1  26
TORSDOF 3
ENDMDL
MODEL 7
REMARK VINA RESULT:      -7.5      2.798      8.290
REMARK  Name = 
REMARK  3 active torsions:
REMARK  status: ('A' for Active; 'I' for Inactive)
REMARK    1  A    between atoms: O_1  and  C_2
REMARK    2  A    between atoms: C_6  and  C_7
REMARK    3  A    between atoms: C_19  and  C_20
REMARK                            x       y       z     vdW  Elec       q    Type
REMARK                         _______ _______ _______ _____ _____    ______ ____
ROOT
ATOM      1  C   UNL     1       0.691   9.782  22.280  0.00  0.00    +0.000 A 
ATOM      2  N   UNL     1       1.158   8.832  21.477  0.00  0.00    +0.000 NA
ATOM      3  C   UNL     1       1.339   9.208  20.195  0.00  0.00    +0.000 A 
ATOM      4  C   UNL     1       1.064  10.497  19.733  0.00  0.00    +0.000 A 
ATOM      5  C   UNL     1       0.535  11.391  20.663  0.00  0.00    +0.000 A 
ATOM      6  N   UNL     1       0.362  11.033  21.955  0.00  0.00    +0.000 NA
ATOM      7  C   UNL     1       1.334  10.835  18.295  0.00  0.00    +0.000 C 
ATOM      8  O   UNL     1       2.156   9.871  17.637  0.00  0.00    +0.000 OA
ATOM      9  C   UNL     1       1.617   8.564  17.804  0.00  0.00    +0.000 C 
ATOM     10  C   UNL     1       1.818   8.173  19.242  0.00  0.00    +0.000 C 
ATOM     11  C   UNL     1       2.407   7.032  19.647  0.00  0.00    +0.000 C 
ENDROOT
BRANCH   5  12
ATOM     12  C   UNL     1       0.089  12.781  20.366  0.00  0.00    +0.000 A 
ATOM     13  C   UNL     1      -1.256  13.167  20.548  0.00  0.00    +0.000 A 
ATOM     14  C   UNL     1      -1.697  14.468  20.261  0.00  0.00    +0.000 A 
ATOM     15  C   UNL     1      -0.799  15.426  19.804  0.00  0.00    +0.000 A 
ATOM     16  C   UNL     1       0.527  15.071  19.608  0.00  0.00    +0.000 A 
ATOM     17 CL   UNL     1       1.663  16.239  19.054  0.00  0.00    +0.000 Cl
ATOM     18  C   UNL     1       0.954  13.763  19.852  0.00  0.00    +0.000 A 
ENDBRANCH   5  12
BRANCH  11  19
ATOM     19  C   UNL     1       2.949   6.023  18.729  0.00  0.00    +0.000 A 
ATOM     20  C   UNL     1       4.026   6.347  17.893  0.00  0.00    +0.000 A 
ATOM     21  C   UNL     1       4.546   5.397  17.011  0.00  0.00    +0.000 A 
ATOM     22  C   UNL     1       3.990   4.119  16.958  0.00  0.00    +0.000 A 
ATOM     23  C   UNL     1       2.910   3.802  17.780  0.00  0.00    +0.000 A 
ATOM     24 CL   UNL     1       2.219   2.227  17.706  0.00  0.00    +0.000 Cl
ATOM     25  C   UNL     1       2.382   4.747  18.661  0.00  0.00    +0.000 A 
ENDBRANCH  11  19
BRANCH   1  26
ATOM     26  O   UNL     1       0.511   9.401  23.570  0.00  0.00    +0.000 OA
ATOM     27  H   UNL     1       0.441  10.276  23.983  0.00  0.00    +0.000 HD
ENDBRANCH   1  26
TORSDOF 3
ENDMDL
MODEL 8
REMARK VINA RESULT:      -7.5      2.584      8.439
REMARK  Name = 
REMARK  3 active torsions:
REMARK  status: ('A' for Active; 'I' for Inactive)
REMARK    1  A    between atoms: O_1  and  C_2
REMARK    2  A    between atoms: C_6  and  C_7
REMARK    3  A    between atoms: C_19  and  C_20
REMARK                            x       y       z     vdW  Elec       q    Type
REMARK                         _______ _______ _______ _____ _____    ______ ____
ROOT
ATOM      1  C   UNL     1       0.688   9.884  22.230  0.00  0.00    +0.000 A 
ATOM      2  N   UNL     1       1.129   8.901  21.454  0.00  0.00    +0.000 NA
ATOM      3  C   UNL     1       1.333   9.240  20.165  0.00  0.00    +0.000 A 
ATOM      4  C   UNL     1       1.108  10.527  19.672  0.00  0.00    +0.000 A 
ATOM      5  C   UNL     1       0.602  11.460  20.576  0.00  0.00    +0.000 A 
ATOM      6  N   UNL     1       0.407  11.138  21.874  0.00  0.00    +0.000 NA
ATOM      7  C   UNL     1       1.402  10.822  18.228  0.00  0.00    +0.000 C 
ATOM      8  O   UNL     1       2.195   9.816  17.601  0.00  0.00    +0.000 OA
ATOM      9  C   UNL     1       1.609   8.532  17.792  0.00  0.00    +0.000 C 
ATOM     10  C   UNL     1       1.784   8.168  19.240  0.00  0.00    +0.000 C 
ATOM     11  C   UNL     1       2.329   7.016  19.675  0.00  0.00    +0.000 C 
ENDROOT
BRANCH   5  12
ATOM     12  C   UNL     1       0.209  12.858  20.244  0.00  0.00    +0.000 A 
ATOM     13  C   UNL     1       1.069  13.697  19.504  0.00  0.00    +0.000 A 
ATOM     14  C   UNL     1       0.721  15.022  19.193  0.00  0.00    +0.000 A 
ATOM     15  C   UNL     1      -0.507  15.535  19.596  0.00  0.00    +0.000 A 
ATOM     16  C   UNL     1      -1.367  14.734  20.332  0.00  0.00    +0.000 A 
ATOM     17 CL   UNL     1      -2.897  15.341  20.834  0.00  0.00    +0.000 Cl
ATOM     18  C   UNL     1      -0.999  13.432  20.679  0.00  0.00    +0.000 A 
ENDBRANCH   5  12
BRANCH  11  19
ATOM     19  C   UNL     1       2.842   5.968  18.786  0.00  0.00    +0.000 A 
ATOM     20  C   UNL     1       2.006   4.914  18.394  0.00  0.00    +0.000 A 
ATOM     21  C   UNL     1       2.485   3.907  17.553  0.00  0.00    +0.000 A 
ATOM     22  C   UNL     1       3.805   3.947  17.103  0.00  0.00    +0.000 A 
ATOM     23  C   UNL     1       4.640   4.987  17.505  0.00  0.00    +0.000 A 
ATOM     24 CL   UNL     1       6.271   5.029  16.955  0.00  0.00    +0.000 Cl
ATOM     25  C   UNL     1       4.169   5.995  18.348  0.00  0.00    +0.000 A 
ENDBRANCH  11  19
BRANCH   1  26
ATOM     26  O   UNL     1       0.484   9.539  23.527  0.00  0.00    +0.000 OA
ATOM     27  H   UNL     1       1.287   9.016  23.678  0.00  0.00    +0.000 HD
ENDBRANCH   1  26
TORSDOF 3
ENDMDL
MODEL 9
REMARK VINA RESULT:      -7.4      3.576      9.448
REMARK  Name = 
REMARK  3 active torsions:
REMARK  status: ('A' for Active; 'I' for Inactive)
REMARK    1  A    between atoms: O_1  and  C_2
REMARK    2  A    between atoms: C_6  and  C_7
REMARK    3  A    between atoms: C_19  and  C_20
REMARK                            x       y       z     vdW  Elec       q    Type
REMARK                         _______ _______ _______ _____ _____    ______ ____
ROOT
ATOM      1  C   UNL     1      -0.951  12.106  18.649  0.00  0.00    +0.000 A 
ATOM      2  N   UNL     1      -0.110  11.080  18.598  0.00  0.00    +0.000 NA
ATOM      3  C   UNL     1       0.134  10.483  19.782  0.00  0.00    +0.000 A 
ATOM      4  C   UNL     1      -0.453  10.899  20.980  0.00  0.00    +0.000 A 
ATOM      5  C   UNL     1      -1.283  12.017  20.909  0.00  0.00    +0.000 A 
ATOM      6  N   UNL     1      -1.548  12.616  19.727  0.00  0.00    +0.000 NA
ATOM      7  C   UNL     1      -0.152  10.147  22.245  0.00  0.00    +0.000 C 
ATOM      8  O   UNL     1       0.456   8.878  22.011  0.00  0.00    +0.000 OA
ATOM      9  C   UNL     1       1.598   9.022  21.171  0.00  0.00    +0.000 C 
ATOM     10  C   UNL     1       1.103   9.357  19.792  0.00  0.00    +0.000 C 
ATOM     11  C   UNL     1       1.454   8.692  18.674  0.00  0.00    +0.000 C 
ENDROOT
BRANCH   5  12
ATOM     12  C   UNL     1      -1.938  12.679  22.072  0.00  0.00    +0.000 A 
ATOM     13  C   UNL     1      -3.271  12.380  22.422  0.00  0.00    +0.000 A 
ATOM     14  C   UNL     1      -3.909  13.004  23.507  0.00  0.00    +0.000 A 
ATOM     15  C   UNL     1      -3.221  13.929  24.284  0.00  0.00    +0.000 A 
ATOM     16  C   UNL     1      -1.912  14.248  23.956  0.00  0.00    +0.000 A 
ATOM     17 CL   UNL     1      -1.034  15.382  24.908  0.00  0.00    +0.000 Cl
ATOM     18  C   UNL     1      -1.296  13.659  22.849  0.00  0.00    +0.000 A 
ENDBRANCH   5  12
BRANCH  11  19
ATOM     19  C   UNL     1       2.356   7.535  18.662  0.00  0.00    +0.000 A 
ATOM     20  C   UNL     1       3.422   7.492  17.752  0.00  0.00    +0.000 A 
ATOM     21  C   UNL     1       4.283   6.393  17.726  0.00  0.00    +0.000 A 
ATOM     22  C   UNL     1       4.083   5.331  18.607  0.00  0.00    +0.000 A 
ATOM     23  C   UNL     1       3.015   5.368  19.501  0.00  0.00    +0.000 A 
ATOM     24 CL   UNL     1       2.764   4.051  20.582  0.00  0.00    +0.000 Cl
ATOM     25  C   UNL     1       2.147   6.461  19.531  0.00  0.00    +0.000 A 
ENDBRANCH  11  19
BRANCH   1  26
ATOM     26  O   UNL     1      -1.195  12.705  17.456  0.00  0.00    +0.000 OA
ATOM     27  H   UNL     1      -0.356  13.180  17.344  0.00  0.00    +0.000 HD
ENDBRANCH   1  26
TORSDOF 3
ENDMDL
