MODEL 1
REMARK VINA RESULT:      -7.4      0.000      0.000
REMARK  Name = 
REMARK  2 active torsions:
REMARK  status: ('A' for Active; 'I' for Inactive)
REMARK    1  A    between atoms: C_7  and  O_8
REMARK    2  A    between atoms: C_17  and  O_18
REMARK                            x       y       z     vdW  Elec       q    Type
REMARK                         _______ _______ _______ _____ _____    ______ ____
ROOT
ATOM      1  O   UNL     1       4.296   7.039  17.173  0.00  0.00    +0.000 OA
ATOM      2  C   UNL     1       3.273   6.570  17.706  0.00  0.00    +0.000 C 
ATOM      3  C   UNL     1       2.102   7.578  17.979  0.00  0.00    +0.000 C 
ATOM      4  C   UNL     1       1.786   8.499  19.222  0.00  0.00    +0.000 A 
ATOM      5  C   UNL     1       1.372   9.840  18.934  0.00  0.00    +0.000 A 
ATOM      6  C   UNL     1       0.776  10.685  19.904  0.00  0.00    +0.000 A 
ATOM      7  C   UNL     1       0.593  10.252  21.207  0.00  0.00    +0.000 A 
ATOM      8  C   UNL     1       0.990   8.963  21.541  0.00  0.00    +0.000 A 
ATOM      9  C   UNL     1       1.545   8.140  20.567  0.00  0.00    +0.000 A 
ATOM     10  C   UNL     1       1.562   6.771  21.019  0.00  0.00    +0.000 C 
ATOM     11  N   UNL     1       2.499   6.003  20.622  0.00  0.00    +0.000 NA
ATOM     12  C   UNL     1       2.013   4.751  20.416  0.00  0.00    +0.000 C 
ATOM     13  C   UNL     1       1.311   4.629  19.263  0.00  0.00    +0.000 C 
ATOM     14  C   UNL     1       2.250   4.135  18.267  0.00  0.00    +0.000 A 
ATOM     15  C   UNL     1       2.384   2.723  18.313  0.00  0.00    +0.000 A 
ATOM     16  C   UNL     1       3.572   2.141  17.933  0.00  0.00    +0.000 A 
ATOM     17  C   UNL     1       4.579   2.927  17.396  0.00  0.00    +0.000 A 
ATOM     18  C   UNL     1       4.396   4.328  17.255  0.00  0.00    +0.000 A 
ATOM     19  C   UNL     1       3.238   4.999  17.720  0.00  0.00    +0.000 A 
ENDROOT
BRANCH   7  20
ATOM     20  O   UNL     1      -0.028  10.966  22.173  0.00  0.00    +0.000 OA
ATOM     21  H   UNL     1      -0.768  11.452  21.793  0.00  0.00    +0.000 HD
ENDBRANCH   7  20
BRANCH  16  22
ATOM     22  O   UNL     1       3.809   0.820  18.190  0.00  0.00    +0.000 OA
ATOM     23  H   UNL     1       4.740   0.629  18.010  0.00  0.00    +0.000 HD
ENDBRANCH  16  22
TORSDOF 2
ENDMDL
MODEL 2
REMARK VINA RESULT:      -6.9      1.778      6.405
REMARK  Name = 
REMARK  2 active torsions:
REMARK  status: ('A' for Active; 'I' for Inactive)
REMARK    1  A    between atoms: C_7  and  O_8
REMARK    2  A    between atoms: C_17  and  O_18
REMARK                            x       y       z     vdW  Elec       q    Type
REMARK                         _______ _______ _______ _____ _____    ______ ____
ROOT
ATOM      1  O   UNL     1       2.016   9.252  17.153  0.00  0.00    +0.000 OA
ATOM      2  C   UNL     1       2.444   8.476  18.028  0.00  0.00    +0.000 C 
ATOM      3  C   UNL     1       3.820   7.781  17.734  0.00  0.00    +0.000 C 
ATOM      4  C   UNL     1       4.170   6.429  16.997  0.00  0.00    +0.000 A 
ATOM      5  C   UNL     1       5.272   6.469  16.083  0.00  0.00    +0.000 A 
ATOM      6  C   UNL     1       5.892   5.297  15.578  0.00  0.00    +0.000 A 
ATOM      7  C   UNL     1       5.429   4.040  15.929  0.00  0.00    +0.000 A 
ATOM      8  C   UNL     1       4.354   3.949  16.804  0.00  0.00    +0.000 A 
ATOM      9  C   UNL     1       3.779   5.109  17.312  0.00  0.00    +0.000 A 
ATOM     10  C   UNL     1       2.935   4.797  18.437  0.00  0.00    +0.000 C 
ATOM     11  N   UNL     1       1.907   5.520  18.655  0.00  0.00    +0.000 NA
ATOM     12  C   UNL     1       1.724   5.672  19.992  0.00  0.00    +0.000 C 
ATOM     13  C   UNL     1       2.575   6.567  20.553  0.00  0.00    +0.000 C 
ATOM     14  C   UNL     1       1.864   7.836  20.586  0.00  0.00    +0.000 A 
ATOM     15  C   UNL     1       1.025   7.949  21.724  0.00  0.00    +0.000 A 
ATOM     16  C   UNL     1      -0.116   8.715  21.654  0.00  0.00    +0.000 A 
ATOM     17  C   UNL     1      -0.368   9.464  20.515  0.00  0.00    +0.000 A 
ATOM     18  C   UNL     1       0.533   9.428  19.419  0.00  0.00    +0.000 A 
ATOM     19  C   UNL     1       1.670   8.582  19.391  0.00  0.00    +0.000 A 
ENDROOT
BRANCH   7  20
ATOM     20  O   UNL     1       6.004   2.877  15.548  0.00  0.00    +0.000 OA
ATOM     21  H   UNL     1       6.588   3.033  14.799  0.00  0.00    +0.000 HD
ENDBRANCH   7  20
BRANCH  16  22
ATOM     22  O   UNL     1      -1.056   8.652  22.643  0.00  0.00    +0.000 OA
ATOM     23  H   UNL     1      -1.885   9.024  22.312  0.00  0.00    +0.000 HD
ENDBRANCH  16  22
TORSDOF 2
ENDMDL
MODEL 3
REMARK VINA RESULT:      -6.9      2.005      7.372
REMARK  Name = 
REMARK  2 active torsions:
REMARK  status: ('A' for Active; 'I' for Inactive)
REMARK    1  A    between atoms: C_7  and  O_8
REMARK    2  A    between atoms: C_17  and  O_18
REMARK                            x       y       z     vdW  Elec       q    Type
REMARK                         _______ _______ _______ _____ _____    ______ ____
ROOT
ATOM      1  O   UNL     1       1.458   9.575  22.388  0.00  0.00    +0.000 OA
ATOM      2  C   UNL     1       1.008   9.315  21.256  0.00  0.00    +0.000 C 
ATOM      3  C   UNL     1       0.922   7.797  20.869  0.00  0.00    +0.000 C 
ATOM      4  C   UNL     1       1.969   6.833  20.184  0.00  0.00    +0.000 A 
ATOM      5  C   UNL     1       2.096   5.524  20.751  0.00  0.00    +0.000 A 
ATOM      6  C   UNL     1       2.758   4.460  20.086  0.00  0.00    +0.000 A 
ATOM      7  C   UNL     1       3.349   4.655  18.848  0.00  0.00    +0.000 A 
ATOM      8  C   UNL     1       3.263   5.911  18.261  0.00  0.00    +0.000 A 
ATOM      9  C   UNL     1       2.583   6.932  18.917  0.00  0.00    +0.000 A 
ATOM     10  C   UNL     1       2.318   8.019  18.008  0.00  0.00    +0.000 C 
ATOM     11  N   UNL     1       2.281   9.210  18.465  0.00  0.00    +0.000 NA
ATOM     12  C   UNL     1       1.319   9.921  17.825  0.00  0.00    +0.000 C 
ATOM     13  C   UNL     1       0.064   9.631  18.248  0.00  0.00    +0.000 C 
ATOM     14  C   UNL     1      -0.261  10.622  19.263  0.00  0.00    +0.000 A 
ATOM     15  C   UNL     1      -0.751  11.827  18.696  0.00  0.00    +0.000 A 
ATOM     16  C   UNL     1      -0.545  13.019  19.353  0.00  0.00    +0.000 A 
ATOM     17  C   UNL     1       0.027  13.016  20.615  0.00  0.00    +0.000 A 
ATOM     18  C   UNL     1       0.419  11.794  21.221  0.00  0.00    +0.000 A 
ATOM     19  C   UNL     1       0.327  10.546  20.555  0.00  0.00    +0.000 A 
ENDROOT
BRANCH   7  20
ATOM     20  O   UNL     1       3.937   3.681  18.117  0.00  0.00    +0.000 OA
ATOM     21  H   UNL     1       4.894   3.775  18.161  0.00  0.00    +0.000 HD
ENDBRANCH   7  20
BRANCH  16  22
ATOM     22  O   UNL     1      -0.792  14.207  18.724  0.00  0.00    +0.000 OA
ATOM     23  H   UNL     1       0.017  14.738  18.731  0.00  0.00    +0.000 HD
ENDBRANCH  16  22
TORSDOF 2
ENDMDL
MODEL 4
REMARK VINA RESULT:      -6.9      2.042      3.009
REMARK  Name = 
REMARK  2 active torsions:
REMARK  status: ('A' for Active; 'I' for Inactive)
REMARK    1  A    between atoms: C_7  and  O_8
REMARK    2  A    between atoms: C_17  and  O_18
REMARK                            x       y       z     vdW  Elec       q    Type
REMARK                         _______ _______ _______ _____ _____    ______ ____
ROOT
ATOM      1  O   UNL     1       0.207   5.006  20.692  0.00  0.00    +0.000 OA
ATOM      2  C   UNL     1       1.348   5.377  20.355  0.00  0.00    +0.000 C 
ATOM      3  C   UNL     1       1.708   6.878  20.640  0.00  0.00    +0.000 C 
ATOM      4  C   UNL     1       1.512   8.181  19.771  0.00  0.00    +0.000 A 
ATOM      5  C   UNL     1       1.024   9.339  20.459  0.00  0.00    +0.000 A 
ATOM      6  C   UNL     1       1.077  10.642  19.902  0.00  0.00    +0.000 A 
ATOM      7  C   UNL     1       1.584  10.851  18.630  0.00  0.00    +0.000 A 
ATOM      8  C   UNL     1       2.059   9.758  17.916  0.00  0.00    +0.000 A 
ATOM      9  C   UNL     1       2.026   8.492  18.493  0.00  0.00    +0.000 A 
ATOM     10  C   UNL     1       2.862   7.583  17.750  0.00  0.00    +0.000 C 
ATOM     11  N   UNL     1       2.537   6.350  17.698  0.00  0.00    +0.000 NA
ATOM     12  C   UNL     1       3.652   5.577  17.731  0.00  0.00    +0.000 C 
ATOM     13  C   UNL     1       4.195   5.468  18.968  0.00  0.00    +0.000 C 
ATOM     14  C   UNL     1       3.658   4.242  19.540  0.00  0.00    +0.000 A 
ATOM     15  C   UNL     1       4.393   3.097  19.137  0.00  0.00    +0.000 A 
ATOM     16  C   UNL     1       3.758   1.880  19.045  0.00  0.00    +0.000 A 
ATOM     17  C   UNL     1       2.442   1.761  19.463  0.00  0.00    +0.000 A 
ATOM     18  C   UNL     1       1.745   2.891  19.966  0.00  0.00    +0.000 A 
ATOM     19  C   UNL     1       2.310   4.190  19.990  0.00  0.00    +0.000 A 
ENDROOT
BRANCH   7  20
ATOM     20  O   UNL     1       1.733  12.065  18.053  0.00  0.00    +0.000 OA
ATOM     21  H   UNL     1       2.242  12.641  18.635  0.00  0.00    +0.000 HD
ENDBRANCH   7  20
BRANCH  16  22
ATOM     22  O   UNL     1       4.373   0.822  18.438  0.00  0.00    +0.000 OA
ATOM     23  H   UNL     1       3.796   0.048  18.498  0.00  0.00    +0.000 HD
ENDBRANCH  16  22
TORSDOF 2
ENDMDL
MODEL 5
REMARK VINA RESULT:      -6.9      2.418      7.987
REMARK  Name = 
REMARK  2 active torsions:
REMARK  status: ('A' for Active; 'I' for Inactive)
REMARK    1  A    between atoms: C_7  and  O_8
REMARK    2  A    between atoms: C_17  and  O_18
REMARK                            x       y       z     vdW  Elec       q    Type
REMARK                         _______ _______ _______ _____ _____    ______ ____
ROOT
ATOM      1  O   UNL     1       0.719  10.022  23.023  0.00  0.00    +0.000 OA
ATOM      2  C   UNL     1       0.228   9.902  21.885  0.00  0.00    +0.000 C 
ATOM      3  C   UNL     1       0.354   8.488  21.214  0.00  0.00    +0.000 C 
ATOM      4  C   UNL     1       1.484   7.861  20.307  0.00  0.00    +0.000 A 
ATOM      5  C   UNL     1       1.862   6.512  20.602  0.00  0.00    +0.000 A 
ATOM      6  C   UNL     1       2.631   5.718  19.711  0.00  0.00    +0.000 A 
ATOM      7  C   UNL     1       3.083   6.235  18.509  0.00  0.00    +0.000 A 
ATOM      8  C   UNL     1       2.753   7.544  18.182  0.00  0.00    +0.000 A 
ATOM      9  C   UNL     1       1.973   8.296  19.055  0.00  0.00    +0.000 A 
ATOM     10  C   UNL     1       1.467   9.469  18.389  0.00  0.00    +0.000 C 
ATOM     11  N   UNL     1       1.278  10.531  19.070  0.00  0.00    +0.000 NA
ATOM     12  C   UNL     1       0.167  11.173  18.626  0.00  0.00    +0.000 C 
ATOM     13  C   UNL     1      -0.988  10.599  19.044  0.00  0.00    +0.000 C 
ATOM     14  C   UNL     1      -1.386  11.316  20.246  0.00  0.00    +0.000 A 
ATOM     15  C   UNL     1      -2.105  12.502  19.948  0.00  0.00    +0.000 A 
ATOM     16  C   UNL     1      -2.041  13.571  20.813  0.00  0.00    +0.000 A 
ATOM     17  C   UNL     1      -1.377  13.434  22.023  0.00  0.00    +0.000 A 
ATOM     18  C   UNL     1      -0.750  12.206  22.360  0.00  0.00    +0.000 A 
ATOM     19  C   UNL     1      -0.693  11.105  21.469  0.00  0.00    +0.000 A 
ENDROOT
BRANCH   7  20
ATOM     20  O   UNL     1       3.760   5.527  17.576  0.00  0.00    +0.000 OA
ATOM     21  H   UNL     1       3.942   6.086  16.813  0.00  0.00    +0.000 HD
ENDBRANCH   7  20
BRANCH  16  22
ATOM     22  O   UNL     1      -2.522  14.794  20.440  0.00  0.00    +0.000 OA
ATOM     23  H   UNL     1      -1.780  15.353  20.170  0.00  0.00    +0.000 HD
ENDBRANCH  16  22
TORSDOF 2
ENDMDL
MODEL 6
REMARK VINA RESULT:      -6.7      9.172     10.639
REMARK  Name = 
REMARK  2 active torsions:
REMARK  status: ('A' for Active; 'I' for Inactive)
REMARK    1  A    between atoms: C_7  and  O_8
REMARK    2  A    between atoms: C_17  and  O_18
REMARK                            x       y       z     vdW  Elec       q    Type
REMARK                         _______ _______ _______ _____ _____    ______ ____
ROOT
ATOM      1  O   UNL     1       9.561  10.691  19.860  0.00  0.00    +0.000 OA
ATOM      2  C   UNL     1       9.625  11.853  20.303  0.00  0.00    +0.000 C 
ATOM      3  C   UNL     1       9.372  12.030  21.842  0.00  0.00    +0.000 C 
ATOM      4  C   UNL     1       8.043  12.267  22.662  0.00  0.00    +0.000 A 
ATOM      5  C   UNL     1       7.893  11.506  23.866  0.00  0.00    +0.000 A 
ATOM      6  C   UNL     1       6.920  11.814  24.852  0.00  0.00    +0.000 A 
ATOM      7  C   UNL     1       6.035  12.864  24.672  0.00  0.00    +0.000 A 
ATOM      8  C   UNL     1       6.131  13.624  23.514  0.00  0.00    +0.000 A 
ATOM      9  C   UNL     1       7.113  13.325  22.574  0.00  0.00    +0.000 A 
ATOM     10  C   UNL     1       7.263  14.416  21.645  0.00  0.00    +0.000 C 
ATOM     11  N   UNL     1       7.603  14.159  20.443  0.00  0.00    +0.000 NA
ATOM     12  C   UNL     1       8.435  15.127  19.981  0.00  0.00    +0.000 C 
ATOM     13  C   UNL     1       9.702  15.017  20.451  0.00  0.00    +0.000 C 
ATOM     14  C   UNL     1      10.446  14.277  19.442  0.00  0.00    +0.000 A 
ATOM     15  C   UNL     1      10.924  15.119  18.406  0.00  0.00    +0.000 A 
ATOM     16  C   UNL     1      11.093  14.608  17.139  0.00  0.00    +0.000 A 
ATOM     17  C   UNL     1      10.912  13.251  16.919  0.00  0.00    +0.000 A 
ATOM     18  C   UNL     1      10.536  12.396  17.987  0.00  0.00    +0.000 A 
ATOM     19  C   UNL     1      10.248  12.878  19.289  0.00  0.00    +0.000 A 
ENDROOT
BRANCH   7  20
ATOM     20  O   UNL     1       5.125  13.265  25.590  0.00  0.00    +0.000 OA
ATOM     21  H   UNL     1       5.447  13.064  26.475  0.00  0.00    +0.000 HD
ENDBRANCH   7  20
BRANCH  16  22
ATOM     22  O   UNL     1      11.320  15.441  16.081  0.00  0.00    +0.000 OA
ATOM     23  H   UNL     1      11.329  14.918  15.267  0.00  0.00    +0.000 HD
ENDBRANCH  16  22
TORSDOF 2
ENDMDL
MODEL 7
REMARK VINA RESULT:      -6.6      1.802      2.860
REMARK  Name = 
REMARK  2 active torsions:
REMARK  status: ('A' for Active; 'I' for Inactive)
REMARK    1  A    between atoms: C_7  and  O_8
REMARK    2  A    between atoms: C_17  and  O_18
REMARK                            x       y       z     vdW  Elec       q    Type
REMARK                         _______ _______ _______ _____ _____    ______ ____
ROOT
ATOM      1  O   UNL     1       1.101   4.628  20.226  0.00  0.00    +0.000 OA
ATOM      2  C   UNL     1       1.974   5.468  19.937  0.00  0.00    +0.000 C 
ATOM      3  C   UNL     1       1.952   6.807  20.757  0.00  0.00    +0.000 C 
ATOM      4  C   UNL     1       1.193   8.170  20.510  0.00  0.00    +0.000 A 
ATOM      5  C   UNL     1       0.578   8.773  21.654  0.00  0.00    +0.000 A 
ATOM      6  C   UNL     1       0.125  10.117  21.663  0.00  0.00    +0.000 A 
ATOM      7  C   UNL     1       0.230  10.910  20.532  0.00  0.00    +0.000 A 
ATOM      8  C   UNL     1       0.808  10.367  19.392  0.00  0.00    +0.000 A 
ATOM      9  C   UNL     1       1.275   9.056  19.414  0.00  0.00    +0.000 A 
ATOM     10  C   UNL     1       2.128   8.811  18.279  0.00  0.00    +0.000 C 
ATOM     11  N   UNL     1       2.163   7.639  17.775  0.00  0.00    +0.000 NA
ATOM     12  C   UNL     1       3.425   7.348  17.369  0.00  0.00    +0.000 C 
ATOM     13  C   UNL     1       4.257   7.025  18.388  0.00  0.00    +0.000 C 
ATOM     14  C   UNL     1       4.243   5.572  18.478  0.00  0.00    +0.000 A 
ATOM     15  C   UNL     1       5.152   4.971  17.571  0.00  0.00    +0.000 A 
ATOM     16  C   UNL     1       4.885   3.716  17.072  0.00  0.00    +0.000 A 
ATOM     17  C   UNL     1       3.797   3.005  17.555  0.00  0.00    +0.000 A 
ATOM     18  C   UNL     1       2.952   3.574  18.543  0.00  0.00    +0.000 A 
ATOM     19  C   UNL     1       3.115   4.898  19.021  0.00  0.00    +0.000 A 
ENDROOT
BRANCH   7  20
ATOM     20  O   UNL     1      -0.113  12.217  20.477  0.00  0.00    +0.000 OA
ATOM     21  H   UNL     1       0.360  12.647  19.757  0.00  0.00    +0.000 HD
ENDBRANCH   7  20
BRANCH  16  22
ATOM     22  O   UNL     1       5.609   3.217  16.027  0.00  0.00    +0.000 OA
ATOM     23  H   UNL     1       5.315   2.313  15.846  0.00  0.00    +0.000 HD
ENDBRANCH  16  22
TORSDOF 2
ENDMDL
MODEL 8
REMARK VINA RESULT:      -6.5      2.411      7.424
REMARK  Name = 
REMARK  2 active torsions:
REMARK  status: ('A' for Active; 'I' for Inactive)
REMARK    1  A    between atoms: C_7  and  O_8
REMARK    2  A    between atoms: C_17  and  O_18
REMARK                            x       y       z     vdW  Elec       q    Type
REMARK                         _______ _______ _______ _____ _____    ______ ____
ROOT
ATOM      1  O   UNL     1      -0.772  10.090  17.440  0.00  0.00    +0.000 OA
ATOM      2  C   UNL     1      -0.042  10.201  18.443  0.00  0.00    +0.000 C 
ATOM      3  C   UNL     1       1.410   9.620  18.319  0.00  0.00    +0.000 C 
ATOM      4  C   UNL     1       1.987   8.178  18.610  0.00  0.00    +0.000 A 
ATOM      5  C   UNL     1       2.903   7.651  17.644  0.00  0.00    +0.000 A 
ATOM      6  C   UNL     1       3.724   6.522  17.901  0.00  0.00    +0.000 A 
ATOM      7  C   UNL     1       3.649   5.851  19.110  0.00  0.00    +0.000 A 
ATOM      8  C   UNL     1       2.767   6.316  20.076  0.00  0.00    +0.000 A 
ATOM      9  C   UNL     1       1.993   7.442  19.816  0.00  0.00    +0.000 A 
ATOM     10  C   UNL     1       1.422   7.949  21.038  0.00  0.00    +0.000 C 
ATOM     11  N   UNL     1       0.284   8.526  20.994  0.00  0.00    +0.000 NA
ATOM     12  C   UNL     1       0.259   9.563  21.870  0.00  0.00    +0.000 C 
ATOM     13  C   UNL     1       0.923  10.658  21.426  0.00  0.00    +0.000 C 
ATOM     14  C   UNL     1      -0.076  11.514  20.802  0.00  0.00    +0.000 A 
ATOM     15  C   UNL     1      -0.748  12.329  21.749  0.00  0.00    +0.000 A 
ATOM     16  C   UNL     1      -2.045  12.721  21.508  0.00  0.00    +0.000 A 
ATOM     17  C   UNL     1      -2.636  12.420  20.291  0.00  0.00    +0.000 A 
ATOM     18  C   UNL     1      -1.918  11.694  19.306  0.00  0.00    +0.000 A 
ATOM     19  C   UNL     1      -0.618  11.175  19.533  0.00  0.00    +0.000 A 
ENDROOT
BRANCH   7  20
ATOM     20  O   UNL     1       4.442   4.812  19.460  0.00  0.00    +0.000 OA
ATOM     21  H   UNL     1       4.237   4.047  18.912  0.00  0.00    +0.000 HD
ENDBRANCH   7  20
BRANCH  16  22
ATOM     22  O   UNL     1      -2.789  13.299  22.497  0.00  0.00    +0.000 OA
ATOM     23  H   UNL     1      -2.333  13.178  23.342  0.00  0.00    +0.000 HD
ENDBRANCH  16  22
TORSDOF 2
ENDMDL
MODEL 9
REMARK VINA RESULT:      -6.4      2.528      4.191
REMARK  Name = 
REMARK  2 active torsions:
REMARK  status: ('A' for Active; 'I' for Inactive)
REMARK    1  A    between atoms: C_7  and  O_8
REMARK    2  A    between atoms: C_17  and  O_18
REMARK                            x       y       z     vdW  Elec       q    Type
REMARK                         _______ _______ _______ _____ _____    ______ ____
ROOT
ATOM      1  O   UNL     1       3.126   3.235  16.865  0.00  0.00    +0.000 OA
ATOM      2  C   UNL     1       3.854   4.152  17.290  0.00  0.00    +0.000 C 
ATOM      3  C   UNL     1       3.558   4.663  18.744  0.00  0.00    +0.000 C 
ATOM      4  C   UNL     1       2.589   5.790  19.277  0.00  0.00    +0.000 A 
ATOM      5  C   UNL     1       1.819   5.469  20.442  0.00  0.00    +0.000 A 
ATOM      6  C   UNL     1       1.140   6.452  21.207  0.00  0.00    +0.000 A 
ATOM      7  C   UNL     1       1.167   7.786  20.835  0.00  0.00    +0.000 A 
ATOM      8  C   UNL     1       1.890   8.146  19.705  0.00  0.00    +0.000 A 
ATOM      9  C   UNL     1       2.574   7.172  18.986  0.00  0.00    +0.000 A 
ATOM     10  C   UNL     1       3.517   7.785  18.085  0.00  0.00    +0.000 C 
ATOM     11  N   UNL     1       3.780   7.205  16.980  0.00  0.00    +0.000 NA
ATOM     12  C   UNL     1       5.093   7.366  16.675  0.00  0.00    +0.000 C 
ATOM     13  C   UNL     1       5.914   6.558  17.391  0.00  0.00    +0.000 C 
ATOM     14  C   UNL     1       6.146   5.382  16.565  0.00  0.00    +0.000 A 
ATOM     15  C   UNL     1       7.192   5.585  15.629  0.00  0.00    +0.000 A 
ATOM     16  C   UNL     1       7.173   4.907  14.431  0.00  0.00    +0.000 A 
ATOM     17  C   UNL     1       6.200   3.946  14.204  0.00  0.00    +0.000 A 
ATOM     18  C   UNL     1       5.218   3.674  15.192  0.00  0.00    +0.000 A 
ATOM     19  C   UNL     1       5.124   4.408  16.401  0.00  0.00    +0.000 A 
ENDROOT
BRANCH   7  20
ATOM     20  O   UNL     1       0.606   8.791  21.545  0.00  0.00    +0.000 OA
ATOM     21  H   UNL     1       1.276   9.446  21.767  0.00  0.00    +0.000 HD
ENDBRANCH   7  20
BRANCH  16  22
ATOM     22  O   UNL     1       8.027   5.256  13.423  0.00  0.00    +0.000 OA
ATOM     23  H   UNL     1       8.897   5.446  13.802  0.00  0.00    +0.000 HD
ENDBRANCH  16  22
TORSDOF 2
ENDMDL
