MODEL 1
REMARK VINA RESULT:      -6.7      0.000      0.000
REMARK  Name = 
REMARK  7 active torsions:
REMARK  status: ('A' for Active; 'I' for Inactive)
REMARK    1  A    between atoms: C_4  and  O_5
REMARK    2  A    between atoms: C_6  and  N_7
REMARK    3  A    between atoms: C_9  and  N_10
REMARK    4  A    between atoms: N_10  and  C_11
REMARK    5  A    between atoms: C_11  and  C_12
REMARK    6  A    between atoms: C_14  and  C_15
REMARK    7  A    between atoms: C_15  and  O_16
REMARK                            x       y       z     vdW  Elec       q    Type
REMARK                         _______ _______ _______ _____ _____    ______ ____
ROOT
ATOM      1  N   UNL     1       6.447   5.172  14.120  0.00  0.00    +0.000 N 
ATOM      2  C   UNL     1       6.448   5.164  15.495  0.00  0.00    +0.000 A 
ATOM      3  N   UNL     1       7.492   4.603  16.100  0.00  0.00    +0.000 NA
ATOM      4  C   UNL     1       7.440   4.596  17.442  0.00  0.00    +0.000 A 
ATOM      5  C   UNL     1       6.429   5.132  18.220  0.00  0.00    +0.000 A 
ATOM      6  C   UNL     1       5.396   5.722  17.478  0.00  0.00    +0.000 A 
ATOM      7  N   UNL     1       5.415   5.735  16.122  0.00  0.00    +0.000 NA
ATOM      8  H   UNL     1       7.380   5.081  13.748  0.00  0.00    +0.000 HD
ATOM      9  H   UNL     1       5.864   5.914  13.757  0.00  0.00    +0.000 HD
ENDROOT
BRANCH   4  10
ATOM     10  O   UNL     1       8.529   3.986  17.992  0.00  0.00    +0.000 OA
ATOM     11  H   UNL     1       9.016   4.753  18.345  0.00  0.00    +0.000 HD
ENDBRANCH   4  10
BRANCH   5  12
ATOM     12  N   UNL     1       6.466   5.031  19.600  0.00  0.00    +0.000 NA
ATOM     13  O   UNL     1       7.486   5.522  20.102  0.00  0.00    +0.000 OA
ENDBRANCH   5  12
BRANCH   6  14
ATOM     14  N   UNL     1       4.257   6.236  18.136  0.00  0.00    +0.000 N 
ATOM     15  H   UNL     1       4.235   7.250  18.030  0.00  0.00    +0.000 HD
BRANCH  14  16
ATOM     16  C   UNL     1       2.981   5.619  17.820  0.00  0.00    +0.000 C 
BRANCH  16  17
ATOM     17  C   UNL     1       2.694   4.598  18.882  0.00  0.00    +0.000 C 
ATOM     18  C   UNL     1       1.628   3.542  18.692  0.00  0.00    +0.000 C 
ATOM     19  C   UNL     1       3.085   3.146  18.694  0.00  0.00    +0.000 C 
BRANCH  19  20
ATOM     20  C   UNL     1       3.682   2.379  19.827  0.00  0.00    +0.000 C 
BRANCH  20  21
ATOM     21  O   UNL     1       5.089   2.315  19.659  0.00  0.00    +0.000 OA
ATOM     22  H   UNL     1       5.455   1.964  20.490  0.00  0.00    +0.000 HD
ENDBRANCH  20  21
ENDBRANCH  19  20
ENDBRANCH  16  17
ENDBRANCH  14  16
ENDBRANCH   6  14
TORSDOF 7
ENDMDL
MODEL 2
REMARK VINA RESULT:      -6.6      2.465      3.712
REMARK  Name = 
REMARK  7 active torsions:
REMARK  status: ('A' for Active; 'I' for Inactive)
REMARK    1  A    between atoms: C_4  and  O_5
REMARK    2  A    between atoms: C_6  and  N_7
REMARK    3  A    between atoms: C_9  and  N_10
REMARK    4  A    between atoms: N_10  and  C_11
REMARK    5  A    between atoms: C_11  and  C_12
REMARK    6  A    between atoms: C_14  and  C_15
REMARK    7  A    between atoms: C_15  and  O_16
REMARK                            x       y       z     vdW  Elec       q    Type
REMARK                         _______ _______ _______ _____ _____    ______ ____
ROOT
ATOM      1  N   UNL     1       8.325   5.308  20.514  0.00  0.00    +0.000 N 
ATOM      2  C   UNL     1       7.721   5.524  19.298  0.00  0.00    +0.000 A 
ATOM      3  N   UNL     1       7.962   6.687  18.697  0.00  0.00    +0.000 NA
ATOM      4  C   UNL     1       7.333   6.866  17.524  0.00  0.00    +0.000 A 
ATOM      5  C   UNL     1       6.500   5.954  16.900  0.00  0.00    +0.000 A 
ATOM      6  C   UNL     1       6.342   4.755  17.609  0.00  0.00    +0.000 A 
ATOM      7  N   UNL     1       6.955   4.548  18.801  0.00  0.00    +0.000 NA
ATOM      8  H   UNL     1       9.142   5.887  20.630  0.00  0.00    +0.000 HD
ATOM      9  H   UNL     1       8.414   4.320  20.710  0.00  0.00    +0.000 HD
ENDROOT
BRANCH   4  10
ATOM     10  O   UNL     1       7.607   8.085  16.979  0.00  0.00    +0.000 OA
ATOM     11  H   UNL     1       7.072   8.670  17.546  0.00  0.00    +0.000 HD
ENDBRANCH   4  10
BRANCH   5  12
ATOM     12  N   UNL     1       5.874   6.266  15.705  0.00  0.00    +0.000 NA
ATOM     13  O   UNL     1       6.457   5.810  14.712  0.00  0.00    +0.000 OA
ENDBRANCH   5  12
BRANCH   6  14
ATOM     14  N   UNL     1       5.454   3.764  17.134  0.00  0.00    +0.000 N 
ATOM     15  H   UNL     1       5.977   2.913  16.929  0.00  0.00    +0.000 HD
BRANCH  14  16
ATOM     16  C   UNL     1       4.268   3.507  17.931  0.00  0.00    +0.000 C 
BRANCH  16  17
ATOM     17  C   UNL     1       3.360   4.694  17.790  0.00  0.00    +0.000 C 
ATOM     18  C   UNL     1       1.860   4.559  17.924  0.00  0.00    +0.000 C 
ATOM     19  C   UNL     1       2.646   5.277  18.993  0.00  0.00    +0.000 C 
BRANCH  19  20
ATOM     20  C   UNL     1       2.555   6.758  19.163  0.00  0.00    +0.000 C 
BRANCH  20  21
ATOM     21  O   UNL     1       2.059   7.050  20.459  0.00  0.00    +0.000 OA
ATOM     22  H   UNL     1       1.532   7.864  20.381  0.00  0.00    +0.000 HD
ENDBRANCH  20  21
ENDBRANCH  19  20
ENDBRANCH  16  17
ENDBRANCH  14  16
ENDBRANCH   6  14
TORSDOF 7
ENDMDL
MODEL 3
REMARK VINA RESULT:      -6.5      2.420      3.499
REMARK  Name = 
REMARK  7 active torsions:
REMARK  status: ('A' for Active; 'I' for Inactive)
REMARK    1  A    between atoms: C_4  and  O_5
REMARK    2  A    between atoms: C_6  and  N_7
REMARK    3  A    between atoms: C_9  and  N_10
REMARK    4  A    between atoms: N_10  and  C_11
REMARK    5  A    between atoms: C_11  and  C_12
REMARK    6  A    between atoms: C_14  and  C_15
REMARK    7  A    between atoms: C_15  and  O_16
REMARK                            x       y       z     vdW  Elec       q    Type
REMARK                         _______ _______ _______ _____ _____    ______ ____
ROOT
ATOM      1  N   UNL     1       8.230   5.371  20.534  0.00  0.00    +0.000 N 
ATOM      2  C   UNL     1       7.687   5.529  19.281  0.00  0.00    +0.000 A 
ATOM      3  N   UNL     1       7.982   6.650  18.627  0.00  0.00    +0.000 NA
ATOM      4  C   UNL     1       7.411   6.774  17.417  0.00  0.00    +0.000 A 
ATOM      5  C   UNL     1       6.587   5.844  16.807  0.00  0.00    +0.000 A 
ATOM      6  C   UNL     1       6.370   4.691  17.575  0.00  0.00    +0.000 A 
ATOM      7  N   UNL     1       6.923   4.542  18.804  0.00  0.00    +0.000 NA
ATOM      8  H   UNL     1       9.054   5.939  20.656  0.00  0.00    +0.000 HD
ATOM      9  H   UNL     1       8.288   4.394  20.789  0.00  0.00    +0.000 HD
ENDROOT
BRANCH   4  10
ATOM     10  O   UNL     1       7.737   7.954  16.818  0.00  0.00    +0.000 OA
ATOM     11  H   UNL     1       7.630   8.578  17.559  0.00  0.00    +0.000 HD
ENDBRANCH   4  10
BRANCH   5  12
ATOM     12  N   UNL     1       6.023   6.099  15.569  0.00  0.00    +0.000 NA
ATOM     13  O   UNL     1       5.123   6.949  15.606  0.00  0.00    +0.000 OA
ENDBRANCH   5  12
BRANCH   6  14
ATOM     14  N   UNL     1       5.483   3.692  17.116  0.00  0.00    +0.000 N 
ATOM     15  H   UNL     1       5.765   2.790  17.498  0.00  0.00    +0.000 HD
BRANCH  14  16
ATOM     16  C   UNL     1       4.063   3.946  17.284  0.00  0.00    +0.000 C 
BRANCH  16  17
ATOM     17  C   UNL     1       3.479   2.781  18.031  0.00  0.00    +0.000 C 
ATOM     18  C   UNL     1       4.054   2.327  19.354  0.00  0.00    +0.000 C 
ATOM     19  C   UNL     1       2.697   2.989  19.312  0.00  0.00    +0.000 C 
BRANCH  19  20
ATOM     20  C   UNL     1       1.445   2.214  19.558  0.00  0.00    +0.000 C 
BRANCH  20  21
ATOM     21  O   UNL     1       0.457   3.079  20.093  0.00  0.00    +0.000 OA
ATOM     22  H   UNL     1      -0.373   2.573  20.121  0.00  0.00    +0.000 HD
ENDBRANCH  20  21
ENDBRANCH  19  20
ENDBRANCH  16  17
ENDBRANCH  14  16
ENDBRANCH   6  14
TORSDOF 7
ENDMDL
MODEL 4
REMARK VINA RESULT:      -6.5      1.783      2.135
REMARK  Name = 
REMARK  7 active torsions:
REMARK  status: ('A' for Active; 'I' for Inactive)
REMARK    1  A    between atoms: C_4  and  O_5
REMARK    2  A    between atoms: C_6  and  N_7
REMARK    3  A    between atoms: C_9  and  N_10
REMARK    4  A    between atoms: N_10  and  C_11
REMARK    5  A    between atoms: C_11  and  C_12
REMARK    6  A    between atoms: C_14  and  C_15
REMARK    7  A    between atoms: C_15  and  O_16
REMARK                            x       y       z     vdW  Elec       q    Type
REMARK                         _______ _______ _______ _____ _____    ______ ____
ROOT
ATOM      1  N   UNL     1       5.512   6.025  14.983  0.00  0.00    +0.000 N 
ATOM      2  C   UNL     1       5.947   5.864  16.277  0.00  0.00    +0.000 A 
ATOM      3  N   UNL     1       6.852   6.729  16.727  0.00  0.00    +0.000 NA
ATOM      4  C   UNL     1       7.267   6.519  17.987  0.00  0.00    +0.000 A 
ATOM      5  C   UNL     1       6.823   5.520  18.835  0.00  0.00    +0.000 A 
ATOM      6  C   UNL     1       5.851   4.686  18.265  0.00  0.00    +0.000 A 
ATOM      7  N   UNL     1       5.419   4.865  16.992  0.00  0.00    +0.000 NA
ATOM      8  H   UNL     1       5.653   6.970  14.660  0.00  0.00    +0.000 HD
ATOM      9  H   UNL     1       4.599   5.612  14.848  0.00  0.00    +0.000 HD
ENDROOT
BRANCH   4  10
ATOM     10  O   UNL     1       8.209   7.428  18.372  0.00  0.00    +0.000 OA
ATOM     11  H   UNL     1       8.680   7.579  17.532  0.00  0.00    +0.000 HD
ENDBRANCH   4  10
BRANCH   5  12
ATOM     12  N   UNL     1       7.355   5.378  20.105  0.00  0.00    +0.000 NA
ATOM     13  O   UNL     1       8.559   5.087  20.103  0.00  0.00    +0.000 OA
ENDBRANCH   5  12
BRANCH   6  14
ATOM     14  N   UNL     1       5.366   3.571  18.984  0.00  0.00    +0.000 N 
ATOM     15  H   UNL     1       5.303   3.809  19.973  0.00  0.00    +0.000 HD
BRANCH  14  16
ATOM     16  C   UNL     1       4.154   2.944  18.488  0.00  0.00    +0.000 C 
BRANCH  16  17
ATOM     17  C   UNL     1       2.989   3.615  19.157  0.00  0.00    +0.000 C 
ATOM     18  C   UNL     1       1.624   3.656  18.506  0.00  0.00    +0.000 C 
ATOM     19  C   UNL     1       1.846   2.802  19.731  0.00  0.00    +0.000 C 
BRANCH  19  20
ATOM     20  C   UNL     1       1.257   3.170  21.053  0.00  0.00    +0.000 C 
BRANCH  20  21
ATOM     21  O   UNL     1       1.937   2.466  22.080  0.00  0.00    +0.000 OA
ATOM     22  H   UNL     1       1.617   2.825  22.925  0.00  0.00    +0.000 HD
ENDBRANCH  20  21
ENDBRANCH  19  20
ENDBRANCH  16  17
ENDBRANCH  14  16
ENDBRANCH   6  14
TORSDOF 7
ENDMDL
MODEL 5
REMARK VINA RESULT:      -6.5      1.885      2.090
REMARK  Name = 
REMARK  7 active torsions:
REMARK  status: ('A' for Active; 'I' for Inactive)
REMARK    1  A    between atoms: C_4  and  O_5
REMARK    2  A    between atoms: C_6  and  N_7
REMARK    3  A    between atoms: C_9  and  N_10
REMARK    4  A    between atoms: N_10  and  C_11
REMARK    5  A    between atoms: C_11  and  C_12
REMARK    6  A    between atoms: C_14  and  C_15
REMARK    7  A    between atoms: C_15  and  O_16
REMARK                            x       y       z     vdW  Elec       q    Type
REMARK                         _______ _______ _______ _____ _____    ______ ____
ROOT
ATOM      1  N   UNL     1       6.424   3.718  13.991  0.00  0.00    +0.000 N 
ATOM      2  C   UNL     1       6.364   4.247  15.258  0.00  0.00    +0.000 A 
ATOM      3  N   UNL     1       7.061   5.357  15.489  0.00  0.00    +0.000 NA
ATOM      4  C   UNL     1       6.994   5.824  16.746  0.00  0.00    +0.000 A 
ATOM      5  C   UNL     1       6.260   5.273  17.781  0.00  0.00    +0.000 A 
ATOM      6  C   UNL     1       5.543   4.124  17.417  0.00  0.00    +0.000 A 
ATOM      7  N   UNL     1       5.599   3.622  16.159  0.00  0.00    +0.000 NA
ATOM      8  H   UNL     1       6.686   4.415  13.311  0.00  0.00    +0.000 HD
ATOM      9  H   UNL     1       5.613   3.147  13.792  0.00  0.00    +0.000 HD
ENDROOT
BRANCH   4  10
ATOM     10  O   UNL     1       7.749   6.948  16.914  0.00  0.00    +0.000 OA
ATOM     11  H   UNL     1       7.064   7.603  17.139  0.00  0.00    +0.000 HD
ENDBRANCH   4  10
BRANCH   5  12
ATOM     12  N   UNL     1       6.299   5.823  19.051  0.00  0.00    +0.000 NA
ATOM     13  O   UNL     1       7.160   5.313  19.780  0.00  0.00    +0.000 OA
ENDBRANCH   5  12
BRANCH   6  14
ATOM     14  N   UNL     1       4.815   3.406  18.392  0.00  0.00    +0.000 N 
ATOM     15  H   UNL     1       4.622   4.016  19.186  0.00  0.00    +0.000 HD
BRANCH  14  16
ATOM     16  C   UNL     1       3.633   2.695  17.939  0.00  0.00    +0.000 C 
BRANCH  16  17
ATOM     17  C   UNL     1       2.452   3.267  18.669  0.00  0.00    +0.000 C 
ATOM     18  C   UNL     1       1.068   2.679  18.510  0.00  0.00    +0.000 C 
ATOM     19  C   UNL     1       1.807   2.518  19.817  0.00  0.00    +0.000 C 
BRANCH  19  20
ATOM     20  C   UNL     1       1.383   3.252  21.046  0.00  0.00    +0.000 C 
BRANCH  20  21
ATOM     21  O   UNL     1       1.736   2.492  22.190  0.00  0.00    +0.000 OA
ATOM     22  H   UNL     1       1.937   3.128  22.898  0.00  0.00    +0.000 HD
ENDBRANCH  20  21
ENDBRANCH  19  20
ENDBRANCH  16  17
ENDBRANCH  14  16
ENDBRANCH   6  14
TORSDOF 7
ENDMDL
MODEL 6
REMARK VINA RESULT:      -6.5      2.175      3.288
REMARK  Name = 
REMARK  7 active torsions:
REMARK  status: ('A' for Active; 'I' for Inactive)
REMARK    1  A    between atoms: C_4  and  O_5
REMARK    2  A    between atoms: C_6  and  N_7
REMARK    3  A    between atoms: C_9  and  N_10
REMARK    4  A    between atoms: N_10  and  C_11
REMARK    5  A    between atoms: C_11  and  C_12
REMARK    6  A    between atoms: C_14  and  C_15
REMARK    7  A    between atoms: C_15  and  O_16
REMARK                            x       y       z     vdW  Elec       q    Type
REMARK                         _______ _______ _______ _____ _____    ______ ____
ROOT
ATOM      1  N   UNL     1       8.390   5.337  20.377  0.00  0.00    +0.000 N 
ATOM      2  C   UNL     1       7.836   5.537  19.135  0.00  0.00    +0.000 A 
ATOM      3  N   UNL     1       7.931   6.760  18.616  0.00  0.00    +0.000 NA
ATOM      4  C   UNL     1       7.355   6.917  17.413  0.00  0.00    +0.000 A 
ATOM      5  C   UNL     1       6.714   5.932  16.683  0.00  0.00    +0.000 A 
ATOM      6  C   UNL     1       6.699   4.679  17.313  0.00  0.00    +0.000 A 
ATOM      7  N   UNL     1       7.262   4.492  18.533  0.00  0.00    +0.000 NA
ATOM      8  H   UNL     1       9.100   6.023  20.582  0.00  0.00    +0.000 HD
ATOM      9  H   UNL     1       8.619   4.363  20.525  0.00  0.00    +0.000 HD
ENDROOT
BRANCH   4  10
ATOM     10  O   UNL     1       7.471   8.196  16.956  0.00  0.00    +0.000 OA
ATOM     11  H   UNL     1       8.347   8.443  17.306  0.00  0.00    +0.000 HD
ENDBRANCH   4  10
BRANCH   5  12
ATOM     12  N   UNL     1       6.121   6.223  15.466  0.00  0.00    +0.000 NA
ATOM     13  O   UNL     1       5.142   6.975  15.564  0.00  0.00    +0.000 OA
ENDBRANCH   5  12
BRANCH   6  14
ATOM     14  N   UNL     1       6.006   3.599  16.724  0.00  0.00    +0.000 N 
ATOM     15  H   UNL     1       6.297   2.729  17.168  0.00  0.00    +0.000 HD
BRANCH  14  16
ATOM     16  C   UNL     1       4.561   3.717  16.631  0.00  0.00    +0.000 C 
BRANCH  16  17
ATOM     17  C   UNL     1       4.017   3.750  18.030  0.00  0.00    +0.000 C 
ATOM     18  C   UNL     1       2.560   3.466  18.315  0.00  0.00    +0.000 C 
ATOM     19  C   UNL     1       3.614   2.473  18.741  0.00  0.00    +0.000 C 
BRANCH  19  20
ATOM     20  C   UNL     1       3.962   2.277  20.179  0.00  0.00    +0.000 C 
BRANCH  20  21
ATOM     21  O   UNL     1       5.236   1.660  20.272  0.00  0.00    +0.000 OA
ATOM     22  H   UNL     1       5.832   2.156  19.685  0.00  0.00    +0.000 HD
ENDBRANCH  20  21
ENDBRANCH  19  20
ENDBRANCH  16  17
ENDBRANCH  14  16
ENDBRANCH   6  14
TORSDOF 7
ENDMDL
MODEL 7
REMARK VINA RESULT:      -6.4      1.756      1.987
REMARK  Name = 
REMARK  7 active torsions:
REMARK  status: ('A' for Active; 'I' for Inactive)
REMARK    1  A    between atoms: C_4  and  O_5
REMARK    2  A    between atoms: C_6  and  N_7
REMARK    3  A    between atoms: C_9  and  N_10
REMARK    4  A    between atoms: N_10  and  C_11
REMARK    5  A    between atoms: C_11  and  C_12
REMARK    6  A    between atoms: C_14  and  C_15
REMARK    7  A    between atoms: C_15  and  O_16
REMARK                            x       y       z     vdW  Elec       q    Type
REMARK                         _______ _______ _______ _____ _____    ______ ____
ROOT
ATOM      1  N   UNL     1       7.025   5.130  14.253  0.00  0.00    +0.000 N 
ATOM      2  C   UNL     1       6.846   5.185  15.615  0.00  0.00    +0.000 A 
ATOM      3  N   UNL     1       7.516   6.124  16.280  0.00  0.00    +0.000 NA
ATOM      4  C   UNL     1       7.331   6.126  17.610  0.00  0.00    +0.000 A 
ATOM      5  C   UNL     1       6.505   5.272  18.318  0.00  0.00    +0.000 A 
ATOM      6  C   UNL     1       5.827   4.344  17.514  0.00  0.00    +0.000 A 
ATOM      7  N   UNL     1       6.002   4.310  16.169  0.00  0.00    +0.000 NA
ATOM      8  H   UNL     1       7.348   6.011  13.886  0.00  0.00    +0.000 HD
ATOM      9  H   UNL     1       6.237   4.688  13.797  0.00  0.00    +0.000 HD
ENDROOT
BRANCH   4  10
ATOM     10  O   UNL     1       8.066   7.097  18.225  0.00  0.00    +0.000 OA
ATOM     11  H   UNL     1       7.633   7.135  19.098  0.00  0.00    +0.000 HD
ENDBRANCH   4  10
BRANCH   5  12
ATOM     12  N   UNL     1       6.424   5.344  19.698  0.00  0.00    +0.000 NA
ATOM     13  O   UNL     1       7.530   5.331  20.256  0.00  0.00    +0.000 OA
ENDBRANCH   5  12
BRANCH   6  14
ATOM     14  N   UNL     1       5.013   3.355  18.108  0.00  0.00    +0.000 N 
ATOM     15  H   UNL     1       5.405   3.094  19.012  0.00  0.00    +0.000 HD
BRANCH  14  16
ATOM     16  C   UNL     1       3.589   3.630  18.180  0.00  0.00    +0.000 C 
BRANCH  16  17
ATOM     17  C   UNL     1       3.204   3.652  19.631  0.00  0.00    +0.000 C 
ATOM     18  C   UNL     1       2.362   4.769  20.205  0.00  0.00    +0.000 C 
ATOM     19  C   UNL     1       1.777   3.385  20.063  0.00  0.00    +0.000 C 
BRANCH  19  20
ATOM     20  C   UNL     1       1.505   2.529  21.257  0.00  0.00    +0.000 C 
BRANCH  20  21
ATOM     21  O   UNL     1       2.063   3.142  22.408  0.00  0.00    +0.000 OA
ATOM     22  H   UNL     1       2.260   4.064  22.167  0.00  0.00    +0.000 HD
ENDBRANCH  20  21
ENDBRANCH  19  20
ENDBRANCH  16  17
ENDBRANCH  14  16
ENDBRANCH   6  14
TORSDOF 7
ENDMDL
MODEL 8
REMARK VINA RESULT:      -6.3      2.401      3.396
REMARK  Name = 
REMARK  7 active torsions:
REMARK  status: ('A' for Active; 'I' for Inactive)
REMARK    1  A    between atoms: C_4  and  O_5
REMARK    2  A    between atoms: C_6  and  N_7
REMARK    3  A    between atoms: C_9  and  N_10
REMARK    4  A    between atoms: N_10  and  C_11
REMARK    5  A    between atoms: C_11  and  C_12
REMARK    6  A    between atoms: C_14  and  C_15
REMARK    7  A    between atoms: C_15  and  O_16
REMARK                            x       y       z     vdW  Elec       q    Type
REMARK                         _______ _______ _______ _____ _____    ______ ____
ROOT
ATOM      1  N   UNL     1       8.373   5.274  20.515  0.00  0.00    +0.000 N 
ATOM      2  C   UNL     1       7.563   5.598  19.452  0.00  0.00    +0.000 A 
ATOM      3  N   UNL     1       7.968   6.585  18.657  0.00  0.00    +0.000 NA
ATOM      4  C   UNL     1       7.135   6.884  17.646  0.00  0.00    +0.000 A 
ATOM      5  C   UNL     1       5.939   6.249  17.362  0.00  0.00    +0.000 A 
ATOM      6  C   UNL     1       5.627   5.207  18.248  0.00  0.00    +0.000 A 
ATOM      7  N   UNL     1       6.442   4.889  19.284  0.00  0.00    +0.000 NA
ATOM      8  H   UNL     1       9.324   5.567  20.359  0.00  0.00    +0.000 HD
ATOM      9  H   UNL     1       8.216   4.322  20.820  0.00  0.00    +0.000 HD
ENDROOT
BRANCH   4  10
ATOM     10  O   UNL     1       7.603   7.917  16.889  0.00  0.00    +0.000 OA
ATOM     11  H   UNL     1       7.801   7.462  16.050  0.00  0.00    +0.000 HD
ENDBRANCH   4  10
BRANCH   5  12
ATOM     12  N   UNL     1       5.143   6.672  16.312  0.00  0.00    +0.000 NA
ATOM     13  O   UNL     1       5.611   6.397  15.199  0.00  0.00    +0.000 OA
ENDBRANCH   5  12
BRANCH   6  14
ATOM     14  N   UNL     1       4.396   4.525  18.132  0.00  0.00    +0.000 N 
ATOM     15  H   UNL     1       4.496   3.584  18.512  0.00  0.00    +0.000 HD
BRANCH  14  16
ATOM     16  C   UNL     1       3.217   5.204  18.636  0.00  0.00    +0.000 C 
BRANCH  16  17
ATOM     17  C   UNL     1       2.852   4.569  19.947  0.00  0.00    +0.000 C 
ATOM     18  C   UNL     1       1.834   5.198  20.871  0.00  0.00    +0.000 C 
ATOM     19  C   UNL     1       1.500   3.916  20.148  0.00  0.00    +0.000 C 
BRANCH  19  20
ATOM     20  C   UNL     1       1.398   2.616  20.876  0.00  0.00    +0.000 C 
BRANCH  20  21
ATOM     21  O   UNL     1       1.726   2.818  22.241  0.00  0.00    +0.000 OA
ATOM     22  H   UNL     1       2.111   1.985  22.563  0.00  0.00    +0.000 HD
ENDBRANCH  20  21
ENDBRANCH  19  20
ENDBRANCH  16  17
ENDBRANCH  14  16
ENDBRANCH   6  14
TORSDOF 7
ENDMDL
MODEL 9
REMARK VINA RESULT:      -6.2      2.499      3.599
REMARK  Name = 
REMARK  7 active torsions:
REMARK  status: ('A' for Active; 'I' for Inactive)
REMARK    1  A    between atoms: C_4  and  O_5
REMARK    2  A    between atoms: C_6  and  N_7
REMARK    3  A    between atoms: C_9  and  N_10
REMARK    4  A    between atoms: N_10  and  C_11
REMARK    5  A    between atoms: C_11  and  C_12
REMARK    6  A    between atoms: C_14  and  C_15
REMARK    7  A    between atoms: C_15  and  O_16
REMARK                            x       y       z     vdW  Elec       q    Type
REMARK                         _______ _______ _______ _____ _____    ______ ____
ROOT
ATOM      1  N   UNL     1       8.014   5.653  19.972  0.00  0.00    +0.000 N 
ATOM      2  C   UNL     1       7.307   5.260  18.861  0.00  0.00    +0.000 A 
ATOM      3  N   UNL     1       7.715   5.726  17.682  0.00  0.00    +0.000 NA
ATOM      4  C   UNL     1       6.980   5.336  16.627  0.00  0.00    +0.000 A 
ATOM      5  C   UNL     1       5.883   4.495  16.666  0.00  0.00    +0.000 A 
ATOM      6  C   UNL     1       5.561   4.043  17.954  0.00  0.00    +0.000 A 
ATOM      7  N   UNL     1       6.276   4.427  19.040  0.00  0.00    +0.000 NA
ATOM      8  H   UNL     1       8.949   5.944  19.732  0.00  0.00    +0.000 HD
ATOM      9  H   UNL     1       7.905   4.993  20.729  0.00  0.00    +0.000 HD
ENDROOT
BRANCH   4  10
ATOM     10  O   UNL     1       7.442   5.869  15.460  0.00  0.00    +0.000 OA
ATOM     11  H   UNL     1       7.945   5.117  15.095  0.00  0.00    +0.000 HD
ENDBRANCH   4  10
BRANCH   5  12
ATOM     12  N   UNL     1       5.178   4.194  15.513  0.00  0.00    +0.000 NA
ATOM     13  O   UNL     1       5.898   3.792  14.589  0.00  0.00    +0.000 OA
ENDBRANCH   5  12
BRANCH   6  14
ATOM     14  N   UNL     1       4.413   3.245  18.158  0.00  0.00    +0.000 N 
ATOM     15  H   UNL     1       4.359   2.540  17.423  0.00  0.00    +0.000 HD
BRANCH  14  16
ATOM     16  C   UNL     1       4.232   2.680  19.483  0.00  0.00    +0.000 C 
BRANCH  16  17
ATOM     17  C   UNL     1       2.860   3.066  19.957  0.00  0.00    +0.000 C 
ATOM     18  C   UNL     1       2.453   2.905  21.404  0.00  0.00    +0.000 C 
ATOM     19  C   UNL     1       2.651   4.287  20.830  0.00  0.00    +0.000 C 
BRANCH  19  20
ATOM     20  C   UNL     1       1.495   5.197  20.578  0.00  0.00    +0.000 C 
BRANCH  20  21
ATOM     21  O   UNL     1       1.893   6.537  20.821  0.00  0.00    +0.000 OA
ATOM     22  H   UNL     1       1.081   7.045  20.990  0.00  0.00    +0.000 HD
ENDBRANCH  20  21
ENDBRANCH  19  20
ENDBRANCH  16  17
ENDBRANCH  14  16
ENDBRANCH   6  14
TORSDOF 7
ENDMDL
