MODEL 1
REMARK VINA RESULT:      -7.3      0.000      0.000
REMARK  Name = 
REMARK  8 active torsions:
REMARK  status: ('A' for Active; 'I' for Inactive)
REMARK    1  A    between atoms: C_1  and  C_2
REMARK    2  A    between atoms: C_2  and  C_3
REMARK    3  A    between atoms: C_2  and  C_4
REMARK    4  A    between atoms: C_7  and  C_8
REMARK    5  A    between atoms: C_8  and  O_9
REMARK    6  A    between atoms: C_11  and  O_12
REMARK    7  A    between atoms: C_14  and  C_15
REMARK    8  A    between atoms: C_15  and  O_17
REMARK                            x       y       z     vdW  Elec       q    Type
REMARK                         _______ _______ _______ _____ _____    ______ ____
ROOT
ATOM      1  C   UNL     1       3.093   6.843  17.467  0.00  0.00    +0.000 C 
ATOM      2  C   UNL     1       4.448   7.570  17.464  0.00  0.00    +0.000 C 
ATOM      3  C   UNL     1       5.527   6.691  16.871  0.00  0.00    +0.000 C 
ATOM      4  C   UNL     1       5.768   5.446  17.747  0.00  0.00    +0.000 C 
ATOM      5  C   UNL     1       4.470   4.781  18.200  0.00  0.00    +0.000 A 
ATOM      6  C   UNL     1       4.467   3.552  18.889  0.00  0.00    +0.000 A 
ATOM      7  C   UNL     1       3.287   2.869  19.205  0.00  0.00    +0.000 A 
ATOM      8  C   UNL     1       2.064   3.406  18.826  0.00  0.00    +0.000 A 
ATOM      9  C   UNL     1       2.039   4.664  18.214  0.00  0.00    +0.000 A 
ATOM     10  C   UNL     1       3.220   5.400  17.970  0.00  0.00    +0.000 A 
ENDROOT
BRANCH   1  12
ATOM     11  C   UNL     1       2.001   9.153  17.794  0.00  0.00    +0.000 C 
ATOM     12  C   UNL     1       2.013   7.684  18.234  0.00  0.00    +0.000 C 
ATOM     13  C   UNL     1       2.144   7.608  19.761  0.00  0.00    +0.000 C 
ENDBRANCH   1  12
BRANCH   6  14
ATOM     14  O   UNL     1       5.604   2.950  19.351  0.00  0.00    +0.000 OA
ATOM     15  H   UNL     1       5.749   3.227  20.268  0.00  0.00    +0.000 HD
ENDBRANCH   6  14
BRANCH   8  16
ATOM     16  C   UNL     1       0.764   2.756  19.137  0.00  0.00    +0.000 C 
ATOM     17  O   UNL     1       0.197   2.016  18.351  0.00  0.00    +0.000 OA
BRANCH  16  18
ATOM     18  O   UNL     1       0.274   3.025  20.367  0.00  0.00    +0.000 OA
ATOM     19  H   UNL     1       0.732   2.590  21.107  0.00  0.00    +0.000 HD
ENDBRANCH  16  18
ENDBRANCH   8  16
BRANCH   4  20
ATOM     20  C   UNL     1       6.715   4.510  16.957  0.00  0.00    +0.000 C 
BRANCH  20  21
ATOM     21  O   UNL     1       7.817   4.079  17.756  0.00  0.00    +0.000 OA
ATOM     22  H   UNL     1       8.196   4.851  18.210  0.00  0.00    +0.000 HD
ENDBRANCH  20  21
ENDBRANCH   4  20
TORSDOF 6
ENDMDL
MODEL 2
REMARK VINA RESULT:      -7.2      3.018      4.905
REMARK  Name = 
REMARK  8 active torsions:
REMARK  status: ('A' for Active; 'I' for Inactive)
REMARK    1  A    between atoms: C_1  and  C_2
REMARK    2  A    between atoms: C_2  and  C_3
REMARK    3  A    between atoms: C_2  and  C_4
REMARK    4  A    between atoms: C_7  and  C_8
REMARK    5  A    between atoms: C_8  and  O_9
REMARK    6  A    between atoms: C_11  and  O_12
REMARK    7  A    between atoms: C_14  and  C_15
REMARK    8  A    between atoms: C_15  and  O_17
REMARK                            x       y       z     vdW  Elec       q    Type
REMARK                         _______ _______ _______ _____ _____    ______ ____
ROOT
ATOM      1  C   UNL     1       2.647   4.353  19.832  0.00  0.00    +0.000 C 
ATOM      2  C   UNL     1       3.143   3.659  18.553  0.00  0.00    +0.000 C 
ATOM      3  C   UNL     1       4.282   4.435  17.930  0.00  0.00    +0.000 C 
ATOM      4  C   UNL     1       3.810   5.821  17.449  0.00  0.00    +0.000 C 
ATOM      5  C   UNL     1       2.933   6.535  18.475  0.00  0.00    +0.000 A 
ATOM      6  C   UNL     1       2.514   7.868  18.293  0.00  0.00    +0.000 A 
ATOM      7  C   UNL     1       1.813   8.577  19.275  0.00  0.00    +0.000 A 
ATOM      8  C   UNL     1       1.518   7.961  20.484  0.00  0.00    +0.000 A 
ATOM      9  C   UNL     1       1.852   6.613  20.655  0.00  0.00    +0.000 A 
ATOM     10  C   UNL     1       2.482   5.864  19.636  0.00  0.00    +0.000 A 
ENDROOT
BRANCH   1  12
ATOM     11  C   UNL     1       1.645   2.813  21.638  0.00  0.00    +0.000 C 
ATOM     12  C   UNL     1       1.358   3.646  20.384  0.00  0.00    +0.000 C 
ATOM     13  C   UNL     1       0.641   2.776  19.343  0.00  0.00    +0.000 C 
ENDBRANCH   1  12
BRANCH   6  14
ATOM     14  O   UNL     1       2.708   8.561  17.131  0.00  0.00    +0.000 OA
ATOM     15  H   UNL     1       2.004   9.222  17.044  0.00  0.00    +0.000 HD
ENDBRANCH   6  14
BRANCH   8  16
ATOM     16  C   UNL     1       0.763   8.636  21.572  0.00  0.00    +0.000 C 
ATOM     17  O   UNL     1      -0.439   8.493  21.722  0.00  0.00    +0.000 OA
BRANCH  16  18
ATOM     18  O   UNL     1       1.514   9.396  22.398  0.00  0.00    +0.000 OA
ATOM     19  H   UNL     1       1.770  10.268  22.052  0.00  0.00    +0.000 HD
ENDBRANCH  16  18
ENDBRANCH   8  16
BRANCH   4  20
ATOM     20  C   UNL     1       5.074   6.614  17.036  0.00  0.00    +0.000 C 
BRANCH  20  21
ATOM     21  O   UNL     1       5.052   6.955  15.650  0.00  0.00    +0.000 OA
ATOM     22  H   UNL     1       5.178   6.146  15.126  0.00  0.00    +0.000 HD
ENDBRANCH  20  21
ENDBRANCH   4  20
TORSDOF 6
ENDMDL
MODEL 3
REMARK VINA RESULT:      -7.0      2.646      4.496
REMARK  Name = 
REMARK  8 active torsions:
REMARK  status: ('A' for Active; 'I' for Inactive)
REMARK    1  A    between atoms: C_1  and  C_2
REMARK    2  A    between atoms: C_2  and  C_3
REMARK    3  A    between atoms: C_2  and  C_4
REMARK    4  A    between atoms: C_7  and  C_8
REMARK    5  A    between atoms: C_8  and  O_9
REMARK    6  A    between atoms: C_11  and  O_12
REMARK    7  A    between atoms: C_14  and  C_15
REMARK    8  A    between atoms: C_15  and  O_17
REMARK                            x       y       z     vdW  Elec       q    Type
REMARK                         _______ _______ _______ _____ _____    ______ ____
ROOT
ATOM      1  C   UNL     1       3.082   4.371  19.743  0.00  0.00    +0.000 C 
ATOM      2  C   UNL     1       3.896   3.143  19.302  0.00  0.00    +0.000 C 
ATOM      3  C   UNL     1       5.349   3.510  19.092  0.00  0.00    +0.000 C 
ATOM      4  C   UNL     1       5.505   4.505  17.926  0.00  0.00    +0.000 C 
ATOM      5  C   UNL     1       4.479   5.636  17.973  0.00  0.00    +0.000 A 
ATOM      6  C   UNL     1       4.536   6.727  17.082  0.00  0.00    +0.000 A 
ATOM      7  C   UNL     1       3.680   7.829  17.186  0.00  0.00    +0.000 A 
ATOM      8  C   UNL     1       2.738   7.869  18.206  0.00  0.00    +0.000 A 
ATOM      9  C   UNL     1       2.609   6.761  19.051  0.00  0.00    +0.000 A 
ATOM     10  C   UNL     1       3.410   5.607  18.898  0.00  0.00    +0.000 A 
ENDROOT
BRANCH   1  12
ATOM     11  C   UNL     1       1.181   3.198  21.027  0.00  0.00    +0.000 C 
ATOM     12  C   UNL     1       1.550   4.033  19.794  0.00  0.00    +0.000 C 
ATOM     13  C   UNL     1       1.031   3.336  18.529  0.00  0.00    +0.000 C 
ENDBRANCH   1  12
BRANCH   6  14
ATOM     14  O   UNL     1       5.389   6.778  16.016  0.00  0.00    +0.000 OA
ATOM     15  H   UNL     1       6.154   6.213  16.205  0.00  0.00    +0.000 HD
ENDBRANCH   6  14
BRANCH   8  16
ATOM     16  C   UNL     1       1.781   8.992  18.378  0.00  0.00    +0.000 C 
ATOM     17  O   UNL     1       1.095   9.122  19.378  0.00  0.00    +0.000 OA
BRANCH  16  18
ATOM     18  O   UNL     1       1.749   9.874  17.355  0.00  0.00    +0.000 OA
ATOM     19  H   UNL     1       0.863  10.152  17.065  0.00  0.00    +0.000 HD
ENDBRANCH  16  18
ENDBRANCH   8  16
BRANCH   4  20
ATOM     20  C   UNL     1       6.976   4.986  17.932  0.00  0.00    +0.000 C 
BRANCH  20  21
ATOM     21  O   UNL     1       7.604   4.775  16.667  0.00  0.00    +0.000 OA
ATOM     22  H   UNL     1       7.018   5.109  15.967  0.00  0.00    +0.000 HD
ENDBRANCH  20  21
ENDBRANCH   4  20
TORSDOF 6
ENDMDL
MODEL 4
REMARK VINA RESULT:      -6.9      1.885      4.642
REMARK  Name = 
REMARK  8 active torsions:
REMARK  status: ('A' for Active; 'I' for Inactive)
REMARK    1  A    between atoms: C_1  and  C_2
REMARK    2  A    between atoms: C_2  and  C_3
REMARK    3  A    between atoms: C_2  and  C_4
REMARK    4  A    between atoms: C_7  and  C_8
REMARK    5  A    between atoms: C_8  and  O_9
REMARK    6  A    between atoms: C_11  and  O_12
REMARK    7  A    between atoms: C_14  and  C_15
REMARK    8  A    between atoms: C_15  and  O_17
REMARK                            x       y       z     vdW  Elec       q    Type
REMARK                         _______ _______ _______ _____ _____    ______ ____
ROOT
ATOM      1  C   UNL     1       2.693   5.755  19.188  0.00  0.00    +0.000 C 
ATOM      2  C   UNL     1       1.506   5.265  18.342  0.00  0.00    +0.000 C 
ATOM      3  C   UNL     1       1.602   3.775  18.096  0.00  0.00    +0.000 C 
ATOM      4  C   UNL     1       2.840   3.435  17.244  0.00  0.00    +0.000 C 
ATOM      5  C   UNL     1       4.098   4.167  17.708  0.00  0.00    +0.000 A 
ATOM      6  C   UNL     1       5.365   3.891  17.156  0.00  0.00    +0.000 A 
ATOM      7  C   UNL     1       6.542   4.462  17.650  0.00  0.00    +0.000 A 
ATOM      8  C   UNL     1       6.478   5.332  18.731  0.00  0.00    +0.000 A 
ATOM      9  C   UNL     1       5.224   5.684  19.243  0.00  0.00    +0.000 A 
ATOM     10  C   UNL     1       4.025   5.179  18.693  0.00  0.00    +0.000 A 
ENDROOT
BRANCH   1  12
ATOM     11  C   UNL     1       1.700   7.823  20.360  0.00  0.00    +0.000 C 
ATOM     12  C   UNL     1       2.687   7.320  19.300  0.00  0.00    +0.000 C 
ATOM     13  C   UNL     1       2.413   8.031  17.967  0.00  0.00    +0.000 C 
ENDBRANCH   1  12
BRANCH   6  14
ATOM     14  O   UNL     1       5.545   3.088  16.065  0.00  0.00    +0.000 OA
ATOM     15  H   UNL     1       6.269   3.450  15.531  0.00  0.00    +0.000 HD
ENDBRANCH   6  14
BRANCH   8  16
ATOM     16  C   UNL     1       7.677   5.995  19.306  0.00  0.00    +0.000 C 
ATOM     17  O   UNL     1       8.252   6.912  18.744  0.00  0.00    +0.000 OA
BRANCH  16  18
ATOM     18  O   UNL     1       8.063   5.525  20.512  0.00  0.00    +0.000 OA
ATOM     19  H   UNL     1       7.400   4.999  20.991  0.00  0.00    +0.000 HD
ENDBRANCH  16  18
ENDBRANCH   8  16
BRANCH   4  20
ATOM     20  C   UNL     1       2.975   1.892  17.233  0.00  0.00    +0.000 C 
BRANCH  20  21
ATOM     21  O   UNL     1       2.574   1.320  18.478  0.00  0.00    +0.000 OA
ATOM     22  H   UNL     1       1.867   1.867  18.860  0.00  0.00    +0.000 HD
ENDBRANCH  20  21
ENDBRANCH   4  20
TORSDOF 6
ENDMDL
MODEL 5
REMARK VINA RESULT:      -6.8      2.679      4.815
REMARK  Name = 
REMARK  8 active torsions:
REMARK  status: ('A' for Active; 'I' for Inactive)
REMARK    1  A    between atoms: C_1  and  C_2
REMARK    2  A    between atoms: C_2  and  C_3
REMARK    3  A    between atoms: C_2  and  C_4
REMARK    4  A    between atoms: C_7  and  C_8
REMARK    5  A    between atoms: C_8  and  O_9
REMARK    6  A    between atoms: C_11  and  O_12
REMARK    7  A    between atoms: C_14  and  C_15
REMARK    8  A    between atoms: C_15  and  O_17
REMARK                            x       y       z     vdW  Elec       q    Type
REMARK                         _______ _______ _______ _____ _____    ______ ____
ROOT
ATOM      1  C   UNL     1       4.162   5.020  16.768  0.00  0.00    +0.000 C 
ATOM      2  C   UNL     1       4.809   3.690  17.188  0.00  0.00    +0.000 C 
ATOM      3  C   UNL     1       3.807   2.805  17.896  0.00  0.00    +0.000 C 
ATOM      4  C   UNL     1       3.351   3.439  19.224  0.00  0.00    +0.000 C 
ATOM      5  C   UNL     1       3.026   4.925  19.089  0.00  0.00    +0.000 A 
ATOM      6  C   UNL     1       2.458   5.660  20.150  0.00  0.00    +0.000 A 
ATOM      7  C   UNL     1       2.043   6.987  20.007  0.00  0.00    +0.000 A 
ATOM      8  C   UNL     1       2.181   7.619  18.778  0.00  0.00    +0.000 A 
ATOM      9  C   UNL     1       2.817   6.937  17.735  0.00  0.00    +0.000 A 
ATOM     10  C   UNL     1       3.318   5.626  17.896  0.00  0.00    +0.000 A 
ENDROOT
BRANCH   1  12
ATOM     11  C   UNL     1       5.933   5.438  14.946  0.00  0.00    +0.000 C 
ATOM     12  C   UNL     1       5.238   6.004  16.190  0.00  0.00    +0.000 C 
ATOM     13  C   UNL     1       6.294   6.434  17.217  0.00  0.00    +0.000 C 
ENDBRANCH   1  12
BRANCH   6  14
ATOM     14  O   UNL     1       2.313   5.159  21.413  0.00  0.00    +0.000 OA
ATOM     15  H   UNL     1       2.994   4.484  21.558  0.00  0.00    +0.000 HD
ENDBRANCH   6  14
BRANCH   8  16
ATOM     16  C   UNL     1       1.782   9.032  18.546  0.00  0.00    +0.000 C 
ATOM     17  O   UNL     1       1.265   9.718  19.412  0.00  0.00    +0.000 OA
BRANCH  16  18
ATOM     18  O   UNL     1       2.062   9.506  17.313  0.00  0.00    +0.000 OA
ATOM     19  H   UNL     1       1.695   8.994  16.571  0.00  0.00    +0.000 HD
ENDBRANCH  16  18
ENDBRANCH   8  16
BRANCH   4  20
ATOM     20  C   UNL     1       2.179   2.581  19.759  0.00  0.00    +0.000 C 
BRANCH  20  21
ATOM     21  O   UNL     1       1.689   1.681  18.765  0.00  0.00    +0.000 OA
ATOM     22  H   UNL     1       1.547   2.174  17.938  0.00  0.00    +0.000 HD
ENDBRANCH  20  21
ENDBRANCH   4  20
TORSDOF 6
ENDMDL
MODEL 6
REMARK VINA RESULT:      -6.7      1.969      4.777
REMARK  Name = 
REMARK  8 active torsions:
REMARK  status: ('A' for Active; 'I' for Inactive)
REMARK    1  A    between atoms: C_1  and  C_2
REMARK    2  A    between atoms: C_2  and  C_3
REMARK    3  A    between atoms: C_2  and  C_4
REMARK    4  A    between atoms: C_7  and  C_8
REMARK    5  A    between atoms: C_8  and  O_9
REMARK    6  A    between atoms: C_11  and  O_12
REMARK    7  A    between atoms: C_14  and  C_15
REMARK    8  A    between atoms: C_15  and  O_17
REMARK                            x       y       z     vdW  Elec       q    Type
REMARK                         _______ _______ _______ _____ _____    ______ ____
ROOT
ATOM      1  C   UNL     1       3.008   5.787  19.319  0.00  0.00    +0.000 C 
ATOM      2  C   UNL     1       1.801   4.917  18.930  0.00  0.00    +0.000 C 
ATOM      3  C   UNL     1       2.185   3.454  18.891  0.00  0.00    +0.000 C 
ATOM      4  C   UNL     1       3.219   3.184  17.780  0.00  0.00    +0.000 C 
ATOM      5  C   UNL     1       4.340   4.221  17.751  0.00  0.00    +0.000 A 
ATOM      6  C   UNL     1       5.460   4.080  16.907  0.00  0.00    +0.000 A 
ATOM      7  C   UNL     1       6.552   4.954  16.953  0.00  0.00    +0.000 A 
ATOM      8  C   UNL     1       6.552   6.001  17.865  0.00  0.00    +0.000 A 
ATOM      9  C   UNL     1       5.416   6.208  18.656  0.00  0.00    +0.000 A 
ATOM     10  C   UNL     1       4.274   5.383  18.554  0.00  0.00    +0.000 A 
ENDROOT
BRANCH   1  12
ATOM     11  C   UNL     1       1.712   7.783  20.305  0.00  0.00    +0.000 C 
ATOM     12  C   UNL     1       2.657   7.311  19.194  0.00  0.00    +0.000 C 
ATOM     13  C   UNL     1       2.075   7.699  17.828  0.00  0.00    +0.000 C 
ENDBRANCH   1  12
BRANCH   6  14
ATOM     14  O   UNL     1       5.552   3.117  15.942  0.00  0.00    +0.000 OA
ATOM     15  H   UNL     1       6.459   3.106  15.601  0.00  0.00    +0.000 HD
ENDBRANCH   6  14
BRANCH   8  16
ATOM     16  C   UNL     1       7.662   6.983  17.968  0.00  0.00    +0.000 C 
ATOM     17  O   UNL     1       7.850   7.849  17.130  0.00  0.00    +0.000 OA
BRANCH  16  18
ATOM     18  O   UNL     1       8.427   6.862  19.074  0.00  0.00    +0.000 OA
ATOM     19  H   UNL     1       7.983   7.055  19.918  0.00  0.00    +0.000 HD
ENDBRANCH  16  18
ENDBRANCH   8  16
BRANCH   4  20
ATOM     20  C   UNL     1       3.711   1.727  17.960  0.00  0.00    +0.000 C 
BRANCH  20  21
ATOM     21  O   UNL     1       4.441   1.564  19.176  0.00  0.00    +0.000 OA
ATOM     22  H   UNL     1       4.110   0.774  19.637  0.00  0.00    +0.000 HD
ENDBRANCH  20  21
ENDBRANCH   4  20
TORSDOF 6
ENDMDL
MODEL 7
REMARK VINA RESULT:      -6.6      2.333      4.548
REMARK  Name = 
REMARK  8 active torsions:
REMARK  status: ('A' for Active; 'I' for Inactive)
REMARK    1  A    between atoms: C_1  and  C_2
REMARK    2  A    between atoms: C_2  and  C_3
REMARK    3  A    between atoms: C_2  and  C_4
REMARK    4  A    between atoms: C_7  and  C_8
REMARK    5  A    between atoms: C_8  and  O_9
REMARK    6  A    between atoms: C_11  and  O_12
REMARK    7  A    between atoms: C_14  and  C_15
REMARK    8  A    between atoms: C_15  and  O_17
REMARK                            x       y       z     vdW  Elec       q    Type
REMARK                         _______ _______ _______ _____ _____    ______ ____
ROOT
ATOM      1  C   UNL     1       3.834   5.165  17.313  0.00  0.00    +0.000 C 
ATOM      2  C   UNL     1       4.423   3.751  17.181  0.00  0.00    +0.000 C 
ATOM      3  C   UNL     1       3.375   2.704  17.483  0.00  0.00    +0.000 C 
ATOM      4  C   UNL     1       2.918   2.786  18.952  0.00  0.00    +0.000 C 
ATOM      5  C   UNL     1       2.652   4.220  19.409  0.00  0.00    +0.000 A 
ATOM      6  C   UNL     1       2.092   4.505  20.670  0.00  0.00    +0.000 A 
ATOM      7  C   UNL     1       1.730   5.800  21.057  0.00  0.00    +0.000 A 
ATOM      8  C   UNL     1       1.916   6.855  20.174  0.00  0.00    +0.000 A 
ATOM      9  C   UNL     1       2.545   6.607  18.948  0.00  0.00    +0.000 A 
ATOM     10  C   UNL     1       2.993   5.318  18.586  0.00  0.00    +0.000 A 
ENDROOT
BRANCH   1  12
ATOM     11  C   UNL     1       5.291   6.550  15.702  0.00  0.00    +0.000 C 
ATOM     12  C   UNL     1       4.958   6.251  17.168  0.00  0.00    +0.000 C 
ATOM     13  C   UNL     1       6.247   5.907  17.927  0.00  0.00    +0.000 C 
ENDBRANCH   1  12
BRANCH   6  14
ATOM     14  O   UNL     1       1.905   3.557  21.637  0.00  0.00    +0.000 OA
ATOM     15  H   UNL     1       1.802   2.695  21.208  0.00  0.00    +0.000 HD
ENDBRANCH   6  14
BRANCH   8  16
ATOM     16  C   UNL     1       1.575   8.261  20.511  0.00  0.00    +0.000 C 
ATOM     17  O   UNL     1       1.168   9.055  19.679  0.00  0.00    +0.000 OA
BRANCH  16  18
ATOM     18  O   UNL     1       1.724   8.585  21.814  0.00  0.00    +0.000 OA
ATOM     19  H   UNL     1       2.283   9.360  21.994  0.00  0.00    +0.000 HD
ENDBRANCH  16  18
ENDBRANCH   8  16
BRANCH   4  20
ATOM     20  C   UNL     1       1.704   1.838  19.106  0.00  0.00    +0.000 C 
BRANCH  20  21
ATOM     21  O   UNL     1       0.561   2.330  18.406  0.00  0.00    +0.000 OA
ATOM     22  H   UNL     1       0.861   2.900  17.677  0.00  0.00    +0.000 HD
ENDBRANCH  20  21
ENDBRANCH   4  20
TORSDOF 6
ENDMDL
MODEL 8
REMARK VINA RESULT:      -6.6      2.571      4.470
REMARK  Name = 
REMARK  8 active torsions:
REMARK  status: ('A' for Active; 'I' for Inactive)
REMARK    1  A    between atoms: C_1  and  C_2
REMARK    2  A    between atoms: C_2  and  C_3
REMARK    3  A    between atoms: C_2  and  C_4
REMARK    4  A    between atoms: C_7  and  C_8
REMARK    5  A    between atoms: C_8  and  O_9
REMARK    6  A    between atoms: C_11  and  O_12
REMARK    7  A    between atoms: C_14  and  C_15
REMARK    8  A    between atoms: C_15  and  O_17
REMARK                            x       y       z     vdW  Elec       q    Type
REMARK                         _______ _______ _______ _____ _____    ______ ____
ROOT
ATOM      1  C   UNL     1       2.975   4.168  20.101  0.00  0.00    +0.000 C 
ATOM      2  C   UNL     1       3.732   3.018  19.415  0.00  0.00    +0.000 C 
ATOM      3  C   UNL     1       5.118   3.460  19.003  0.00  0.00    +0.000 C 
ATOM      4  C   UNL     1       5.051   4.562  17.928  0.00  0.00    +0.000 C 
ATOM      5  C   UNL     1       4.021   5.642  18.253  0.00  0.00    +0.000 A 
ATOM      6  C   UNL     1       3.900   6.811  17.474  0.00  0.00    +0.000 A 
ATOM      7  C   UNL     1       3.049   7.864  17.824  0.00  0.00    +0.000 A 
ATOM      8  C   UNL     1       2.292   7.774  18.985  0.00  0.00    +0.000 A 
ATOM      9  C   UNL     1       2.335   6.591  19.730  0.00  0.00    +0.000 A 
ATOM     10  C   UNL     1       3.125   5.488  19.336  0.00  0.00    +0.000 A 
ENDROOT
BRANCH   1  12
ATOM     11  C   UNL     1       1.344   2.838  21.587  0.00  0.00    +0.000 C 
ATOM     12  C   UNL     1       1.483   3.766  20.375  0.00  0.00    +0.000 C 
ATOM     13  C   UNL     1       0.784   3.135  19.163  0.00  0.00    +0.000 C 
ENDBRANCH   1  12
BRANCH   6  14
ATOM     14  O   UNL     1       4.559   6.992  16.290  0.00  0.00    +0.000 OA
ATOM     15  H   UNL     1       4.039   7.593  15.736  0.00  0.00    +0.000 HD
ENDBRANCH   6  14
BRANCH   8  16
ATOM     16  C   UNL     1       1.351   8.839  19.421  0.00  0.00    +0.000 C 
ATOM     17  O   UNL     1       0.903   9.673  18.652  0.00  0.00    +0.000 OA
BRANCH  16  18
ATOM     18  O   UNL     1       1.009   8.795  20.727  0.00  0.00    +0.000 OA
ATOM     19  H   UNL     1       1.654   9.180  21.345  0.00  0.00    +0.000 HD
ENDBRANCH  16  18
ENDBRANCH   8  16
BRANCH   4  20
ATOM     20  C   UNL     1       6.490   5.098  17.734  0.00  0.00    +0.000 C 
BRANCH  20  21
ATOM     21  O   UNL     1       7.450   4.282  18.404  0.00  0.00    +0.000 OA
ATOM     22  H   UNL     1       7.287   4.327  19.361  0.00  0.00    +0.000 HD
ENDBRANCH  20  21
ENDBRANCH   4  20
TORSDOF 6
ENDMDL
MODEL 9
REMARK VINA RESULT:      -6.6      3.386      4.910
REMARK  Name = 
REMARK  8 active torsions:
REMARK  status: ('A' for Active; 'I' for Inactive)
REMARK    1  A    between atoms: C_1  and  C_2
REMARK    2  A    between atoms: C_2  and  C_3
REMARK    3  A    between atoms: C_2  and  C_4
REMARK    4  A    between atoms: C_7  and  C_8
REMARK    5  A    between atoms: C_8  and  O_9
REMARK    6  A    between atoms: C_11  and  O_12
REMARK    7  A    between atoms: C_14  and  C_15
REMARK    8  A    between atoms: C_15  and  O_17
REMARK                            x       y       z     vdW  Elec       q    Type
REMARK                         _______ _______ _______ _____ _____    ______ ____
ROOT
ATOM      1  C   UNL     1       3.448   4.657  17.656  0.00  0.00    +0.000 C 
ATOM      2  C   UNL     1       3.620   4.562  19.181  0.00  0.00    +0.000 C 
ATOM      3  C   UNL     1       4.757   5.443  19.649  0.00  0.00    +0.000 C 
ATOM      4  C   UNL     1       6.105   4.951  19.086  0.00  0.00    +0.000 C 
ATOM      5  C   UNL     1       6.033   4.602  17.601  0.00  0.00    +0.000 A 
ATOM      6  C   UNL     1       7.185   4.268  16.861  0.00  0.00    +0.000 A 
ATOM      7  C   UNL     1       7.157   4.063  15.477  0.00  0.00    +0.000 A 
ATOM      8  C   UNL     1       5.957   4.196  14.790  0.00  0.00    +0.000 A 
ATOM      9  C   UNL     1       4.787   4.446  15.516  0.00  0.00    +0.000 A 
ATOM     10  C   UNL     1       4.792   4.568  16.923  0.00  0.00    +0.000 A 
ENDROOT
BRANCH   1  12
ATOM     11  C   UNL     1       0.960   3.998  17.562  0.00  0.00    +0.000 C 
ATOM     12  C   UNL     1       2.387   3.618  17.150  0.00  0.00    +0.000 C 
ATOM     13  C   UNL     1       2.680   2.176  17.588  0.00  0.00    +0.000 C 
ENDBRANCH   1  12
BRANCH   6  14
ATOM     14  O   UNL     1       8.409   4.066  17.433  0.00  0.00    +0.000 OA
ATOM     15  H   UNL     1       8.288   3.558  18.250  0.00  0.00    +0.000 HD
ENDBRANCH   6  14
BRANCH   8  16
ATOM     16  C   UNL     1       5.837   3.979  13.325  0.00  0.00    +0.000 C 
ATOM     17  O   UNL     1       4.793   3.633  12.798  0.00  0.00    +0.000 OA
BRANCH  16  18
ATOM     18  O   UNL     1       6.963   4.222  12.620  0.00  0.00    +0.000 OA
ATOM     19  H   UNL     1       7.733   4.506  13.141  0.00  0.00    +0.000 HD
ENDBRANCH  16  18
ENDBRANCH   8  16
BRANCH   4  20
ATOM     20  C   UNL     1       7.162   6.029  19.431  0.00  0.00    +0.000 C 
BRANCH  20  21
ATOM     21  O   UNL     1       8.146   5.529  20.337  0.00  0.00    +0.000 OA
ATOM     22  H   UNL     1       8.540   6.277  20.816  0.00  0.00    +0.000 HD
ENDBRANCH  20  21
ENDBRANCH   4  20
TORSDOF 6
ENDMDL
