MODEL 1
REMARK VINA RESULT:      -8.0      0.000      0.000
REMARK  Name = 
REMARK  7 active torsions:
REMARK  status: ('A' for Active; 'I' for Inactive)
REMARK    1  A    between atoms: C_1  and  C_2
REMARK    2  A    between atoms: C_2  and  O_3
REMARK    3  A    between atoms: O_3  and  C_4
REMARK    4  A    between atoms: C_4  and  C_6
REMARK    5  A    between atoms: N_12  and  C_13
REMARK    6  A    between atoms: C_13  and  C_14
REMARK    7  A    between atoms: N_16  and  C_17
REMARK                            x       y       z     vdW  Elec       q    Type
REMARK                         _______ _______ _______ _____ _____    ______ ____
ROOT
ATOM      1  C   UNL     1       6.905   5.770  17.052  0.00  0.00    +0.000 A 
ATOM      2  N   UNL     1       7.036   5.525  15.736  0.00  0.00    +0.000 NA
ATOM      3  O   UNL     1       6.040   4.614  15.416  0.00  0.00    +0.000 OA
ATOM      4  C   UNL     1       5.302   4.330  16.526  0.00  0.00    +0.000 A 
ATOM      5  N   UNL     1       4.253   3.476  16.562  0.00  0.00    +0.000 NA
ATOM      6  C   UNL     1       3.679   3.417  17.724  0.00  0.00    +0.000 A 
ATOM      7  N   UNL     1       4.053   4.138  18.850  0.00  0.00    +0.000 N 
ATOM      8  C   UNL     1       5.147   4.998  18.840  0.00  0.00    +0.000 A 
ATOM      9  O   UNL     1       5.492   5.636  19.829  0.00  0.00    +0.000 OA
ATOM     10  C   UNL     1       5.804   5.064  17.570  0.00  0.00    +0.000 A 
ENDROOT
BRANCH   1  11
ATOM     11  C   UNL     1       7.784   6.668  17.777  0.00  0.00    +0.000 C 
ATOM     12  O   UNL     1       8.218   6.429  18.896  0.00  0.00    +0.000 OA
BRANCH  11  13
ATOM     13  O   UNL     1       8.009   7.846  17.115  0.00  0.00    +0.000 OA
BRANCH  13  15
ATOM     14  C   UNL     1       8.781   9.762  18.316  0.00  0.00    +0.000 C 
ATOM     15  C   UNL     1       7.559   9.018  17.807  0.00  0.00    +0.000 C 
ENDBRANCH  13  15
ENDBRANCH  11  13
ENDBRANCH   1  11
BRANCH   7  16
ATOM     16  C   UNL     1       3.236   4.074  20.052  0.00  0.00    +0.000 C 
BRANCH  16  17
ATOM     17  C   UNL     1       2.186   5.180  20.118  0.00  0.00    +0.000 C 
ATOM     18  O   UNL     1       0.992   4.889  20.046  0.00  0.00    +0.000 OA
ATOM     19  N   UNL     1       2.675   6.475  20.100  0.00  0.00    +0.000 N 
ATOM     20  H   UNL     1       3.590   6.620  19.669  0.00  0.00    +0.000 HD
BRANCH  19  21
ATOM     21  C   UNL     1       1.833   7.616  20.163  0.00  0.00    +0.000 A 
ATOM     22  C   UNL     1       1.071   7.892  21.307  0.00  0.00    +0.000 A 
ATOM     23  C   UNL     1       0.236   9.012  21.348  0.00  0.00    +0.000 A 
ATOM     24  C   UNL     1       0.156   9.847  20.241  0.00  0.00    +0.000 A 
ATOM     25  F   UNL     1      -0.664  10.906  20.274  0.00  0.00    +0.000 F 
ATOM     26  C   UNL     1       0.910   9.602  19.101  0.00  0.00    +0.000 A 
ATOM     27  C   UNL     1       1.764   8.498  19.071  0.00  0.00    +0.000 A 
ATOM     28 CL   UNL     1       2.669   8.201  17.629  0.00  0.00    +0.000 Cl
ENDBRANCH  19  21
ENDBRANCH  16  17
ENDBRANCH   7  16
TORSDOF 6
ENDMDL
MODEL 2
REMARK VINA RESULT:      -7.9      1.148      1.315
REMARK  Name = 
REMARK  7 active torsions:
REMARK  status: ('A' for Active; 'I' for Inactive)
REMARK    1  A    between atoms: C_1  and  C_2
REMARK    2  A    between atoms: C_2  and  O_3
REMARK    3  A    between atoms: O_3  and  C_4
REMARK    4  A    between atoms: C_4  and  C_6
REMARK    5  A    between atoms: N_12  and  C_13
REMARK    6  A    between atoms: C_13  and  C_14
REMARK    7  A    between atoms: N_16  and  C_17
REMARK                            x       y       z     vdW  Elec       q    Type
REMARK                         _______ _______ _______ _____ _____    ______ ____
ROOT
ATOM      1  C   UNL     1       5.974   4.479  16.926  0.00  0.00    +0.000 A 
ATOM      2  N   UNL     1       5.759   4.135  15.644  0.00  0.00    +0.000 NA
ATOM      3  O   UNL     1       4.464   3.639  15.594  0.00  0.00    +0.000 OA
ATOM      4  C   UNL     1       3.898   3.705  16.832  0.00  0.00    +0.000 A 
ATOM      5  N   UNL     1       2.642   3.300  17.133  0.00  0.00    +0.000 NA
ATOM      6  C   UNL     1       2.315   3.517  18.369  0.00  0.00    +0.000 A 
ATOM      7  N   UNL     1       3.125   4.108  19.329  0.00  0.00    +0.000 N 
ATOM      8  C   UNL     1       4.429   4.503  19.047  0.00  0.00    +0.000 A 
ATOM      9  O   UNL     1       5.157   5.020  19.887  0.00  0.00    +0.000 OA
ATOM     10  C   UNL     1       4.814   4.256  17.690  0.00  0.00    +0.000 A 
ENDROOT
BRANCH   1  11
ATOM     11  C   UNL     1       7.234   5.028  17.393  0.00  0.00    +0.000 C 
ATOM     12  O   UNL     1       8.131   4.345  17.869  0.00  0.00    +0.000 OA
BRANCH  11  13
ATOM     13  O   UNL     1       7.279   6.395  17.325  0.00  0.00    +0.000 OA
BRANCH  13  15
ATOM     14  C   UNL     1       8.207   8.483  18.027  0.00  0.00    +0.000 C 
ATOM     15  C   UNL     1       7.991   7.026  18.398  0.00  0.00    +0.000 C 
ENDBRANCH  13  15
ENDBRANCH  11  13
ENDBRANCH   1  11
BRANCH   7  16
ATOM     16  C   UNL     1       2.582   4.412  20.644  0.00  0.00    +0.000 C 
BRANCH  16  17
ATOM     17  C   UNL     1       1.675   5.640  20.644  0.00  0.00    +0.000 C 
ATOM     18  O   UNL     1       0.455   5.494  20.578  0.00  0.00    +0.000 OA
ATOM     19  N   UNL     1       2.319   6.863  20.563  0.00  0.00    +0.000 N 
ATOM     20  H   UNL     1       3.246   6.872  20.132  0.00  0.00    +0.000 HD
BRANCH  19  21
ATOM     21  C   UNL     1       1.624   8.100  20.561  0.00  0.00    +0.000 A 
ATOM     22  C   UNL     1       1.165   8.676  21.754  0.00  0.00    +0.000 A 
ATOM     23  C   UNL     1       0.469   9.888  21.732  0.00  0.00    +0.000 A 
ATOM     24  C   UNL     1       0.223  10.515  20.518  0.00  0.00    +0.000 A 
ATOM     25  F   UNL     1      -0.467  11.663  20.499  0.00  0.00    +0.000 F 
ATOM     26  C   UNL     1       0.676   9.970  19.324  0.00  0.00    +0.000 A 
ATOM     27  C   UNL     1       1.395   8.774  19.348  0.00  0.00    +0.000 A 
ATOM     28 CL   UNL     1       1.924   8.104  17.845  0.00  0.00    +0.000 Cl
ENDBRANCH  19  21
ENDBRANCH  16  17
ENDBRANCH   7  16
TORSDOF 6
ENDMDL
MODEL 3
REMARK VINA RESULT:      -7.4      2.631      3.907
REMARK  Name = 
REMARK  7 active torsions:
REMARK  status: ('A' for Active; 'I' for Inactive)
REMARK    1  A    between atoms: C_1  and  C_2
REMARK    2  A    between atoms: C_2  and  O_3
REMARK    3  A    between atoms: O_3  and  C_4
REMARK    4  A    between atoms: C_4  and  C_6
REMARK    5  A    between atoms: N_12  and  C_13
REMARK    6  A    between atoms: C_13  and  C_14
REMARK    7  A    between atoms: N_16  and  C_17
REMARK                            x       y       z     vdW  Elec       q    Type
REMARK                         _______ _______ _______ _____ _____    ______ ____
ROOT
ATOM      1  C   UNL     1       6.454   5.400  17.837  0.00  0.00    +0.000 A 
ATOM      2  N   UNL     1       6.852   4.387  18.628  0.00  0.00    +0.000 NA
ATOM      3  O   UNL     1       5.799   4.146  19.499  0.00  0.00    +0.000 OA
ATOM      4  C   UNL     1       4.768   4.992  19.219  0.00  0.00    +0.000 A 
ATOM      5  N   UNL     1       3.589   5.023  19.883  0.00  0.00    +0.000 NA
ATOM      6  C   UNL     1       2.746   5.878  19.393  0.00  0.00    +0.000 A 
ATOM      7  N   UNL     1       2.971   6.700  18.297  0.00  0.00    +0.000 N 
ATOM      8  C   UNL     1       4.187   6.704  17.621  0.00  0.00    +0.000 A 
ATOM      9  O   UNL     1       4.402   7.429  16.655  0.00  0.00    +0.000 OA
ATOM     10  C   UNL     1       5.137   5.777  18.158  0.00  0.00    +0.000 A 
ENDROOT
BRANCH   1  11
ATOM     11  C   UNL     1       7.293   5.962  16.795  0.00  0.00    +0.000 C 
ATOM     12  O   UNL     1       7.733   7.103  16.827  0.00  0.00    +0.000 OA
BRANCH  11  13
ATOM     13  O   UNL     1       7.469   5.113  15.735  0.00  0.00    +0.000 OA
BRANCH  13  15
ATOM     14  C   UNL     1       6.014   3.732  14.436  0.00  0.00    +0.000 C 
ATOM     15  C   UNL     1       6.428   5.159  14.750  0.00  0.00    +0.000 C 
ENDBRANCH  13  15
ENDBRANCH  11  13
ENDBRANCH   1  11
BRANCH   7  16
ATOM     16  C   UNL     1       1.888   7.518  17.773  0.00  0.00    +0.000 C 
BRANCH  16  17
ATOM     17  C   UNL     1       1.691   8.815  18.552  0.00  0.00    +0.000 C 
ATOM     18  O   UNL     1       1.672   8.789  19.783  0.00  0.00    +0.000 OA
ATOM     19  N   UNL     1       1.387   9.932  17.793  0.00  0.00    +0.000 N 
ATOM     20  H   UNL     1       0.945   9.771  16.886  0.00  0.00    +0.000 HD
BRANCH  19  21
ATOM     21  C   UNL     1       1.182  11.217  18.361  0.00  0.00    +0.000 A 
ATOM     22  C   UNL     1       2.235  12.135  18.477  0.00  0.00    +0.000 A 
ATOM     23  C   UNL     1       2.020  13.390  19.052  0.00  0.00    +0.000 A 
ATOM     24  C   UNL     1       0.755  13.721  19.521  0.00  0.00    +0.000 A 
ATOM     25  F   UNL     1       0.558  14.915  20.094  0.00  0.00    +0.000 F 
ATOM     26  C   UNL     1      -0.307  12.833  19.407  0.00  0.00    +0.000 A 
ATOM     27  C   UNL     1      -0.097  11.590  18.808  0.00  0.00    +0.000 A 
ATOM     28 CL   UNL     1      -1.431  10.495  18.704  0.00  0.00    +0.000 Cl
ENDBRANCH  19  21
ENDBRANCH  16  17
ENDBRANCH   7  16
TORSDOF 6
ENDMDL
MODEL 4
REMARK VINA RESULT:      -7.4      2.463      3.804
REMARK  Name = 
REMARK  7 active torsions:
REMARK  status: ('A' for Active; 'I' for Inactive)
REMARK    1  A    between atoms: C_1  and  C_2
REMARK    2  A    between atoms: C_2  and  O_3
REMARK    3  A    between atoms: O_3  and  C_4
REMARK    4  A    between atoms: C_4  and  C_6
REMARK    5  A    between atoms: N_12  and  C_13
REMARK    6  A    between atoms: C_13  and  C_14
REMARK    7  A    between atoms: N_16  and  C_17
REMARK                            x       y       z     vdW  Elec       q    Type
REMARK                         _______ _______ _______ _____ _____    ______ ____
ROOT
ATOM      1  C   UNL     1       6.345   5.279  17.836  0.00  0.00    +0.000 A 
ATOM      2  N   UNL     1       6.640   4.294  18.703  0.00  0.00    +0.000 NA
ATOM      3  O   UNL     1       5.566   4.220  19.578  0.00  0.00    +0.000 OA
ATOM      4  C   UNL     1       4.623   5.140  19.227  0.00  0.00    +0.000 A 
ATOM      5  N   UNL     1       3.450   5.333  19.874  0.00  0.00    +0.000 NA
ATOM      6  C   UNL     1       2.697   6.228  19.315  0.00  0.00    +0.000 A 
ATOM      7  N   UNL     1       3.004   6.942  18.164  0.00  0.00    +0.000 N 
ATOM      8  C   UNL     1       4.218   6.778  17.502  0.00  0.00    +0.000 A 
ATOM      9  O   UNL     1       4.505   7.406  16.489  0.00  0.00    +0.000 OA
ATOM     10  C   UNL     1       5.070   5.805  18.115  0.00  0.00    +0.000 A 
ENDROOT
BRANCH   1  11
ATOM     11  C   UNL     1       7.239   5.680  16.765  0.00  0.00    +0.000 C 
ATOM     12  O   UNL     1       7.692   6.810  16.654  0.00  0.00    +0.000 OA
BRANCH  11  13
ATOM     13  O   UNL     1       7.452   4.685  15.848  0.00  0.00    +0.000 OA
BRANCH  13  15
ATOM     14  C   UNL     1       5.595   4.203  14.422  0.00  0.00    +0.000 C 
ATOM     15  C   UNL     1       6.914   4.946  14.545  0.00  0.00    +0.000 C 
ENDBRANCH  13  15
ENDBRANCH  11  13
ENDBRANCH   1  11
BRANCH   7  16
ATOM     16  C   UNL     1       2.008   7.820  17.571  0.00  0.00    +0.000 C 
BRANCH  16  17
ATOM     17  C   UNL     1       1.531   8.911  18.526  0.00  0.00    +0.000 C 
ATOM     18  O   UNL     1       1.716   8.782  19.736  0.00  0.00    +0.000 OA
ATOM     19  N   UNL     1       0.772   9.919  17.957  0.00  0.00    +0.000 N 
ATOM     20  H   UNL     1       0.268   9.691  17.097  0.00  0.00    +0.000 HD
BRANCH  19  21
ATOM     21  C   UNL     1       0.259  11.012  18.703  0.00  0.00    +0.000 A 
ATOM     22  C   UNL     1      -0.999  10.944  19.317  0.00  0.00    +0.000 A 
ATOM     23  C   UNL     1      -1.496  12.034  20.035  0.00  0.00    +0.000 A 
ATOM     24  C   UNL     1      -0.739  13.195  20.129  0.00  0.00    +0.000 A 
ATOM     25  F   UNL     1      -1.228  14.247  20.797  0.00  0.00    +0.000 F 
ATOM     26  C   UNL     1       0.516  13.283  19.539  0.00  0.00    +0.000 A 
ATOM     27  C   UNL     1       1.022  12.184  18.844  0.00  0.00    +0.000 A 
ATOM     28 CL   UNL     1       2.574  12.331  18.097  0.00  0.00    +0.000 Cl
ENDBRANCH  19  21
ENDBRANCH  16  17
ENDBRANCH   7  16
TORSDOF 6
ENDMDL
MODEL 5
REMARK VINA RESULT:      -7.3      2.855      4.807
REMARK  Name = 
REMARK  7 active torsions:
REMARK  status: ('A' for Active; 'I' for Inactive)
REMARK    1  A    between atoms: C_1  and  C_2
REMARK    2  A    between atoms: C_2  and  O_3
REMARK    3  A    between atoms: O_3  and  C_4
REMARK    4  A    between atoms: C_4  and  C_6
REMARK    5  A    between atoms: N_12  and  C_13
REMARK    6  A    between atoms: C_13  and  C_14
REMARK    7  A    between atoms: N_16  and  C_17
REMARK                            x       y       z     vdW  Elec       q    Type
REMARK                         _______ _______ _______ _____ _____    ______ ____
ROOT
ATOM      1  C   UNL     1       4.226   5.143  17.988  0.00  0.00    +0.000 A 
ATOM      2  N   UNL     1       4.813   5.693  16.909  0.00  0.00    +0.000 NA
ATOM      3  O   UNL     1       4.285   6.971  16.798  0.00  0.00    +0.000 OA
ATOM      4  C   UNL     1       3.404   7.195  17.813  0.00  0.00    +0.000 A 
ATOM      5  N   UNL     1       2.710   8.343  17.999  0.00  0.00    +0.000 NA
ATOM      6  C   UNL     1       1.977   8.332  19.069  0.00  0.00    +0.000 A 
ATOM      7  N   UNL     1       1.880   7.284  19.973  0.00  0.00    +0.000 N 
ATOM      8  C   UNL     1       2.563   6.085  19.784  0.00  0.00    +0.000 A 
ATOM      9  O   UNL     1       2.481   5.150  20.572  0.00  0.00    +0.000 OA
ATOM     10  C   UNL     1       3.365   6.072  18.598  0.00  0.00    +0.000 A 
ENDROOT
BRANCH   1  11
ATOM     11  C   UNL     1       4.504   3.789  18.430  0.00  0.00    +0.000 C 
ATOM     12  O   UNL     1       5.292   3.522  19.327  0.00  0.00    +0.000 OA
BRANCH  11  13
ATOM     13  O   UNL     1       3.857   2.840  17.683  0.00  0.00    +0.000 OA
BRANCH  13  15
ATOM     14  C   UNL     1       1.821   2.169  18.739  0.00  0.00    +0.000 C 
ATOM     15  C   UNL     1       3.259   1.782  18.445  0.00  0.00    +0.000 C 
ENDBRANCH  13  15
ENDBRANCH  11  13
ENDBRANCH   1  11
BRANCH   7  16
ATOM     16  C   UNL     1       1.122   7.458  21.203  0.00  0.00    +0.000 C 
BRANCH  16  17
ATOM     17  C   UNL     1       0.999   8.921  21.623  0.00  0.00    +0.000 C 
ATOM     18  O   UNL     1       1.866   9.422  22.340  0.00  0.00    +0.000 OA
ATOM     19  N   UNL     1      -0.189   9.546  21.284  0.00  0.00    +0.000 N 
ATOM     20  H   UNL     1      -1.007   8.948  21.152  0.00  0.00    +0.000 HD
BRANCH  19  21
ATOM     21  C   UNL     1      -0.459  10.904  21.593  0.00  0.00    +0.000 A 
ATOM     22  C   UNL     1      -1.061  11.266  22.807  0.00  0.00    +0.000 A 
ATOM     23  C   UNL     1      -1.334  12.607  23.089  0.00  0.00    +0.000 A 
ATOM     24  C   UNL     1      -1.016  13.583  22.153  0.00  0.00    +0.000 A 
ATOM     25  F   UNL     1      -1.303  14.864  22.416  0.00  0.00    +0.000 F 
ATOM     26  C   UNL     1      -0.409  13.251  20.949  0.00  0.00    +0.000 A 
ATOM     27  C   UNL     1      -0.112  11.914  20.679  0.00  0.00    +0.000 A 
ATOM     28 CL   UNL     1       0.618  11.527  19.161  0.00  0.00    +0.000 Cl
ENDBRANCH  19  21
ENDBRANCH  16  17
ENDBRANCH   7  16
TORSDOF 6
ENDMDL
MODEL 6
REMARK VINA RESULT:      -7.3      1.186      1.548
REMARK  Name = 
REMARK  7 active torsions:
REMARK  status: ('A' for Active; 'I' for Inactive)
REMARK    1  A    between atoms: C_1  and  C_2
REMARK    2  A    between atoms: C_2  and  O_3
REMARK    3  A    between atoms: O_3  and  C_4
REMARK    4  A    between atoms: C_4  and  C_6
REMARK    5  A    between atoms: N_12  and  C_13
REMARK    6  A    between atoms: C_13  and  C_14
REMARK    7  A    between atoms: N_16  and  C_17
REMARK                            x       y       z     vdW  Elec       q    Type
REMARK                         _______ _______ _______ _____ _____    ______ ____
ROOT
ATOM      1  C   UNL     1       5.555   4.772  16.653  0.00  0.00    +0.000 A 
ATOM      2  N   UNL     1       5.588   3.866  15.659  0.00  0.00    +0.000 NA
ATOM      3  O   UNL     1       4.834   2.788  16.102  0.00  0.00    +0.000 OA
ATOM      4  C   UNL     1       4.336   3.053  17.342  0.00  0.00    +0.000 A 
ATOM      5  N   UNL     1       3.559   2.210  18.062  0.00  0.00    +0.000 NA
ATOM      6  C   UNL     1       3.164   2.713  19.190  0.00  0.00    +0.000 A 
ATOM      7  N   UNL     1       3.467   3.983  19.661  0.00  0.00    +0.000 N 
ATOM      8  C   UNL     1       4.288   4.853  18.949  0.00  0.00    +0.000 A 
ATOM      9  O   UNL     1       4.569   5.975  19.356  0.00  0.00    +0.000 OA
ATOM     10  C   UNL     1       4.748   4.308  17.707  0.00  0.00    +0.000 A 
ENDROOT
BRANCH   1  11
ATOM     11  C   UNL     1       6.248   6.045  16.580  0.00  0.00    +0.000 C 
ATOM     12  O   UNL     1       5.766   7.046  16.068  0.00  0.00    +0.000 OA
BRANCH  11  13
ATOM     13  O   UNL     1       7.528   5.985  17.066  0.00  0.00    +0.000 OA
BRANCH  13  15
ATOM     14  C   UNL     1       8.105   8.120  17.972  0.00  0.00    +0.000 C 
ATOM     15  C   UNL     1       7.733   6.685  18.301  0.00  0.00    +0.000 C 
ENDBRANCH  13  15
ENDBRANCH  11  13
ENDBRANCH   1  11
BRANCH   7  16
ATOM     16  C   UNL     1       2.846   4.468  20.884  0.00  0.00    +0.000 C 
BRANCH  16  17
ATOM     17  C   UNL     1       1.809   5.559  20.633  0.00  0.00    +0.000 C 
ATOM     18  O   UNL     1       0.682   5.249  20.245  0.00  0.00    +0.000 OA
ATOM     19  N   UNL     1       2.273   6.861  20.716  0.00  0.00    +0.000 N 
ATOM     20  H   UNL     1       3.270   7.009  20.547  0.00  0.00    +0.000 HD
BRANCH  19  21
ATOM     21  C   UNL     1       1.438   7.991  20.518  0.00  0.00    +0.000 A 
ATOM     22  C   UNL     1       0.587   8.449  21.534  0.00  0.00    +0.000 A 
ATOM     23  C   UNL     1      -0.241   9.554  21.318  0.00  0.00    +0.000 A 
ATOM     24  C   UNL     1      -0.225  10.191  20.084  0.00  0.00    +0.000 A 
ATOM     25  F   UNL     1      -1.038  11.235  19.873  0.00  0.00    +0.000 F 
ATOM     26  C   UNL     1       0.618   9.764  19.066  0.00  0.00    +0.000 A 
ATOM     27  C   UNL     1       1.463   8.677  19.292  0.00  0.00    +0.000 A 
ATOM     28 CL   UNL     1       2.482   8.149  17.998  0.00  0.00    +0.000 Cl
ENDBRANCH  19  21
ENDBRANCH  16  17
ENDBRANCH   7  16
TORSDOF 6
ENDMDL
MODEL 7
REMARK VINA RESULT:      -7.2      5.203      9.419
REMARK  Name = 
REMARK  7 active torsions:
REMARK  status: ('A' for Active; 'I' for Inactive)
REMARK    1  A    between atoms: C_1  and  C_2
REMARK    2  A    between atoms: C_2  and  O_3
REMARK    3  A    between atoms: O_3  and  C_4
REMARK    4  A    between atoms: C_4  and  C_6
REMARK    5  A    between atoms: N_12  and  C_13
REMARK    6  A    between atoms: C_13  and  C_14
REMARK    7  A    between atoms: N_16  and  C_17
REMARK                            x       y       z     vdW  Elec       q    Type
REMARK                         _______ _______ _______ _____ _____    ______ ____
ROOT
ATOM      1  C   UNL     1      -2.259  12.757  22.059  0.00  0.00    +0.000 A 
ATOM      2  N   UNL     1      -2.825  13.401  21.023  0.00  0.00    +0.000 NA
ATOM      3  O   UNL     1      -2.122  13.002  19.895  0.00  0.00    +0.000 OA
ATOM      4  C   UNL     1      -1.155  12.109  20.248  0.00  0.00    +0.000 A 
ATOM      5  N   UNL     1      -0.289  11.524  19.388  0.00  0.00    +0.000 NA
ATOM      6  C   UNL     1       0.501  10.668  19.958  0.00  0.00    +0.000 A 
ATOM      7  N   UNL     1       0.499  10.336  21.306  0.00  0.00    +0.000 N 
ATOM      8  C   UNL     1      -0.364  10.948  22.210  0.00  0.00    +0.000 A 
ATOM      9  O   UNL     1      -0.372  10.670  23.404  0.00  0.00    +0.000 OA
ATOM     10  C   UNL     1      -1.233  11.910  21.602  0.00  0.00    +0.000 A 
ENDROOT
BRANCH   1  11
ATOM     11  C   UNL     1      -2.705  12.925  23.430  0.00  0.00    +0.000 C 
ATOM     12  O   UNL     1      -2.307  13.820  24.163  0.00  0.00    +0.000 OA
BRANCH  11  13
ATOM     13  O   UNL     1      -3.551  11.930  23.842  0.00  0.00    +0.000 OA
BRANCH  13  15
ATOM     14  C   UNL     1      -5.728  12.913  23.916  0.00  0.00    +0.000 C 
ATOM     15  C   UNL     1      -4.583  12.354  24.743  0.00  0.00    +0.000 C 
ENDBRANCH  13  15
ENDBRANCH  11  13
ENDBRANCH   1  11
BRANCH   7  16
ATOM     16  C   UNL     1       1.350   9.259  21.786  0.00  0.00    +0.000 C 
BRANCH  16  17
ATOM     17  C   UNL     1       1.051   7.920  21.118  0.00  0.00    +0.000 C 
ATOM     18  O   UNL     1      -0.104   7.495  21.098  0.00  0.00    +0.000 OA
ATOM     19  N   UNL     1       2.155   7.193  20.707  0.00  0.00    +0.000 N 
ATOM     20  H   UNL     1       3.036   7.373  21.192  0.00  0.00    +0.000 HD
BRANCH  19  21
ATOM     21  C   UNL     1       2.050   5.934  20.061  0.00  0.00    +0.000 A 
ATOM     22  C   UNL     1       1.543   4.814  20.734  0.00  0.00    +0.000 A 
ATOM     23  C   UNL     1       1.461   3.577  20.088  0.00  0.00    +0.000 A 
ATOM     24  C   UNL     1       1.897   3.460  18.774  0.00  0.00    +0.000 A 
ATOM     25  F   UNL     1       1.840   2.268  18.166  0.00  0.00    +0.000 F 
ATOM     26  C   UNL     1       2.393   4.557  18.082  0.00  0.00    +0.000 A 
ATOM     27  C   UNL     1       2.450   5.798  18.719  0.00  0.00    +0.000 A 
ATOM     28 CL   UNL     1       3.097   7.140  17.844  0.00  0.00    +0.000 Cl
ENDBRANCH  19  21
ENDBRANCH  16  17
ENDBRANCH   7  16
TORSDOF 6
ENDMDL
MODEL 8
REMARK VINA RESULT:      -7.2      4.200      7.067
REMARK  Name = 
REMARK  7 active torsions:
REMARK  status: ('A' for Active; 'I' for Inactive)
REMARK    1  A    between atoms: C_1  and  C_2
REMARK    2  A    between atoms: C_2  and  O_3
REMARK    3  A    between atoms: O_3  and  C_4
REMARK    4  A    between atoms: C_4  and  C_6
REMARK    5  A    between atoms: N_12  and  C_13
REMARK    6  A    between atoms: C_13  and  C_14
REMARK    7  A    between atoms: N_16  and  C_17
REMARK                            x       y       z     vdW  Elec       q    Type
REMARK                         _______ _______ _______ _____ _____    ______ ____
ROOT
ATOM      1  C   UNL     1       4.753   3.849  18.144  0.00  0.00    +0.000 A 
ATOM      2  N   UNL     1       4.215   3.485  16.966  0.00  0.00    +0.000 NA
ATOM      3  O   UNL     1       4.773   4.328  16.015  0.00  0.00    +0.000 OA
ATOM      4  C   UNL     1       5.656   5.176  16.614  0.00  0.00    +0.000 A 
ATOM      5  N   UNL     1       6.374   6.128  15.973  0.00  0.00    +0.000 NA
ATOM      6  C   UNL     1       7.187   6.770  16.753  0.00  0.00    +0.000 A 
ATOM      7  N   UNL     1       7.354   6.544  18.112  0.00  0.00    +0.000 N 
ATOM      8  C   UNL     1       6.604   5.590  18.795  0.00  0.00    +0.000 A 
ATOM      9  O   UNL     1       6.737   5.384  19.996  0.00  0.00    +0.000 OA
ATOM     10  C   UNL     1       5.688   4.882  17.953  0.00  0.00    +0.000 A 
ENDROOT
BRANCH   1  11
ATOM     11  C   UNL     1       4.404   3.209  19.399  0.00  0.00    +0.000 C 
ATOM     12  O   UNL     1       4.940   2.188  19.806  0.00  0.00    +0.000 OA
BRANCH  11  13
ATOM     13  O   UNL     1       3.357   3.820  20.037  0.00  0.00    +0.000 OA
BRANCH  13  15
ATOM     14  C   UNL     1       1.359   2.699  19.357  0.00  0.00    +0.000 C 
ATOM     15  C   UNL     1       2.333   2.929  20.499  0.00  0.00    +0.000 C 
ENDBRANCH  13  15
ENDBRANCH  11  13
ENDBRANCH   1  11
BRANCH   7  16
ATOM     16  C   UNL     1       8.399   7.248  18.839  0.00  0.00    +0.000 C 
BRANCH  16  17
ATOM     17  C   UNL     1       8.422   8.746  18.546  0.00  0.00    +0.000 C 
ATOM     18  O   UNL     1       7.649   9.214  17.709  0.00  0.00    +0.000 OA
ATOM     19  N   UNL     1       9.442   9.461  19.149  0.00  0.00    +0.000 N 
ATOM     20  H   UNL     1      10.288   8.944  19.398  0.00  0.00    +0.000 HD
BRANCH  19  21
ATOM     21  C   UNL     1       9.600  10.862  18.987  0.00  0.00    +0.000 A 
ATOM     22  C   UNL     1      10.059  11.406  17.779  0.00  0.00    +0.000 A 
ATOM     23  C   UNL     1      10.223  12.787  17.641  0.00  0.00    +0.000 A 
ATOM     24  C   UNL     1       9.940  13.620  18.715  0.00  0.00    +0.000 A 
ATOM     25  F   UNL     1      10.123  14.941  18.588  0.00  0.00    +0.000 F 
ATOM     26  C   UNL     1       9.474  13.107  19.919  0.00  0.00    +0.000 A 
ATOM     27  C   UNL     1       9.285  11.731  20.047  0.00  0.00    +0.000 A 
ATOM     28 CL   UNL     1       8.729  11.117  21.565  0.00  0.00    +0.000 Cl
ENDBRANCH  19  21
ENDBRANCH  16  17
ENDBRANCH   7  16
TORSDOF 6
ENDMDL
MODEL 9
REMARK VINA RESULT:      -7.1      3.012      5.033
REMARK  Name = 
REMARK  7 active torsions:
REMARK  status: ('A' for Active; 'I' for Inactive)
REMARK    1  A    between atoms: C_1  and  C_2
REMARK    2  A    between atoms: C_2  and  O_3
REMARK    3  A    between atoms: O_3  and  C_4
REMARK    4  A    between atoms: C_4  and  C_6
REMARK    5  A    between atoms: N_12  and  C_13
REMARK    6  A    between atoms: C_13  and  C_14
REMARK    7  A    between atoms: N_16  and  C_17
REMARK                            x       y       z     vdW  Elec       q    Type
REMARK                         _______ _______ _______ _____ _____    ______ ____
ROOT
ATOM      1  C   UNL     1       6.376   3.927  12.810  0.00  0.00    +0.000 A 
ATOM      2  N   UNL     1       7.370   4.589  12.192  0.00  0.00    +0.000 NA
ATOM      3  O   UNL     1       7.937   5.412  13.155  0.00  0.00    +0.000 OA
ATOM      4  C   UNL     1       7.302   5.230  14.347  0.00  0.00    +0.000 A 
ATOM      5  N   UNL     1       7.607   5.879  15.495  0.00  0.00    +0.000 NA
ATOM      6  C   UNL     1       6.897   5.491  16.508  0.00  0.00    +0.000 A 
ATOM      7  N   UNL     1       5.916   4.509  16.482  0.00  0.00    +0.000 N 
ATOM      8  C   UNL     1       5.569   3.851  15.306  0.00  0.00    +0.000 A 
ATOM      9  O   UNL     1       4.701   2.987  15.267  0.00  0.00    +0.000 OA
ATOM     10  C   UNL     1       6.331   4.278  14.171  0.00  0.00    +0.000 A 
ENDROOT
BRANCH   1  11
ATOM     11  C   UNL     1       5.522   2.973  12.127  0.00  0.00    +0.000 C 
ATOM     12  O   UNL     1       5.932   1.925  11.647  0.00  0.00    +0.000 OA
BRANCH  11  13
ATOM     13  O   UNL     1       4.229   3.407  12.002  0.00  0.00    +0.000 OA
BRANCH  13  15
ATOM     14  C   UNL     1       2.956   3.149   9.996  0.00  0.00    +0.000 C 
ATOM     15  C   UNL     1       3.927   4.040  10.751  0.00  0.00    +0.000 C 
ENDBRANCH  13  15
ENDBRANCH  11  13
ENDBRANCH   1  11
BRANCH   7  16
ATOM     16  C   UNL     1       5.290   4.080  17.723  0.00  0.00    +0.000 C 
BRANCH  16  17
ATOM     17  C   UNL     1       4.672   5.233  18.508  0.00  0.00    +0.000 C 
ATOM     18  O   UNL     1       5.280   5.710  19.467  0.00  0.00    +0.000 OA
ATOM     19  N   UNL     1       3.372   5.564  18.169  0.00  0.00    +0.000 N 
ATOM     20  H   UNL     1       2.802   4.829  17.743  0.00  0.00    +0.000 HD
BRANCH  19  21
ATOM     21  C   UNL     1       2.656   6.616  18.796  0.00  0.00    +0.000 A 
ATOM     22  C   UNL     1       2.486   7.855  18.162  0.00  0.00    +0.000 A 
ATOM     23  C   UNL     1       1.791   8.887  18.800  0.00  0.00    +0.000 A 
ATOM     24  C   UNL     1       1.277   8.681  20.074  0.00  0.00    +0.000 A 
ATOM     25  F   UNL     1       0.634   9.680  20.693  0.00  0.00    +0.000 F 
ATOM     26  C   UNL     1       1.423   7.459  20.718  0.00  0.00    +0.000 A 
ATOM     27  C   UNL     1       2.093   6.421  20.069  0.00  0.00    +0.000 A 
ATOM     28 CL   UNL     1       2.283   4.919  20.905  0.00  0.00    +0.000 Cl
ENDBRANCH  19  21
ENDBRANCH  16  17
ENDBRANCH   7  16
TORSDOF 6
ENDMDL
