MODEL 1
REMARK VINA RESULT:      -6.7      0.000      0.000
REMARK  Name = 
REMARK  4 active torsions:
REMARK  status: ('A' for Active; 'I' for Inactive)
REMARK    1  A    between atoms: C_2  and  C_19
REMARK    2  A    between atoms: N_3  and  C_4
REMARK    3  A    between atoms: N_6  and  C_7
REMARK    4  A    between atoms: C_7  and  C_8
REMARK                            x       y       z     vdW  Elec       q    Type
REMARK                         _______ _______ _______ _____ _____    ______ ____
ROOT
ATOM      1  C   UNL     1       3.174   6.457  17.840  0.00  0.00    +0.000 C 
ATOM      2  C   UNL     1       2.666   7.444  18.901  0.00  0.00    +0.000 C 
ATOM      3  N   UNL     1       2.257   6.651  20.102  0.00  0.00    +0.000 NA
ATOM      4  C   UNL     1       2.241   5.208  19.684  0.00  0.00    +0.000 C 
ATOM      5  C   UNL     1       3.346   4.320  20.290  0.00  0.00    +0.000 C 
ATOM      6  C   UNL     1       4.079   3.357  19.341  0.00  0.00    +0.000 C 
ATOM      7  C   UNL     1       3.759   3.408  17.853  0.00  0.00    +0.000 C 
ATOM      8  O   UNL     1       2.526   4.012  17.533  0.00  0.00    +0.000 OA
ATOM      9  C   UNL     1       2.281   5.251  18.165  0.00  0.00    +0.000 C 
ENDROOT
BRANCH   1  12
ATOM     10  O   UNL     1       5.119   6.874  15.653  0.00  0.00    +0.000 OA
ATOM     11  C   UNL     1       5.467   6.510  16.764  0.00  0.00    +0.000 C 
ATOM     12  N   UNL     1       4.631   6.232  17.811  0.00  0.00    +0.000 N 
ATOM     13  H   UNL     1       5.028   5.921  18.695  0.00  0.00    +0.000 HD
BRANCH  11  14
ATOM     14  C   UNL     1       6.930   6.270  16.987  0.00  0.00    +0.000 C 
ATOM     15  C   UNL     1       7.663   7.473  17.574  0.00  0.00    +0.000 C 
ATOM     16  C   UNL     1       7.620   6.180  18.325  0.00  0.00    +0.000 C 
ENDBRANCH  11  14
ENDBRANCH   1  12
BRANCH   3  17
ATOM     17  C   UNL     1       0.928   7.054  20.604  0.00  0.00    +0.000 C 
BRANCH  17  18
ATOM     18  C   UNL     1       0.820   8.491  21.027  0.00  0.00    +0.000 A 
ATOM     19  C   UNL     1       0.207   9.598  20.375  0.00  0.00    +0.000 A 
ATOM     20  C   UNL     1       0.401  10.694  21.186  0.00  0.00    +0.000 A 
ATOM     21  O   UNL     1       1.096  10.347  22.296  0.00  0.00    +0.000 OA
ATOM     22  C   UNL     1       1.355   9.020  22.187  0.00  0.00    +0.000 A 
ENDBRANCH  17  18
ENDBRANCH   3  17
TORSDOF 4
ENDMDL
MODEL 2
REMARK VINA RESULT:      -6.6      3.025      4.525
REMARK  Name = 
REMARK  4 active torsions:
REMARK  status: ('A' for Active; 'I' for Inactive)
REMARK    1  A    between atoms: C_2  and  C_19
REMARK    2  A    between atoms: N_3  and  C_4
REMARK    3  A    between atoms: N_6  and  C_7
REMARK    4  A    between atoms: C_7  and  C_8
REMARK                            x       y       z     vdW  Elec       q    Type
REMARK                         _______ _______ _______ _____ _____    ______ ____
ROOT
ATOM      1  C   UNL     1       5.222   3.762  18.271  0.00  0.00    +0.000 C 
ATOM      2  C   UNL     1       3.708   3.832  18.020  0.00  0.00    +0.000 C 
ATOM      3  N   UNL     1       3.303   5.272  18.075  0.00  0.00    +0.000 NA
ATOM      4  C   UNL     1       4.476   6.031  18.628  0.00  0.00    +0.000 C 
ATOM      5  C   UNL     1       5.207   6.955  17.634  0.00  0.00    +0.000 C 
ATOM      6  C   UNL     1       6.745   6.918  17.634  0.00  0.00    +0.000 C 
ATOM      7  C   UNL     1       7.454   5.905  18.523  0.00  0.00    +0.000 C 
ATOM      8  O   UNL     1       6.674   5.396  19.581  0.00  0.00    +0.000 OA
ATOM      9  C   UNL     1       5.380   4.961  19.218  0.00  0.00    +0.000 C 
ENDROOT
BRANCH   1  12
ATOM     10  O   UNL     1       4.524   4.204  15.433  0.00  0.00    +0.000 OA
ATOM     11  C   UNL     1       5.673   4.009  15.790  0.00  0.00    +0.000 C 
ATOM     12  N   UNL     1       6.075   3.733  17.068  0.00  0.00    +0.000 N 
ATOM     13  H   UNL     1       7.063   3.573  17.256  0.00  0.00    +0.000 HD
BRANCH  11  14
ATOM     14  C   UNL     1       6.734   3.993  14.731  0.00  0.00    +0.000 C 
ATOM     15  C   UNL     1       6.193   3.732  13.328  0.00  0.00    +0.000 C 
ATOM     16  C   UNL     1       6.905   5.011  13.632  0.00  0.00    +0.000 C 
ENDBRANCH  11  14
ENDBRANCH   1  12
BRANCH   3  17
ATOM     17  C   UNL     1       2.113   5.479  18.923  0.00  0.00    +0.000 C 
BRANCH  17  18
ATOM     18  C   UNL     1       1.913   4.450  19.998  0.00  0.00    +0.000 A 
ATOM     19  C   UNL     1       1.144   3.252  19.993  0.00  0.00    +0.000 A 
ATOM     20  C   UNL     1       1.296   2.678  21.236  0.00  0.00    +0.000 A 
ATOM     21  O   UNL     1       2.103   3.438  22.016  0.00  0.00    +0.000 OA
ATOM     22  C   UNL     1       2.461   4.510  21.265  0.00  0.00    +0.000 A 
ENDBRANCH  17  18
ENDBRANCH   3  17
TORSDOF 4
ENDMDL
MODEL 3
REMARK VINA RESULT:      -6.6      1.949      6.065
REMARK  Name = 
REMARK  4 active torsions:
REMARK  status: ('A' for Active; 'I' for Inactive)
REMARK    1  A    between atoms: C_2  and  C_19
REMARK    2  A    between atoms: N_3  and  C_4
REMARK    3  A    between atoms: N_6  and  C_7
REMARK    4  A    between atoms: C_7  and  C_8
REMARK                            x       y       z     vdW  Elec       q    Type
REMARK                         _______ _______ _______ _____ _____    ______ ____
ROOT
ATOM      1  C   UNL     1       3.682   5.372  19.830  0.00  0.00    +0.000 C 
ATOM      2  C   UNL     1       3.860   5.703  18.341  0.00  0.00    +0.000 C 
ATOM      3  N   UNL     1       3.085   4.693  17.553  0.00  0.00    +0.000 NA
ATOM      4  C   UNL     1       2.684   3.610  18.514  0.00  0.00    +0.000 C 
ATOM      5  C   UNL     1       1.180   3.532  18.849  0.00  0.00    +0.000 C 
ATOM      6  C   UNL     1       0.794   3.347  20.326  0.00  0.00    +0.000 C 
ATOM      7  C   UNL     1       1.894   3.361  21.379  0.00  0.00    +0.000 C 
ATOM      8  O   UNL     1       3.190   3.105  20.886  0.00  0.00    +0.000 OA
ATOM      9  C   UNL     1       3.552   3.844  19.738  0.00  0.00    +0.000 C 
ENDROOT
BRANCH   1  12
ATOM     10  O   UNL     1       2.347   7.917  19.137  0.00  0.00    +0.000 OA
ATOM     11  C   UNL     1       2.006   7.253  20.101  0.00  0.00    +0.000 C 
ATOM     12  N   UNL     1       2.607   6.101  20.529  0.00  0.00    +0.000 N 
ATOM     13  H   UNL     1       2.247   5.630  21.357  0.00  0.00    +0.000 HD
BRANCH  11  14
ATOM     14  C   UNL     1       0.878   7.777  20.938  0.00  0.00    +0.000 C 
ATOM     15  C   UNL     1       1.305   8.852  21.934  0.00  0.00    +0.000 C 
ATOM     16  C   UNL     1       0.297   9.167  20.875  0.00  0.00    +0.000 C 
ENDBRANCH  11  14
ENDBRANCH   1  12
BRANCH   3  17
ATOM     17  C   UNL     1       3.880   4.128  16.445  0.00  0.00    +0.000 C 
BRANCH  17  18
ATOM     18  C   UNL     1       5.319   4.555  16.416  0.00  0.00    +0.000 A 
ATOM     19  C   UNL     1       6.399   4.215  17.279  0.00  0.00    +0.000 A 
ATOM     20  C   UNL     1       7.507   4.887  16.813  0.00  0.00    +0.000 A 
ATOM     21  O   UNL     1       7.192   5.625  15.722  0.00  0.00    +0.000 OA
ATOM     22  C   UNL     1       5.868   5.429  15.496  0.00  0.00    +0.000 A 
ENDBRANCH  17  18
ENDBRANCH   3  17
TORSDOF 4
ENDMDL
MODEL 4
REMARK VINA RESULT:      -6.5      2.297      6.275
REMARK  Name = 
REMARK  4 active torsions:
REMARK  status: ('A' for Active; 'I' for Inactive)
REMARK    1  A    between atoms: C_2  and  C_19
REMARK    2  A    between atoms: N_3  and  C_4
REMARK    3  A    between atoms: N_6  and  C_7
REMARK    4  A    between atoms: C_7  and  C_8
REMARK                            x       y       z     vdW  Elec       q    Type
REMARK                         _______ _______ _______ _____ _____    ______ ____
ROOT
ATOM      1  C   UNL     1       3.806   5.821  19.131  0.00  0.00    +0.000 C 
ATOM      2  C   UNL     1       4.442   5.586  17.753  0.00  0.00    +0.000 C 
ATOM      3  N   UNL     1       3.899   4.299  17.214  0.00  0.00    +0.000 NA
ATOM      4  C   UNL     1       3.179   3.624  18.347  0.00  0.00    +0.000 C 
ATOM      5  C   UNL     1       1.643   3.561  18.225  0.00  0.00    +0.000 C 
ATOM      6  C   UNL     1       0.819   3.911  19.476  0.00  0.00    +0.000 C 
ATOM      7  C   UNL     1       1.547   4.401  20.720  0.00  0.00    +0.000 C 
ATOM      8  O   UNL     1       2.919   4.081  20.769  0.00  0.00    +0.000 OA
ATOM      9  C   UNL     1       3.645   4.364  19.590  0.00  0.00    +0.000 C 
ENDROOT
BRANCH   1  12
ATOM     10  O   UNL     1       3.287   8.411  17.803  0.00  0.00    +0.000 OA
ATOM     11  C   UNL     1       2.430   7.837  18.453  0.00  0.00    +0.000 C 
ATOM     12  N   UNL     1       2.602   6.673  19.150  0.00  0.00    +0.000 N 
ATOM     13  H   UNL     1       1.819   6.285  19.672  0.00  0.00    +0.000 HD
BRANCH  11  14
ATOM     14  C   UNL     1       1.089   8.498  18.564  0.00  0.00    +0.000 C 
ATOM     15  C   UNL     1       0.975   9.452  19.749  0.00  0.00    +0.000 C 
ATOM     16  C   UNL     1       0.802   9.964  18.355  0.00  0.00    +0.000 C 
ENDBRANCH  11  14
ENDBRANCH   1  12
BRANCH   3  17
ATOM     17  C   UNL     1       4.967   3.424  16.692  0.00  0.00    +0.000 C 
BRANCH  17  18
ATOM     18  C   UNL     1       5.888   4.072  15.698  0.00  0.00    +0.000 A 
ATOM     19  C   UNL     1       5.779   4.193  14.284  0.00  0.00    +0.000 A 
ATOM     20  C   UNL     1       6.899   4.870  13.855  0.00  0.00    +0.000 A 
ATOM     21  O   UNL     1       7.700   5.176  14.904  0.00  0.00    +0.000 OA
ATOM     22  C   UNL     1       7.089   4.681  16.010  0.00  0.00    +0.000 A 
ENDBRANCH  17  18
ENDBRANCH   3  17
TORSDOF 4
ENDMDL
MODEL 5
REMARK VINA RESULT:      -6.4      3.414      5.915
REMARK  Name = 
REMARK  4 active torsions:
REMARK  status: ('A' for Active; 'I' for Inactive)
REMARK    1  A    between atoms: C_2  and  C_19
REMARK    2  A    between atoms: N_3  and  C_4
REMARK    3  A    between atoms: N_6  and  C_7
REMARK    4  A    between atoms: C_7  and  C_8
REMARK                            x       y       z     vdW  Elec       q    Type
REMARK                         _______ _______ _______ _____ _____    ______ ____
ROOT
ATOM      1  C   UNL     1       4.461   3.266  18.172  0.00  0.00    +0.000 C 
ATOM      2  C   UNL     1       5.727   4.113  18.364  0.00  0.00    +0.000 C 
ATOM      3  N   UNL     1       5.407   5.514  17.945  0.00  0.00    +0.000 NA
ATOM      4  C   UNL     1       4.077   5.464  17.248  0.00  0.00    +0.000 C 
ATOM      5  C   UNL     1       2.900   6.119  17.998  0.00  0.00    +0.000 C 
ATOM      6  C   UNL     1       1.571   5.344  18.041  0.00  0.00    +0.000 C 
ATOM      7  C   UNL     1       1.518   3.944  17.446  0.00  0.00    +0.000 C 
ATOM      8  O   UNL     1       2.549   3.650  16.531  0.00  0.00    +0.000 OA
ATOM      9  C   UNL     1       3.851   3.989  16.961  0.00  0.00    +0.000 C 
ENDROOT
BRANCH   1  12
ATOM     10  O   UNL     1       4.950   1.769  20.673  0.00  0.00    +0.000 OA
ATOM     11  C   UNL     1       3.942   2.433  20.508  0.00  0.00    +0.000 C 
ATOM     12  N   UNL     1       3.606   3.103  19.363  0.00  0.00    +0.000 N 
ATOM     13  H   UNL     1       2.729   3.619  19.327  0.00  0.00    +0.000 HD
BRANCH  11  14
ATOM     14  C   UNL     1       2.941   2.462  21.624  0.00  0.00    +0.000 C 
ATOM     15  C   UNL     1       2.215   3.798  21.759  0.00  0.00    +0.000 C 
ATOM     16  C   UNL     1       1.444   2.549  21.471  0.00  0.00    +0.000 C 
ENDBRANCH  11  14
ENDBRANCH   1  12
BRANCH   3  17
ATOM     17  C   UNL     1       6.437   6.071  17.046  0.00  0.00    +0.000 C 
BRANCH  17  18
ATOM     18  C   UNL     1       7.278   7.161  17.647  0.00  0.00    +0.000 A 
ATOM     19  C   UNL     1       7.364   8.544  17.320  0.00  0.00    +0.000 A 
ATOM     20  C   UNL     1       8.296   9.096  18.170  0.00  0.00    +0.000 A 
ATOM     21  O   UNL     1       8.800   8.152  19.001  0.00  0.00    +0.000 OA
ATOM     22  C   UNL     1       8.189   6.986  18.671  0.00  0.00    +0.000 A 
ENDBRANCH  17  18
ENDBRANCH   3  17
TORSDOF 4
ENDMDL
MODEL 6
REMARK VINA RESULT:      -6.4      2.199      6.193
REMARK  Name = 
REMARK  4 active torsions:
REMARK  status: ('A' for Active; 'I' for Inactive)
REMARK    1  A    between atoms: C_2  and  C_19
REMARK    2  A    between atoms: N_3  and  C_4
REMARK    3  A    between atoms: N_6  and  C_7
REMARK    4  A    between atoms: C_7  and  C_8
REMARK                            x       y       z     vdW  Elec       q    Type
REMARK                         _______ _______ _______ _____ _____    ______ ____
ROOT
ATOM      1  C   UNL     1       3.880   4.768  20.084  0.00  0.00    +0.000 C 
ATOM      2  C   UNL     1       4.537   4.937  18.706  0.00  0.00    +0.000 C 
ATOM      3  N   UNL     1       3.863   3.992  17.761  0.00  0.00    +0.000 NA
ATOM      4  C   UNL     1       3.020   3.071  18.597  0.00  0.00    +0.000 C 
ATOM      5  C   UNL     1       1.494   3.253  18.468  0.00  0.00    +0.000 C 
ATOM      6  C   UNL     1       0.670   3.259  19.767  0.00  0.00    +0.000 C 
ATOM      7  C   UNL     1       1.403   3.197  21.100  0.00  0.00    +0.000 C 
ATOM      8  O   UNL     1       2.722   2.705  21.030  0.00  0.00    +0.000 OA
ATOM      9  C   UNL     1       3.523   3.276  20.017  0.00  0.00    +0.000 C 
ENDROOT
BRANCH   1  12
ATOM     10  O   UNL     1       3.032   7.232  18.688  0.00  0.00    +0.000 OA
ATOM     11  C   UNL     1       2.432   6.803  19.658  0.00  0.00    +0.000 C 
ATOM     12  N   UNL     1       2.791   5.711  20.400  0.00  0.00    +0.000 N 
ATOM     13  H   UNL     1       2.223   5.446  21.203  0.00  0.00    +0.000 HD
BRANCH  11  14
ATOM     14  C   UNL     1       1.239   7.577  20.131  0.00  0.00    +0.000 C 
ATOM     15  C   UNL     1       1.490   8.362  21.416  0.00  0.00    +0.000 C 
ATOM     16  C   UNL     1       1.110   9.079  20.160  0.00  0.00    +0.000 C 
ENDBRANCH  11  14
ENDBRANCH   1  12
BRANCH   3  17
ATOM     17  C   UNL     1       4.835   3.218  16.966  0.00  0.00    +0.000 C 
BRANCH  17  18
ATOM     18  C   UNL     1       5.716   4.038  16.068  0.00  0.00    +0.000 A 
ATOM     19  C   UNL     1       5.553   4.401  14.701  0.00  0.00    +0.000 A 
ATOM     20  C   UNL     1       6.654   5.154  14.356  0.00  0.00    +0.000 A 
ATOM     21  O   UNL     1       7.493   5.282  15.413  0.00  0.00    +0.000 OA
ATOM     22  C   UNL     1       6.925   4.597  16.437  0.00  0.00    +0.000 A 
ENDBRANCH  17  18
ENDBRANCH   3  17
TORSDOF 4
ENDMDL
MODEL 7
REMARK VINA RESULT:      -6.3      3.137      4.641
REMARK  Name = 
REMARK  4 active torsions:
REMARK  status: ('A' for Active; 'I' for Inactive)
REMARK    1  A    between atoms: C_2  and  C_19
REMARK    2  A    between atoms: N_3  and  C_4
REMARK    3  A    between atoms: N_6  and  C_7
REMARK    4  A    between atoms: C_7  and  C_8
REMARK                            x       y       z     vdW  Elec       q    Type
REMARK                         _______ _______ _______ _____ _____    ______ ____
ROOT
ATOM      1  C   UNL     1       5.065   3.592  17.537  0.00  0.00    +0.000 C 
ATOM      2  C   UNL     1       3.619   4.016  17.242  0.00  0.00    +0.000 C 
ATOM      3  N   UNL     1       3.510   5.484  17.515  0.00  0.00    +0.000 NA
ATOM      4  C   UNL     1       4.768   5.886  18.231  0.00  0.00    +0.000 C 
ATOM      5  C   UNL     1       5.742   6.775  17.431  0.00  0.00    +0.000 C 
ATOM      6  C   UNL     1       7.236   6.414  17.485  0.00  0.00    +0.000 C 
ATOM      7  C   UNL     1       7.660   5.152  18.225  0.00  0.00    +0.000 C 
ATOM      8  O   UNL     1       6.718   4.665  19.153  0.00  0.00    +0.000 OA
ATOM      9  C   UNL     1       5.393   4.573  18.673  0.00  0.00    +0.000 C 
ENDROOT
BRANCH   1  12
ATOM     10  O   UNL     1       4.677   4.594  14.783  0.00  0.00    +0.000 OA
ATOM     11  C   UNL     1       5.735   4.110  15.149  0.00  0.00    +0.000 C 
ATOM     12  N   UNL     1       5.980   3.566  16.380  0.00  0.00    +0.000 N 
ATOM     13  H   UNL     1       6.899   3.175  16.578  0.00  0.00    +0.000 HD
BRANCH  11  14
ATOM     14  C   UNL     1       6.845   4.032  14.145  0.00  0.00    +0.000 C 
ATOM     15  C   UNL     1       6.383   3.593  12.758  0.00  0.00    +0.000 C 
ATOM     16  C   UNL     1       7.023   4.931  12.948  0.00  0.00    +0.000 C 
ENDBRANCH  11  14
ENDBRANCH   1  12
BRANCH   3  17
ATOM     17  C   UNL     1       2.327   5.807  18.337  0.00  0.00    +0.000 C 
BRANCH  17  18
ATOM     18  C   UNL     1       1.984   4.784  19.383  0.00  0.00    +0.000 A 
ATOM     19  C   UNL     1       2.387   4.690  20.745  0.00  0.00    +0.000 A 
ATOM     20  C   UNL     1       1.796   3.556  21.256  0.00  0.00    +0.000 A 
ATOM     21  O   UNL     1       1.056   2.935  20.306  0.00  0.00    +0.000 OA
ATOM     22  C   UNL     1       1.184   3.676  19.177  0.00  0.00    +0.000 A 
ENDBRANCH  17  18
ENDBRANCH   3  17
TORSDOF 4
ENDMDL
MODEL 8
REMARK VINA RESULT:      -6.3      3.222      6.681
REMARK  Name = 
REMARK  4 active torsions:
REMARK  status: ('A' for Active; 'I' for Inactive)
REMARK    1  A    between atoms: C_2  and  C_19
REMARK    2  A    between atoms: N_3  and  C_4
REMARK    3  A    between atoms: N_6  and  C_7
REMARK    4  A    between atoms: C_7  and  C_8
REMARK                            x       y       z     vdW  Elec       q    Type
REMARK                         _______ _______ _______ _____ _____    ______ ____
ROOT
ATOM      1  C   UNL     1       4.364   5.516  19.353  0.00  0.00    +0.000 C 
ATOM      2  C   UNL     1       4.158   6.384  18.103  0.00  0.00    +0.000 C 
ATOM      3  N   UNL     1       4.350   5.510  16.904  0.00  0.00    +0.000 NA
ATOM      4  C   UNL     1       4.938   4.219  17.399  0.00  0.00    +0.000 C 
ATOM      5  C   UNL     1       4.011   2.988  17.330  0.00  0.00    +0.000 C 
ATOM      6  C   UNL     1       3.969   2.066  18.561  0.00  0.00    +0.000 C 
ATOM      7  C   UNL     1       4.748   2.468  19.806  0.00  0.00    +0.000 C 
ATOM      8  O   UNL     1       5.776   3.407  19.585  0.00  0.00    +0.000 OA
ATOM      9  C   UNL     1       5.408   4.529  18.810  0.00  0.00    +0.000 C 
ENDROOT
BRANCH   1  12
ATOM     10  O   UNL     1       1.615   5.355  18.276  0.00  0.00    +0.000 OA
ATOM     11  C   UNL     1       1.915   4.864  19.351  0.00  0.00    +0.000 C 
ATOM     12  N   UNL     1       3.142   4.946  19.951  0.00  0.00    +0.000 N 
ATOM     13  H   UNL     1       3.282   4.508  20.860  0.00  0.00    +0.000 HD
BRANCH  11  14
ATOM     14  C   UNL     1       0.832   4.172  20.122  0.00  0.00    +0.000 C 
ATOM     15  C   UNL     1       0.575   2.739  19.664  0.00  0.00    +0.000 C 
ATOM     16  C   UNL     1       1.018   3.011  21.066  0.00  0.00    +0.000 C 
ENDBRANCH  11  14
ENDBRANCH   1  12
BRANCH   3  17
ATOM     17  C   UNL     1       5.242   6.129  15.904  0.00  0.00    +0.000 C 
BRANCH  17  18
ATOM     18  C   UNL     1       5.759   5.194  14.849  0.00  0.00    +0.000 A 
ATOM     19  C   UNL     1       5.061   4.287  14.002  0.00  0.00    +0.000 A 
ATOM     20  C   UNL     1       6.010   3.662  13.222  0.00  0.00    +0.000 A 
ATOM     21  O   UNL     1       7.250   4.113  13.529  0.00  0.00    +0.000 OA
ATOM     22  C   UNL     1       7.091   5.028  14.518  0.00  0.00    +0.000 A 
ENDBRANCH  17  18
ENDBRANCH   3  17
TORSDOF 4
ENDMDL
MODEL 9
REMARK VINA RESULT:      -6.2      1.346      1.481
REMARK  Name = 
REMARK  4 active torsions:
REMARK  status: ('A' for Active; 'I' for Inactive)
REMARK    1  A    between atoms: C_2  and  C_19
REMARK    2  A    between atoms: N_3  and  C_4
REMARK    3  A    between atoms: N_6  and  C_7
REMARK    4  A    between atoms: C_7  and  C_8
REMARK                            x       y       z     vdW  Elec       q    Type
REMARK                         _______ _______ _______ _____ _____    ______ ____
ROOT
ATOM      1  C   UNL     1       2.772   5.487  18.674  0.00  0.00    +0.000 C 
ATOM      2  C   UNL     1       2.390   6.758  19.447  0.00  0.00    +0.000 C 
ATOM      3  N   UNL     1       1.721   6.334  20.717  0.00  0.00    +0.000 NA
ATOM      4  C   UNL     1       1.442   4.863  20.590  0.00  0.00    +0.000 C 
ATOM      5  C   UNL     1       2.282   3.939  21.496  0.00  0.00    +0.000 C 
ATOM      6  C   UNL     1       2.880   2.675  20.856  0.00  0.00    +0.000 C 
ATOM      7  C   UNL     1       2.708   2.459  19.359  0.00  0.00    +0.000 C 
ATOM      8  O   UNL     1       1.661   3.196  18.770  0.00  0.00    +0.000 OA
ATOM      9  C   UNL     1       1.623   4.566  19.111  0.00  0.00    +0.000 C 
ENDROOT
BRANCH   1  12
ATOM     10  O   UNL     1       5.341   6.561  17.681  0.00  0.00    +0.000 OA
ATOM     11  C   UNL     1       5.291   5.595  18.424  0.00  0.00    +0.000 C 
ATOM     12  N   UNL     1       4.148   4.996  18.877  0.00  0.00    +0.000 N 
ATOM     13  H   UNL     1       4.220   4.183  19.486  0.00  0.00    +0.000 HD
BRANCH  11  14
ATOM     14  C   UNL     1       6.589   4.957  18.817  0.00  0.00    +0.000 C 
ATOM     15  C   UNL     1       7.514   4.675  17.637  0.00  0.00    +0.000 C 
ATOM     16  C   UNL     1       7.953   5.594  18.732  0.00  0.00    +0.000 C 
ENDBRANCH  11  14
ENDBRANCH   1  12
BRANCH   3  17
ATOM     17  C   UNL     1       0.466   7.074  20.955  0.00  0.00    +0.000 C 
BRANCH  17  18
ATOM     18  C   UNL     1       0.629   8.558  21.123  0.00  0.00    +0.000 A 
ATOM     19  C   UNL     1       0.198   9.631  20.292  0.00  0.00    +0.000 A 
ATOM     20  C   UNL     1       0.611  10.795  20.901  0.00  0.00    +0.000 A 
ATOM     21  O   UNL     1       1.273  10.522  22.051  0.00  0.00    +0.000 OA
ATOM     22  C   UNL     1       1.289   9.170  22.171  0.00  0.00    +0.000 A 
ENDBRANCH  17  18
ENDBRANCH   3  17
TORSDOF 4
ENDMDL
