MODEL 1
REMARK VINA RESULT:      -7.4      0.000      0.000
REMARK  Name = 
REMARK  11 active torsions:
REMARK  status: ('A' for Active; 'I' for Inactive)
REMARK    1  A    between atoms: C_1  and  C_2
REMARK    2  A    between atoms: C_3  and  C_4
REMARK    3  A    between atoms: C_8  and  O_9
REMARK    4  A    between atoms: O_9  and  C_10
REMARK    5  A    between atoms: C_10  and  C_11
REMARK    6  A    between atoms: C_10  and  C_12
REMARK    7  A    between atoms: N_14  and  C_15
REMARK    8  A    between atoms: C_15  and  C_16
REMARK    9  A    between atoms: C_16  and  C_17
REMARK   10  A    between atoms: C_17  and  N_18
REMARK   11  A    between atoms: C_24  and  C_25
REMARK                            x       y       z     vdW  Elec       q    Type
REMARK                         _______ _______ _______ _____ _____    ______ ____
ROOT
ATOM      1  O   UNL     1       2.673   6.668  19.232  0.00  0.00    +0.000 OA
ENDROOT
BRANCH   1   9
ATOM      2  C   UNL     1      -1.855  12.995  20.681  0.00  0.00    +0.000 C 
ATOM      3  C   UNL     1      -0.920  11.847  20.402  0.00  0.00    +0.000 A 
ATOM      4  C   UNL     1      -0.544  10.895  21.284  0.00  0.00    +0.000 A 
ATOM      5  C   UNL     1      -0.980  10.851  22.728  0.00  0.00    +0.000 C 
ATOM      6  C   UNL     1       0.336   9.800  20.818  0.00  0.00    +0.000 A 
ATOM      7  C   UNL     1       0.701   8.717  21.624  0.00  0.00    +0.000 A 
ATOM      8  C   UNL     1       1.478   7.666  21.122  0.00  0.00    +0.000 A 
ATOM      9  C   UNL     1       1.941   7.674  19.806  0.00  0.00    +0.000 A 
ATOM     10  C   UNL     1       1.637   8.777  18.990  0.00  0.00    +0.000 A 
ATOM     11  C   UNL     1       2.151   8.891  17.582  0.00  0.00    +0.000 C 
ATOM     12  C   UNL     1       0.819   9.799  19.512  0.00  0.00    +0.000 A 
ATOM     13  O   UNL     1       0.468  10.851  18.640  0.00  0.00    +0.000 OA
ATOM     14  C   UNL     1      -0.420  11.847  18.998  0.00  0.00    +0.000 A 
ATOM     15  O   UNL     1      -0.764  12.706  18.192  0.00  0.00    +0.000 OA
ENDBRANCH   1   9
BRANCH   1  16
ATOM     16  C   UNL     1       2.636   5.350  19.796  0.00  0.00    +0.000 C 
ATOM     17  C   UNL     1       1.557   4.503  19.125  0.00  0.00    +0.000 C 
BRANCH  16  18
ATOM     18  C   UNL     1       4.009   4.678  19.609  0.00  0.00    +0.000 C 
ATOM     19  O   UNL     1       4.172   3.460  19.626  0.00  0.00    +0.000 OA
ATOM     20  N   UNL     1       5.056   5.572  19.532  0.00  0.00    +0.000 N 
ATOM     21  H   UNL     1       4.805   6.526  19.290  0.00  0.00    +0.000 HD
BRANCH  20  22
ATOM     22  C   UNL     1       6.423   5.123  19.372  0.00  0.00    +0.000 C 
BRANCH  22  23
ATOM     23  C   UNL     1       7.249   6.052  18.481  0.00  0.00    +0.000 C 
BRANCH  23  24
ATOM     24  C   UNL     1       7.676   5.340  17.191  0.00  0.00    +0.000 C 
BRANCH  24  25
ATOM     25  N   UNL     1       7.087   5.896  15.965  0.00  0.00    +0.000 NA
ATOM     26  C   UNL     1       5.660   6.272  16.081  0.00  0.00    +0.000 C 
ATOM     27  C   UNL     1       4.650   5.107  16.019  0.00  0.00    +0.000 C 
ATOM     28  O   UNL     1       4.894   4.222  14.919  0.00  0.00    +0.000 OA
ATOM     29  C   UNL     1       6.244   3.748  14.947  0.00  0.00    +0.000 C 
ATOM     30  C   UNL     1       7.221   4.929  14.848  0.00  0.00    +0.000 C 
ENDBRANCH  24  25
ENDBRANCH  23  24
ENDBRANCH  22  23
ENDBRANCH  20  22
ENDBRANCH  16  18
ENDBRANCH   1  16
TORSDOF 7
ENDMDL
MODEL 2
REMARK VINA RESULT:      -7.3      3.499      9.631
REMARK  Name = 
REMARK  11 active torsions:
REMARK  status: ('A' for Active; 'I' for Inactive)
REMARK    1  A    between atoms: C_1  and  C_2
REMARK    2  A    between atoms: C_3  and  C_4
REMARK    3  A    between atoms: C_8  and  O_9
REMARK    4  A    between atoms: O_9  and  C_10
REMARK    5  A    between atoms: C_10  and  C_11
REMARK    6  A    between atoms: C_10  and  C_12
REMARK    7  A    between atoms: N_14  and  C_15
REMARK    8  A    between atoms: C_15  and  C_16
REMARK    9  A    between atoms: C_16  and  C_17
REMARK   10  A    between atoms: C_17  and  N_18
REMARK   11  A    between atoms: C_24  and  C_25
REMARK                            x       y       z     vdW  Elec       q    Type
REMARK                         _______ _______ _______ _____ _____    ______ ____
ROOT
ATOM      1  O   UNL     1       0.819  10.415  19.552  0.00  0.00    +0.000 OA
ENDROOT
BRANCH   1   9
ATOM      2  C   UNL     1       3.490   2.967  19.394  0.00  0.00    +0.000 C 
ATOM      3  C   UNL     1       3.046   4.403  19.487  0.00  0.00    +0.000 A 
ATOM      4  C   UNL     1       3.235   5.356  18.549  0.00  0.00    +0.000 A 
ATOM      5  C   UNL     1       3.967   5.138  17.248  0.00  0.00    +0.000 C 
ATOM      6  C   UNL     1       2.673   6.706  18.781  0.00  0.00    +0.000 A 
ATOM      7  C   UNL     1       2.728   7.730  17.832  0.00  0.00    +0.000 A 
ATOM      8  C   UNL     1       2.123   8.972  18.063  0.00  0.00    +0.000 A 
ATOM      9  C   UNL     1       1.465   9.241  19.265  0.00  0.00    +0.000 A 
ATOM     10  C   UNL     1       1.444   8.249  20.260  0.00  0.00    +0.000 A 
ATOM     11  C   UNL     1       0.812   8.483  21.604  0.00  0.00    +0.000 C 
ATOM     12  C   UNL     1       2.026   6.997  19.979  0.00  0.00    +0.000 A 
ATOM     13  O   UNL     1       1.916   5.999  20.970  0.00  0.00    +0.000 OA
ATOM     14  C   UNL     1       2.343   4.701  20.768  0.00  0.00    +0.000 A 
ATOM     15  O   UNL     1       2.164   3.837  21.620  0.00  0.00    +0.000 OA
ENDBRANCH   1   9
BRANCH   1  16
ATOM     16  C   UNL     1      -0.050  11.006  18.576  0.00  0.00    +0.000 C 
ATOM     17  C   UNL     1      -1.423  10.336  18.596  0.00  0.00    +0.000 C 
BRANCH  16  18
ATOM     18  C   UNL     1      -0.206  12.508  18.877  0.00  0.00    +0.000 C 
ATOM     19  O   UNL     1      -0.539  13.334  18.031  0.00  0.00    +0.000 OA
ATOM     20  N   UNL     1       0.173  12.857  20.156  0.00  0.00    +0.000 N 
ATOM     21  H   UNL     1       0.200  12.098  20.831  0.00  0.00    +0.000 HD
BRANCH  20  22
ATOM     22  C   UNL     1       0.111  14.229  20.615  0.00  0.00    +0.000 C 
BRANCH  22  23
ATOM     23  C   UNL     1      -0.803  14.405  21.829  0.00  0.00    +0.000 C 
BRANCH  23  24
ATOM     24  C   UNL     1      -2.278  14.264  21.432  0.00  0.00    +0.000 C 
BRANCH  24  25
ATOM     25  N   UNL     1      -2.759  12.878  21.354  0.00  0.00    +0.000 NA
ATOM     26  C   UNL     1      -4.193  12.740  21.014  0.00  0.00    +0.000 C 
ATOM     27  C   UNL     1      -5.187  13.004  22.165  0.00  0.00    +0.000 C 
ATOM     28  O   UNL     1      -4.840  12.304  23.366  0.00  0.00    +0.000 OA
ATOM     29  C   UNL     1      -3.495  12.604  23.752  0.00  0.00    +0.000 C 
ATOM     30  C   UNL     1      -2.520  12.181  22.643  0.00  0.00    +0.000 C 
ENDBRANCH  24  25
ENDBRANCH  23  24
ENDBRANCH  22  23
ENDBRANCH  20  22
ENDBRANCH  16  18
ENDBRANCH   1  16
TORSDOF 7
ENDMDL
MODEL 3
REMARK VINA RESULT:      -7.2      4.204      9.778
REMARK  Name = 
REMARK  11 active torsions:
REMARK  status: ('A' for Active; 'I' for Inactive)
REMARK    1  A    between atoms: C_1  and  C_2
REMARK    2  A    between atoms: C_3  and  C_4
REMARK    3  A    between atoms: C_8  and  O_9
REMARK    4  A    between atoms: O_9  and  C_10
REMARK    5  A    between atoms: C_10  and  C_11
REMARK    6  A    between atoms: C_10  and  C_12
REMARK    7  A    between atoms: N_14  and  C_15
REMARK    8  A    between atoms: C_15  and  C_16
REMARK    9  A    between atoms: C_16  and  C_17
REMARK   10  A    between atoms: C_17  and  N_18
REMARK   11  A    between atoms: C_24  and  C_25
REMARK                            x       y       z     vdW  Elec       q    Type
REMARK                         _______ _______ _______ _____ _____    ______ ____
ROOT
ATOM      1  O   UNL     1       1.343   9.610  19.626  0.00  0.00    +0.000 OA
ENDROOT
BRANCH   1   9
ATOM      2  C   UNL     1       4.072   2.184  19.407  0.00  0.00    +0.000 C 
ATOM      3  C   UNL     1       3.496   3.576  19.379  0.00  0.00    +0.000 A 
ATOM      4  C   UNL     1       2.667   4.112  20.300  0.00  0.00    +0.000 A 
ATOM      5  C   UNL     1       2.145   3.375  21.509  0.00  0.00    +0.000 C 
ATOM      6  C   UNL     1       2.247   5.523  20.146  0.00  0.00    +0.000 A 
ATOM      7  C   UNL     1       1.473   6.199  21.094  0.00  0.00    +0.000 A 
ATOM      8  C   UNL     1       1.157   7.555  20.944  0.00  0.00    +0.000 A 
ATOM      9  C   UNL     1       1.580   8.275  19.827  0.00  0.00    +0.000 A 
ATOM     10  C   UNL     1       2.312   7.608  18.830  0.00  0.00    +0.000 A 
ATOM     11  C   UNL     1       2.750   8.297  17.567  0.00  0.00    +0.000 C 
ATOM     12  C   UNL     1       2.649   6.255  19.031  0.00  0.00    +0.000 A 
ATOM     13  O   UNL     1       3.452   5.638  18.048  0.00  0.00    +0.000 OA
ATOM     14  C   UNL     1       3.942   4.354  18.188  0.00  0.00    +0.000 A 
ATOM     15  O   UNL     1       4.701   3.873  17.352  0.00  0.00    +0.000 OA
ENDBRANCH   1   9
BRANCH   1  16
ATOM     16  C   UNL     1       0.066  10.166  19.968  0.00  0.00    +0.000 C 
ATOM     17  C   UNL     1       0.232  11.504  20.686  0.00  0.00    +0.000 C 
BRANCH  16  18
ATOM     18  C   UNL     1      -0.761  10.369  18.686  0.00  0.00    +0.000 C 
ATOM     19  O   UNL     1      -0.552   9.751  17.644  0.00  0.00    +0.000 OA
ATOM     20  N   UNL     1      -1.683  11.389  18.779  0.00  0.00    +0.000 N 
ATOM     21  H   UNL     1      -1.940  11.667  19.722  0.00  0.00    +0.000 HD
BRANCH  20  22
ATOM     22  C   UNL     1      -2.541  11.737  17.665  0.00  0.00    +0.000 C 
BRANCH  22  23
ATOM     23  C   UNL     1      -3.973  11.231  17.843  0.00  0.00    +0.000 C 
BRANCH  23  24
ATOM     24  C   UNL     1      -4.682  11.975  18.982  0.00  0.00    +0.000 C 
BRANCH  24  25
ATOM     25  N   UNL     1      -6.114  12.214  18.755  0.00  0.00    +0.000 NA
ATOM     26  C   UNL     1      -6.834  12.796  19.910  0.00  0.00    +0.000 C 
ATOM     27  C   UNL     1      -7.193  11.813  21.044  0.00  0.00    +0.000 C 
ATOM     28  O   UNL     1      -7.813  10.615  20.561  0.00  0.00    +0.000 OA
ATOM     29  C   UNL     1      -6.996   9.993  19.565  0.00  0.00    +0.000 C 
ATOM     30  C   UNL     1      -6.791  10.947  18.379  0.00  0.00    +0.000 C 
ENDBRANCH  24  25
ENDBRANCH  23  24
ENDBRANCH  22  23
ENDBRANCH  20  22
ENDBRANCH  16  18
ENDBRANCH   1  16
TORSDOF 7
ENDMDL
MODEL 4
REMARK VINA RESULT:      -7.2      3.921      5.194
REMARK  Name = 
REMARK  11 active torsions:
REMARK  status: ('A' for Active; 'I' for Inactive)
REMARK    1  A    between atoms: C_1  and  C_2
REMARK    2  A    between atoms: C_3  and  C_4
REMARK    3  A    between atoms: C_8  and  O_9
REMARK    4  A    between atoms: O_9  and  C_10
REMARK    5  A    between atoms: C_10  and  C_11
REMARK    6  A    between atoms: C_10  and  C_12
REMARK    7  A    between atoms: N_14  and  C_15
REMARK    8  A    between atoms: C_15  and  C_16
REMARK    9  A    between atoms: C_16  and  C_17
REMARK   10  A    between atoms: C_17  and  N_18
REMARK   11  A    between atoms: C_24  and  C_25
REMARK                            x       y       z     vdW  Elec       q    Type
REMARK                         _______ _______ _______ _____ _____    ______ ____
ROOT
ATOM      1  O   UNL     1       3.579   6.095  17.766  0.00  0.00    +0.000 OA
ENDROOT
BRANCH   1   9
ATOM      2  C   UNL     1      -0.425  11.473  21.972  0.00  0.00    +0.000 C 
ATOM      3  C   UNL     1       0.259  10.402  21.163  0.00  0.00    +0.000 A 
ATOM      4  C   UNL     1       0.693  10.522  19.889  0.00  0.00    +0.000 A 
ATOM      5  C   UNL     1       0.527  11.762  19.046  0.00  0.00    +0.000 C 
ATOM      6  C   UNL     1       1.404   9.382  19.268  0.00  0.00    +0.000 A 
ATOM      7  C   UNL     1       1.977   9.441  17.995  0.00  0.00    +0.000 A 
ATOM      8  C   UNL     1       2.702   8.363  17.472  0.00  0.00    +0.000 A 
ATOM      9  C   UNL     1       2.855   7.178  18.193  0.00  0.00    +0.000 A 
ATOM     10  C   UNL     1       2.241   7.070  19.452  0.00  0.00    +0.000 A 
ATOM     11  C   UNL     1       2.305   5.805  20.263  0.00  0.00    +0.000 C 
ATOM     12  C   UNL     1       1.554   8.187  19.967  0.00  0.00    +0.000 A 
ATOM     13  O   UNL     1       1.019   8.070  21.268  0.00  0.00    +0.000 OA
ATOM     14  C   UNL     1       0.426   9.131  21.925  0.00  0.00    +0.000 A 
ATOM     15  O   UNL     1       0.039   9.020  23.084  0.00  0.00    +0.000 OA
ENDBRANCH   1   9
BRANCH   1  16
ATOM     16  C   UNL     1       4.899   5.875  18.277  0.00  0.00    +0.000 C 
ATOM     17  C   UNL     1       5.237   4.385  18.285  0.00  0.00    +0.000 C 
BRANCH  16  18
ATOM     18  C   UNL     1       5.917   6.628  17.401  0.00  0.00    +0.000 C 
ATOM     19  O   UNL     1       5.905   6.594  16.173  0.00  0.00    +0.000 OA
ATOM     20  N   UNL     1       6.912   7.253  18.123  0.00  0.00    +0.000 N 
ATOM     21  H   UNL     1       6.705   7.423  19.103  0.00  0.00    +0.000 HD
BRANCH  20  22
ATOM     22  C   UNL     1       7.968   7.997  17.468  0.00  0.00    +0.000 C 
BRANCH  22  23
ATOM     23  C   UNL     1       7.992   9.471  17.877  0.00  0.00    +0.000 C 
BRANCH  23  24
ATOM     24  C   UNL     1       9.143   9.752  18.851  0.00  0.00    +0.000 C 
BRANCH  24  25
ATOM     25  N   UNL     1       9.172  11.123  19.380  0.00  0.00    +0.000 NA
ATOM     26  C   UNL     1       9.063  12.184  18.353  0.00  0.00    +0.000 C 
ATOM     27  C   UNL     1      10.350  12.482  17.554  0.00  0.00    +0.000 C 
ATOM     28  O   UNL     1      11.497  12.651  18.397  0.00  0.00    +0.000 OA
ATOM     29  C   UNL     1      11.661  11.519  19.255  0.00  0.00    +0.000 C 
ATOM     30  C   UNL     1      10.422  11.349  20.147  0.00  0.00    +0.000 C 
ENDBRANCH  24  25
ENDBRANCH  23  24
ENDBRANCH  22  23
ENDBRANCH  20  22
ENDBRANCH  16  18
ENDBRANCH   1  16
TORSDOF 7
ENDMDL
MODEL 5
REMARK VINA RESULT:      -7.1      3.393      8.595
REMARK  Name = 
REMARK  11 active torsions:
REMARK  status: ('A' for Active; 'I' for Inactive)
REMARK    1  A    between atoms: C_1  and  C_2
REMARK    2  A    between atoms: C_3  and  C_4
REMARK    3  A    between atoms: C_8  and  O_9
REMARK    4  A    between atoms: O_9  and  C_10
REMARK    5  A    between atoms: C_10  and  C_11
REMARK    6  A    between atoms: C_10  and  C_12
REMARK    7  A    between atoms: N_14  and  C_15
REMARK    8  A    between atoms: C_15  and  C_16
REMARK    9  A    between atoms: C_16  and  C_17
REMARK   10  A    between atoms: C_17  and  N_18
REMARK   11  A    between atoms: C_24  and  C_25
REMARK                            x       y       z     vdW  Elec       q    Type
REMARK                         _______ _______ _______ _____ _____    ______ ____
ROOT
ATOM      1  O   UNL     1       1.628   8.829  20.225  0.00  0.00    +0.000 OA
ENDROOT
BRANCH   1   9
ATOM      2  C   UNL     1       3.749   1.560  17.923  0.00  0.00    +0.000 C 
ATOM      3  C   UNL     1       3.287   2.946  18.290  0.00  0.00    +0.000 A 
ATOM      4  C   UNL     1       2.510   3.272  19.346  0.00  0.00    +0.000 A 
ATOM      5  C   UNL     1       1.941   2.275  20.325  0.00  0.00    +0.000 C 
ATOM      6  C   UNL     1       2.205   4.699  19.593  0.00  0.00    +0.000 A 
ATOM      7  C   UNL     1       1.495   5.147  20.710  0.00  0.00    +0.000 A 
ATOM      8  C   UNL     1       1.287   6.512  20.943  0.00  0.00    +0.000 A 
ATOM      9  C   UNL     1       1.758   7.476  20.050  0.00  0.00    +0.000 A 
ATOM     10  C   UNL     1       2.426   7.052  18.889  0.00  0.00    +0.000 A 
ATOM     11  C   UNL     1       2.908   8.024  17.847  0.00  0.00    +0.000 C 
ATOM     12  C   UNL     1       2.654   5.674  18.705  0.00  0.00    +0.000 A 
ATOM     13  O   UNL     1       3.398   5.290  17.569  0.00  0.00    +0.000 OA
ATOM     14  C   UNL     1       3.785   3.983  17.341  0.00  0.00    +0.000 A 
ATOM     15  O   UNL     1       4.496   3.692  16.385  0.00  0.00    +0.000 OA
ENDBRANCH   1   9
BRANCH   1  16
ATOM     16  C   UNL     1       0.474   9.351  20.898  0.00  0.00    +0.000 C 
ATOM     17  C   UNL     1       0.799   9.682  22.354  0.00  0.00    +0.000 C 
BRANCH  16  18
ATOM     18  C   UNL     1      -0.003  10.624  20.176  0.00  0.00    +0.000 C 
ATOM     19  O   UNL     1       0.525  11.059  19.155  0.00  0.00    +0.000 OA
ATOM     20  N   UNL     1      -1.006  11.295  20.843  0.00  0.00    +0.000 N 
ATOM     21  H   UNL     1      -1.525  10.748  21.525  0.00  0.00    +0.000 HD
BRANCH  20  22
ATOM     22  C   UNL     1      -1.571  12.523  20.324  0.00  0.00    +0.000 C 
BRANCH  22  23
ATOM     23  C   UNL     1      -3.032  12.368  19.900  0.00  0.00    +0.000 C 
BRANCH  23  24
ATOM     24  C   UNL     1      -3.148  12.192  18.380  0.00  0.00    +0.000 C 
BRANCH  24  25
ATOM     25  N   UNL     1      -3.783  10.936  17.959  0.00  0.00    +0.000 NA
ATOM     26  C   UNL     1      -2.879   9.765  17.933  0.00  0.00    +0.000 C 
ATOM     27  C   UNL     1      -1.930   9.673  16.720  0.00  0.00    +0.000 C 
ATOM     28  O   UNL     1      -2.608   9.868  15.472  0.00  0.00    +0.000 OA
ATOM     29  C   UNL     1      -3.332  11.101  15.482  0.00  0.00    +0.000 C 
ATOM     30  C   UNL     1      -4.377  11.091  16.608  0.00  0.00    +0.000 C 
ENDBRANCH  24  25
ENDBRANCH  23  24
ENDBRANCH  22  23
ENDBRANCH  20  22
ENDBRANCH  16  18
ENDBRANCH   1  16
TORSDOF 7
ENDMDL
MODEL 6
REMARK VINA RESULT:      -7.1      3.365      8.474
REMARK  Name = 
REMARK  11 active torsions:
REMARK  status: ('A' for Active; 'I' for Inactive)
REMARK    1  A    between atoms: C_1  and  C_2
REMARK    2  A    between atoms: C_3  and  C_4
REMARK    3  A    between atoms: C_8  and  O_9
REMARK    4  A    between atoms: O_9  and  C_10
REMARK    5  A    between atoms: C_10  and  C_11
REMARK    6  A    between atoms: C_10  and  C_12
REMARK    7  A    between atoms: N_14  and  C_15
REMARK    8  A    between atoms: C_15  and  C_16
REMARK    9  A    between atoms: C_16  and  C_17
REMARK   10  A    between atoms: C_17  and  N_18
REMARK   11  A    between atoms: C_24  and  C_25
REMARK                            x       y       z     vdW  Elec       q    Type
REMARK                         _______ _______ _______ _____ _____    ______ ____
ROOT
ATOM      1  O   UNL     1       1.633   8.868  20.270  0.00  0.00    +0.000 OA
ENDROOT
BRANCH   1   9
ATOM      2  C   UNL     1       3.702   1.611  17.882  0.00  0.00    +0.000 C 
ATOM      3  C   UNL     1       3.251   2.997  18.265  0.00  0.00    +0.000 A 
ATOM      4  C   UNL     1       2.465   3.315  19.317  0.00  0.00    +0.000 A 
ATOM      5  C   UNL     1       1.874   2.310  20.273  0.00  0.00    +0.000 C 
ATOM      6  C   UNL     1       2.172   4.742  19.581  0.00  0.00    +0.000 A 
ATOM      7  C   UNL     1       1.454   5.180  20.697  0.00  0.00    +0.000 A 
ATOM      8  C   UNL     1       1.259   6.544  20.948  0.00  0.00    +0.000 A 
ATOM      9  C   UNL     1       1.751   7.516  20.075  0.00  0.00    +0.000 A 
ATOM     10  C   UNL     1       2.428   7.102  18.916  0.00  0.00    +0.000 A 
ATOM     11  C   UNL     1       2.932   8.084  17.895  0.00  0.00    +0.000 C 
ATOM     12  C   UNL     1       2.643   5.725  18.714  0.00  0.00    +0.000 A 
ATOM     13  O   UNL     1       3.396   5.350  17.581  0.00  0.00    +0.000 OA
ATOM     14  C   UNL     1       3.771   4.042  17.338  0.00  0.00    +0.000 A 
ATOM     15  O   UNL     1       4.490   3.758  16.386  0.00  0.00    +0.000 OA
ENDBRANCH   1   9
BRANCH   1  16
ATOM     16  C   UNL     1       0.820   9.364  21.341  0.00  0.00    +0.000 C 
ATOM     17  C   UNL     1       1.550   9.244  22.678  0.00  0.00    +0.000 C 
BRANCH  16  18
ATOM     18  C   UNL     1       0.473  10.841  21.075  0.00  0.00    +0.000 C 
ATOM     19  O   UNL     1       1.217  11.772  21.372  0.00  0.00    +0.000 OA
ATOM     20  N   UNL     1      -0.798  11.029  20.576  0.00  0.00    +0.000 N 
ATOM     21  H   UNL     1      -1.230  10.213  20.150  0.00  0.00    +0.000 HD
BRANCH  20  22
ATOM     22  C   UNL     1      -1.307  12.352  20.279  0.00  0.00    +0.000 C 
BRANCH  22  23
ATOM     23  C   UNL     1      -0.774  12.906  18.957  0.00  0.00    +0.000 C 
BRANCH  23  24
ATOM     24  C   UNL     1      -1.559  12.337  17.767  0.00  0.00    +0.000 C 
BRANCH  24  25
ATOM     25  N   UNL     1      -2.295  11.100  18.058  0.00  0.00    +0.000 NA
ATOM     26  C   UNL     1      -1.973   9.965  17.164  0.00  0.00    +0.000 C 
ATOM     27  C   UNL     1      -2.624  10.004  15.766  0.00  0.00    +0.000 C 
ATOM     28  O   UNL     1      -4.030  10.278  15.818  0.00  0.00    +0.000 OA
ATOM     29  C   UNL     1      -4.280  11.481  16.549  0.00  0.00    +0.000 C 
ATOM     30  C   UNL     1      -3.757  11.345  17.987  0.00  0.00    +0.000 C 
ENDBRANCH  24  25
ENDBRANCH  23  24
ENDBRANCH  22  23
ENDBRANCH  20  22
ENDBRANCH  16  18
ENDBRANCH   1  16
TORSDOF 7
ENDMDL
MODEL 7
REMARK VINA RESULT:      -7.1      3.985      9.611
REMARK  Name = 
REMARK  11 active torsions:
REMARK  status: ('A' for Active; 'I' for Inactive)
REMARK    1  A    between atoms: C_1  and  C_2
REMARK    2  A    between atoms: C_3  and  C_4
REMARK    3  A    between atoms: C_8  and  O_9
REMARK    4  A    between atoms: O_9  and  C_10
REMARK    5  A    between atoms: C_10  and  C_11
REMARK    6  A    between atoms: C_10  and  C_12
REMARK    7  A    between atoms: N_14  and  C_15
REMARK    8  A    between atoms: C_15  and  C_16
REMARK    9  A    between atoms: C_16  and  C_17
REMARK   10  A    between atoms: C_17  and  N_18
REMARK   11  A    between atoms: C_24  and  C_25
REMARK                            x       y       z     vdW  Elec       q    Type
REMARK                         _______ _______ _______ _____ _____    ______ ____
ROOT
ATOM      1  O   UNL     1       1.235   9.146  20.349  0.00  0.00    +0.000 OA
ENDROOT
BRANCH   1   9
ATOM      2  C   UNL     1       5.602   3.996  16.221  0.00  0.00    +0.000 C 
ATOM      3  C   UNL     1       4.708   4.973  16.939  0.00  0.00    +0.000 A 
ATOM      4  C   UNL     1       3.986   4.719  18.052  0.00  0.00    +0.000 A 
ATOM      5  C   UNL     1       3.930   3.381  18.745  0.00  0.00    +0.000 C 
ATOM      6  C   UNL     1       3.209   5.821  18.662  0.00  0.00    +0.000 A 
ATOM      7  C   UNL     1       2.510   5.688  19.866  0.00  0.00    +0.000 A 
ATOM      8  C   UNL     1       1.845   6.776  20.446  0.00  0.00    +0.000 A 
ATOM      9  C   UNL     1       1.831   8.027  19.828  0.00  0.00    +0.000 A 
ATOM     10  C   UNL     1       2.477   8.175  18.589  0.00  0.00    +0.000 A 
ATOM     11  C   UNL     1       2.455   9.473  17.829  0.00  0.00    +0.000 C 
ATOM     12  C   UNL     1       3.172   7.073  18.053  0.00  0.00    +0.000 A 
ATOM     13  O   UNL     1       3.876   7.280  16.848  0.00  0.00    +0.000 OA
ATOM     14  C   UNL     1       4.687   6.313  16.286  0.00  0.00    +0.000 A 
ATOM     15  O   UNL     1       5.347   6.548  15.279  0.00  0.00    +0.000 OA
ENDBRANCH   1   9
BRANCH   1  16
ATOM     16  C   UNL     1      -0.175   9.145  20.610  0.00  0.00    +0.000 C 
ATOM     17  C   UNL     1      -0.449   9.027  22.108  0.00  0.00    +0.000 C 
BRANCH  16  18
ATOM     18  C   UNL     1      -0.792  10.450  20.075  0.00  0.00    +0.000 C 
ATOM     19  O   UNL     1      -0.951  11.454  20.765  0.00  0.00    +0.000 OA
ATOM     20  N   UNL     1      -1.256  10.351  18.780  0.00  0.00    +0.000 N 
ATOM     21  H   UNL     1      -0.873   9.586  18.232  0.00  0.00    +0.000 HD
BRANCH  20  22
ATOM     22  C   UNL     1      -1.884  11.473  18.114  0.00  0.00    +0.000 C 
BRANCH  22  23
ATOM     23  C   UNL     1      -3.386  11.274  17.911  0.00  0.00    +0.000 C 
BRANCH  23  24
ATOM     24  C   UNL     1      -4.188  11.974  19.016  0.00  0.00    +0.000 C 
BRANCH  24  25
ATOM     25  N   UNL     1      -5.525  12.427  18.605  0.00  0.00    +0.000 NA
ATOM     26  C   UNL     1      -6.323  13.053  19.682  0.00  0.00    +0.000 C 
ATOM     27  C   UNL     1      -6.978  12.080  20.686  0.00  0.00    +0.000 C 
ATOM     28  O   UNL     1      -7.676  11.008  20.041  0.00  0.00    +0.000 OA
ATOM     29  C   UNL     1      -6.811  10.322  19.132  0.00  0.00    +0.000 C 
ATOM     30  C   UNL     1      -6.303  11.290  18.053  0.00  0.00    +0.000 C 
ENDBRANCH  24  25
ENDBRANCH  23  24
ENDBRANCH  22  23
ENDBRANCH  20  22
ENDBRANCH  16  18
ENDBRANCH   1  16
TORSDOF 7
ENDMDL
MODEL 8
REMARK VINA RESULT:      -7.0      3.204      8.370
REMARK  Name = 
REMARK  11 active torsions:
REMARK  status: ('A' for Active; 'I' for Inactive)
REMARK    1  A    between atoms: C_1  and  C_2
REMARK    2  A    between atoms: C_3  and  C_4
REMARK    3  A    between atoms: C_8  and  O_9
REMARK    4  A    between atoms: O_9  and  C_10
REMARK    5  A    between atoms: C_10  and  C_11
REMARK    6  A    between atoms: C_10  and  C_12
REMARK    7  A    between atoms: N_14  and  C_15
REMARK    8  A    between atoms: C_15  and  C_16
REMARK    9  A    between atoms: C_16  and  C_17
REMARK   10  A    between atoms: C_17  and  N_18
REMARK   11  A    between atoms: C_24  and  C_25
REMARK                            x       y       z     vdW  Elec       q    Type
REMARK                         _______ _______ _______ _____ _____    ______ ____
ROOT
ATOM      1  O   UNL     1       0.627   8.593  20.470  0.00  0.00    +0.000 OA
ENDROOT
BRANCH   1   9
ATOM      2  C   UNL     1       6.303   4.427  16.855  0.00  0.00    +0.000 C 
ATOM      3  C   UNL     1       5.167   5.202  17.471  0.00  0.00    +0.000 A 
ATOM      4  C   UNL     1       4.431   4.821  18.538  0.00  0.00    +0.000 A 
ATOM      5  C   UNL     1       4.608   3.516  19.273  0.00  0.00    +0.000 C 
ATOM      6  C   UNL     1       3.391   5.741  19.051  0.00  0.00    +0.000 A 
ATOM      7  C   UNL     1       2.645   5.484  20.205  0.00  0.00    +0.000 A 
ATOM      8  C   UNL     1       1.720   6.413  20.696  0.00  0.00    +0.000 A 
ATOM      9  C   UNL     1       1.487   7.620  20.034  0.00  0.00    +0.000 A 
ATOM     10  C   UNL     1       2.182   7.880  18.841  0.00  0.00    +0.000 A 
ATOM     11  C   UNL     1       1.942   9.127  18.036  0.00  0.00    +0.000 C 
ATOM     12  C   UNL     1       3.136   6.943  18.396  0.00  0.00    +0.000 A 
ATOM     13  O   UNL     1       3.871   7.274  17.238  0.00  0.00    +0.000 OA
ATOM     14  C   UNL     1       4.911   6.493  16.771  0.00  0.00    +0.000 A 
ATOM     15  O   UNL     1       5.582   6.846  15.806  0.00  0.00    +0.000 OA
ENDBRANCH   1   9
BRANCH   1  16
ATOM     16  C   UNL     1       0.607   8.956  21.857  0.00  0.00    +0.000 C 
ATOM     17  C   UNL     1       2.027   9.124  22.395  0.00  0.00    +0.000 C 
BRANCH  16  18
ATOM     18  C   UNL     1      -0.167  10.276  22.027  0.00  0.00    +0.000 C 
ATOM     19  O   UNL     1      -0.394  10.790  23.119  0.00  0.00    +0.000 OA
ATOM     20  N   UNL     1      -0.681  10.770  20.846  0.00  0.00    +0.000 N 
ATOM     21  H   UNL     1      -0.249  10.420  19.996  0.00  0.00    +0.000 HD
BRANCH  20  22
ATOM     22  C   UNL     1      -1.453  11.995  20.812  0.00  0.00    +0.000 C 
BRANCH  22  23
ATOM     23  C   UNL     1      -1.078  12.896  19.634  0.00  0.00    +0.000 C 
BRANCH  23  24
ATOM     24  C   UNL     1      -1.853  12.500  18.370  0.00  0.00    +0.000 C 
BRANCH  24  25
ATOM     25  N   UNL     1      -2.469  11.167  18.426  0.00  0.00    +0.000 NA
ATOM     26  C   UNL     1      -1.952  10.205  17.427  0.00  0.00    +0.000 C 
ATOM     27  C   UNL     1      -2.488  10.375  15.990  0.00  0.00    +0.000 C 
ATOM     28  O   UNL     1      -3.915  10.499  15.943  0.00  0.00    +0.000 OA
ATOM     29  C   UNL     1      -4.355  11.558  16.797  0.00  0.00    +0.000 C 
ATOM     30  C   UNL     1      -3.938  11.275  18.248  0.00  0.00    +0.000 C 
ENDBRANCH  24  25
ENDBRANCH  23  24
ENDBRANCH  22  23
ENDBRANCH  20  22
ENDBRANCH  16  18
ENDBRANCH   1  16
TORSDOF 7
ENDMDL
MODEL 9
REMARK VINA RESULT:      -7.0      2.862      5.249
REMARK  Name = 
REMARK  11 active torsions:
REMARK  status: ('A' for Active; 'I' for Inactive)
REMARK    1  A    between atoms: C_1  and  C_2
REMARK    2  A    between atoms: C_3  and  C_4
REMARK    3  A    between atoms: C_8  and  O_9
REMARK    4  A    between atoms: O_9  and  C_10
REMARK    5  A    between atoms: C_10  and  C_11
REMARK    6  A    between atoms: C_10  and  C_12
REMARK    7  A    between atoms: N_14  and  C_15
REMARK    8  A    between atoms: C_15  and  C_16
REMARK    9  A    between atoms: C_16  and  C_17
REMARK   10  A    between atoms: C_17  and  N_18
REMARK   11  A    between atoms: C_24  and  C_25
REMARK                            x       y       z     vdW  Elec       q    Type
REMARK                         _______ _______ _______ _____ _____    ______ ____
ROOT
ATOM      1  O   UNL     1      -0.307   9.641  18.601  0.00  0.00    +0.000 OA
ENDROOT
BRANCH   1   9
ATOM      2  C   UNL     1      -6.887  13.920  19.624  0.00  0.00    +0.000 C 
ATOM      3  C   UNL     1      -5.616  13.157  19.355  0.00  0.00    +0.000 A 
ATOM      4  C   UNL     1      -4.479  13.225  20.082  0.00  0.00    +0.000 A 
ATOM      5  C   UNL     1      -4.285  14.121  21.280  0.00  0.00    +0.000 C 
ATOM      6  C   UNL     1      -3.342  12.353  19.709  0.00  0.00    +0.000 A 
ATOM      7  C   UNL     1      -2.162  12.276  20.453  0.00  0.00    +0.000 A 
ATOM      8  C   UNL     1      -1.138  11.386  20.105  0.00  0.00    +0.000 A 
ATOM      9  C   UNL     1      -1.248  10.562  18.984  0.00  0.00    +0.000 A 
ATOM     10  C   UNL     1      -2.399  10.659  18.185  0.00  0.00    +0.000 A 
ATOM     11  C   UNL     1      -2.566   9.852  16.928  0.00  0.00    +0.000 C 
ATOM     12  C   UNL     1      -3.428  11.534  18.585  0.00  0.00    +0.000 A 
ATOM     13  O   UNL     1      -4.603  11.546  17.804  0.00  0.00    +0.000 OA
ATOM     14  C   UNL     1      -5.723  12.274  18.159  0.00  0.00    +0.000 A 
ATOM     15  O   UNL     1      -6.756  12.204  17.501  0.00  0.00    +0.000 OA
ENDBRANCH   1   9
BRANCH   1  16
ATOM     16  C   UNL     1       0.965   9.606  19.259  0.00  0.00    +0.000 C 
ATOM     17  C   UNL     1       0.937   8.643  20.444  0.00  0.00    +0.000 C 
BRANCH  16  18
ATOM     18  C   UNL     1       2.045   9.158  18.257  0.00  0.00    +0.000 C 
ATOM     19  O   UNL     1       2.340   9.799  17.252  0.00  0.00    +0.000 OA
ATOM     20  N   UNL     1       2.570   7.913  18.532  0.00  0.00    +0.000 N 
ATOM     21  H   UNL     1       2.444   7.581  19.484  0.00  0.00    +0.000 HD
BRANCH  20  22
ATOM     22  C   UNL     1       3.586   7.318  17.689  0.00  0.00    +0.000 C 
BRANCH  22  23
ATOM     23  C   UNL     1       3.523   5.789  17.678  0.00  0.00    +0.000 C 
BRANCH  23  24
ATOM     24  C   UNL     1       3.353   5.236  19.100  0.00  0.00    +0.000 C 
BRANCH  24  25
ATOM     25  N   UNL     1       1.959   5.002  19.499  0.00  0.00    +0.000 NA
ATOM     26  C   UNL     1       1.754   4.835  20.955  0.00  0.00    +0.000 C 
ATOM     27  C   UNL     1       2.135   3.456  21.535  0.00  0.00    +0.000 C 
ATOM     28  O   UNL     1       1.591   2.368  20.778  0.00  0.00    +0.000 OA
ATOM     29  C   UNL     1       1.961   2.481  19.401  0.00  0.00    +0.000 C 
ATOM     30  C   UNL     1       1.427   3.797  18.816  0.00  0.00    +0.000 C 
ENDBRANCH  24  25
ENDBRANCH  23  24
ENDBRANCH  22  23
ENDBRANCH  20  22
ENDBRANCH  16  18
ENDBRANCH   1  16
TORSDOF 7
ENDMDL
