MODEL 1
REMARK VINA RESULT:      -7.0      0.000      0.000
REMARK  Name = 
REMARK  5 active torsions:
REMARK  status: ('A' for Active; 'I' for Inactive)
REMARK    1  A    between atoms: C_1  and  C_2
REMARK    2  A    between atoms: C_4  and  C_5
REMARK    3  A    between atoms: N_10  and  C_11
REMARK    4  A    between atoms: C_11  and  C_12
REMARK    5  A    between atoms: C_20  and  C_21
REMARK                            x       y       z     vdW  Elec       q    Type
REMARK                         _______ _______ _______ _____ _____    ______ ____
ROOT
ATOM      1  C   UNL     1       7.117   5.967  16.338  0.00  0.00    +0.000 C 
ATOM      2  O   UNL     1       7.682   5.783  15.253  0.00  0.00    +0.000 OA
ATOM      3  N   UNL     1       5.947   5.271  16.675  0.00  0.00    +0.000 N 
ATOM      4  C   UNL     1       5.127   5.538  17.863  0.00  0.00    +0.000 C 
ATOM      5  C   UNL     1       3.633   5.215  17.694  0.00  0.00    +0.000 C 
ATOM      6  N   UNL     1       3.354   3.898  17.094  0.00  0.00    +0.000 NA
ATOM      7  C   UNL     1       4.121   3.809  15.828  0.00  0.00    +0.000 C 
ATOM      8  C   UNL     1       5.639   4.018  15.982  0.00  0.00    +0.000 C 
ENDROOT
BRANCH   1  12
ATOM      9  C   UNL     1       8.807  10.130  18.773  0.00  0.00    +0.000 C 
ATOM     10  C   UNL     1       8.392   8.781  18.355  0.00  0.00    +0.000 A 
ATOM     11  C   UNL     1       7.786   8.328  17.215  0.00  0.00    +0.000 A 
ATOM     12  C   UNL     1       7.665   6.909  17.315  0.00  0.00    +0.000 A 
ATOM     13  C   UNL     1       8.105   6.619  18.603  0.00  0.00    +0.000 A 
ATOM     14  C   UNL     1       8.163   5.396  19.434  0.00  0.00    +0.000 C 
ATOM     15  O   UNL     1       8.578   7.749  19.216  0.00  0.00    +0.000 OA
ENDBRANCH   1  12
BRANCH   6  16
ATOM     16  C   UNL     1       3.667   2.823  18.053  0.00  0.00    +0.000 C 
BRANCH  16  17
ATOM     17  C   UNL     1       2.794   2.808  19.286  0.00  0.00    +0.000 A 
ATOM     18  C   UNL     1       3.370   2.702  20.561  0.00  0.00    +0.000 A 
ATOM     19  C   UNL     1       2.571   2.725  21.703  0.00  0.00    +0.000 A 
ATOM     20  C   UNL     1       1.189   2.861  21.583  0.00  0.00    +0.000 A 
ATOM     21  C   UNL     1       0.605   2.965  20.323  0.00  0.00    +0.000 A 
ATOM     22  C   UNL     1       1.401   2.937  19.179  0.00  0.00    +0.000 A 
ENDBRANCH  16  17
ENDBRANCH   6  16
TORSDOF 3
ENDMDL
MODEL 2
REMARK VINA RESULT:      -7.0      4.160      5.329
REMARK  Name = 
REMARK  5 active torsions:
REMARK  status: ('A' for Active; 'I' for Inactive)
REMARK    1  A    between atoms: C_1  and  C_2
REMARK    2  A    between atoms: C_4  and  C_5
REMARK    3  A    between atoms: N_10  and  C_11
REMARK    4  A    between atoms: C_11  and  C_12
REMARK    5  A    between atoms: C_20  and  C_21
REMARK                            x       y       z     vdW  Elec       q    Type
REMARK                         _______ _______ _______ _____ _____    ______ ____
ROOT
ATOM      1  C   UNL     1       4.877   4.063  18.703  0.00  0.00    +0.000 C 
ATOM      2  O   UNL     1       5.009   2.990  19.304  0.00  0.00    +0.000 OA
ATOM      3  N   UNL     1       3.866   4.971  19.049  0.00  0.00    +0.000 N 
ATOM      4  C   UNL     1       3.539   6.186  18.294  0.00  0.00    +0.000 C 
ATOM      5  C   UNL     1       2.066   6.620  18.390  0.00  0.00    +0.000 C 
ATOM      6  N   UNL     1       1.520   6.635  19.759  0.00  0.00    +0.000 NA
ATOM      7  C   UNL     1       1.780   5.306  20.362  0.00  0.00    +0.000 C 
ATOM      8  C   UNL     1       3.262   4.890  20.381  0.00  0.00    +0.000 C 
ENDROOT
BRANCH   1  12
ATOM      9  C   UNL     1       7.139   4.725  14.168  0.00  0.00    +0.000 C 
ATOM     10  C   UNL     1       6.745   4.704  15.586  0.00  0.00    +0.000 A 
ATOM     11  C   UNL     1       5.618   4.247  16.211  0.00  0.00    +0.000 A 
ATOM     12  C   UNL     1       5.788   4.427  17.616  0.00  0.00    +0.000 A 
ATOM     13  C   UNL     1       6.991   5.117  17.728  0.00  0.00    +0.000 A 
ATOM     14  C   UNL     1       7.743   5.729  18.847  0.00  0.00    +0.000 C 
ATOM     15  O   UNL     1       7.585   5.251  16.501  0.00  0.00    +0.000 OA
ENDBRANCH   1  12
BRANCH   6  16
ATOM     16  C   UNL     1       2.091   7.757  20.527  0.00  0.00    +0.000 C 
BRANCH  16  17
ATOM     17  C   UNL     1       1.087   8.801  20.955  0.00  0.00    +0.000 A 
ATOM     18  C   UNL     1       0.723   8.922  22.305  0.00  0.00    +0.000 A 
ATOM     19  C   UNL     1      -0.175   9.908  22.710  0.00  0.00    +0.000 A 
ATOM     20  C   UNL     1      -0.714  10.787  21.772  0.00  0.00    +0.000 A 
ATOM     21  C   UNL     1      -0.361  10.675  20.429  0.00  0.00    +0.000 A 
ATOM     22  C   UNL     1       0.533   9.687  20.020  0.00  0.00    +0.000 A 
ENDBRANCH  16  17
ENDBRANCH   6  16
TORSDOF 3
ENDMDL
MODEL 3
REMARK VINA RESULT:      -7.0      0.065      1.031
REMARK  Name = 
REMARK  5 active torsions:
REMARK  status: ('A' for Active; 'I' for Inactive)
REMARK    1  A    between atoms: C_1  and  C_2
REMARK    2  A    between atoms: C_4  and  C_5
REMARK    3  A    between atoms: N_10  and  C_11
REMARK    4  A    between atoms: C_11  and  C_12
REMARK    5  A    between atoms: C_20  and  C_21
REMARK                            x       y       z     vdW  Elec       q    Type
REMARK                         _______ _______ _______ _____ _____    ______ ____
ROOT
ATOM      1  C   UNL     1       7.122   5.891  16.331  0.00  0.00    +0.000 C 
ATOM      2  O   UNL     1       7.703   5.681  15.259  0.00  0.00    +0.000 OA
ATOM      3  N   UNL     1       5.944   5.207  16.665  0.00  0.00    +0.000 N 
ATOM      4  C   UNL     1       5.108   5.504  17.834  0.00  0.00    +0.000 C 
ATOM      5  C   UNL     1       3.615   5.181  17.650  0.00  0.00    +0.000 C 
ATOM      6  N   UNL     1       3.342   3.851  17.076  0.00  0.00    +0.000 NA
ATOM      7  C   UNL     1       4.127   3.731  15.824  0.00  0.00    +0.000 C 
ATOM      8  C   UNL     1       5.643   3.939  15.996  0.00  0.00    +0.000 C 
ENDROOT
BRANCH   1  12
ATOM      9  C   UNL     1       8.774  10.106  18.702  0.00  0.00    +0.000 C 
ATOM     10  C   UNL     1       8.368   8.748  18.305  0.00  0.00    +0.000 A 
ATOM     11  C   UNL     1       7.774   8.271  17.169  0.00  0.00    +0.000 A 
ATOM     12  C   UNL     1       7.658   6.854  17.294  0.00  0.00    +0.000 A 
ATOM     13  C   UNL     1       8.090   6.590  18.590  0.00  0.00    +0.000 A 
ATOM     14  C   UNL     1       8.148   5.382  19.444  0.00  0.00    +0.000 C 
ATOM     15  O   UNL     1       8.553   7.733  19.186  0.00  0.00    +0.000 OA
ENDBRANCH   1  12
BRANCH   6  16
ATOM     16  C   UNL     1       3.636   2.797  18.064  0.00  0.00    +0.000 C 
BRANCH  16  17
ATOM     17  C   UNL     1       2.784   2.850  19.311  0.00  0.00    +0.000 A 
ATOM     18  C   UNL     1       1.396   3.035  19.213  0.00  0.00    +0.000 A 
ATOM     19  C   UNL     1       0.602   3.048  20.358  0.00  0.00    +0.000 A 
ATOM     20  C   UNL     1       1.184   2.869  21.612  0.00  0.00    +0.000 A 
ATOM     21  C   UNL     1       2.561   2.686  21.721  0.00  0.00    +0.000 A 
ATOM     22  C   UNL     1       3.359   2.678  20.578  0.00  0.00    +0.000 A 
ENDBRANCH  16  17
ENDBRANCH   6  16
TORSDOF 3
ENDMDL
MODEL 4
REMARK VINA RESULT:      -7.0      3.928      5.329
REMARK  Name = 
REMARK  5 active torsions:
REMARK  status: ('A' for Active; 'I' for Inactive)
REMARK    1  A    between atoms: C_1  and  C_2
REMARK    2  A    between atoms: C_4  and  C_5
REMARK    3  A    between atoms: N_10  and  C_11
REMARK    4  A    between atoms: C_11  and  C_12
REMARK    5  A    between atoms: C_20  and  C_21
REMARK                            x       y       z     vdW  Elec       q    Type
REMARK                         _______ _______ _______ _____ _____    ______ ____
ROOT
ATOM      1  C   UNL     1       5.328   4.412  18.214  0.00  0.00    +0.000 C 
ATOM      2  O   UNL     1       5.745   3.544  18.990  0.00  0.00    +0.000 OA
ATOM      3  N   UNL     1       4.236   5.224  18.552  0.00  0.00    +0.000 N 
ATOM      4  C   UNL     1       3.579   6.165  17.637  0.00  0.00    +0.000 C 
ATOM      5  C   UNL     1       2.086   6.398  17.923  0.00  0.00    +0.000 C 
ATOM      6  N   UNL     1       1.767   6.662  19.338  0.00  0.00    +0.000 NA
ATOM      7  C   UNL     1       2.355   5.566  20.144  0.00  0.00    +0.000 C 
ATOM      8  C   UNL     1       3.873   5.380  19.962  0.00  0.00    +0.000 C 
ENDROOT
BRANCH   1  12
ATOM      9  C   UNL     1       6.872   4.113  13.351  0.00  0.00    +0.000 C 
ATOM     10  C   UNL     1       6.621   4.463  14.759  0.00  0.00    +0.000 A 
ATOM     11  C   UNL     1       5.764   3.941  15.688  0.00  0.00    +0.000 A 
ATOM     12  C   UNL     1       5.977   4.630  16.920  0.00  0.00    +0.000 A 
ATOM     13  C   UNL     1       6.885   5.633  16.597  0.00  0.00    +0.000 A 
ATOM     14  C   UNL     1       7.477   6.778  17.325  0.00  0.00    +0.000 C 
ATOM     15  O   UNL     1       7.301   5.506  15.298  0.00  0.00    +0.000 OA
ENDBRANCH   1  12
BRANCH   6  16
ATOM     16  C   UNL     1       2.239   8.003  19.727  0.00  0.00    +0.000 C 
BRANCH  16  17
ATOM     17  C   UNL     1       1.242   8.814  20.522  0.00  0.00    +0.000 A 
ATOM     18  C   UNL     1       0.425   9.758  19.882  0.00  0.00    +0.000 A 
ATOM     19  C   UNL     1      -0.521  10.481  20.606  0.00  0.00    +0.000 A 
ATOM     20  C   UNL     1      -0.666  10.264  21.975  0.00  0.00    +0.000 A 
ATOM     21  C   UNL     1       0.141   9.330  22.622  0.00  0.00    +0.000 A 
ATOM     22  C   UNL     1       1.092   8.610  21.901  0.00  0.00    +0.000 A 
ENDBRANCH  16  17
ENDBRANCH   6  16
TORSDOF 3
ENDMDL
MODEL 5
REMARK VINA RESULT:      -6.8      2.866      5.152
REMARK  Name = 
REMARK  5 active torsions:
REMARK  status: ('A' for Active; 'I' for Inactive)
REMARK    1  A    between atoms: C_1  and  C_2
REMARK    2  A    between atoms: C_4  and  C_5
REMARK    3  A    between atoms: N_10  and  C_11
REMARK    4  A    between atoms: C_11  and  C_12
REMARK    5  A    between atoms: C_20  and  C_21
REMARK                            x       y       z     vdW  Elec       q    Type
REMARK                         _______ _______ _______ _____ _____    ______ ____
ROOT
ATOM      1  C   UNL     1       6.711   5.312  15.461  0.00  0.00    +0.000 C 
ATOM      2  O   UNL     1       7.614   6.112  15.736  0.00  0.00    +0.000 OA
ATOM      3  N   UNL     1       5.684   5.034  16.374  0.00  0.00    +0.000 N 
ATOM      4  C   UNL     1       4.668   3.990  16.197  0.00  0.00    +0.000 C 
ATOM      5  C   UNL     1       4.129   3.393  17.508  0.00  0.00    +0.000 C 
ATOM      6  N   UNL     1       3.750   4.391  18.525  0.00  0.00    +0.000 NA
ATOM      7  C   UNL     1       4.908   5.294  18.723  0.00  0.00    +0.000 C 
ATOM      8  C   UNL     1       5.402   5.994  17.443  0.00  0.00    +0.000 C 
ENDROOT
BRANCH   1  12
ATOM      9  C   UNL     1       5.625   2.276  11.496  0.00  0.00    +0.000 C 
ATOM     10  C   UNL     1       6.156   3.282  12.431  0.00  0.00    +0.000 A 
ATOM     11  C   UNL     1       5.776   3.639  13.696  0.00  0.00    +0.000 A 
ATOM     12  C   UNL     1       6.680   4.640  14.161  0.00  0.00    +0.000 A 
ATOM     13  C   UNL     1       7.485   4.911  13.059  0.00  0.00    +0.000 A 
ATOM     14  C   UNL     1       8.553   5.893  12.764  0.00  0.00    +0.000 C 
ATOM     15  O   UNL     1       7.189   4.062  12.026  0.00  0.00    +0.000 OA
ENDBRANCH   1  12
BRANCH   6  16
ATOM     16  C   UNL     1       2.515   5.089  18.121  0.00  0.00    +0.000 C 
BRANCH  16  17
ATOM     17  C   UNL     1       2.179   6.303  18.955  0.00  0.00    +0.000 A 
ATOM     18  C   UNL     1       2.167   7.581  18.375  0.00  0.00    +0.000 A 
ATOM     19  C   UNL     1       1.821   8.699  19.132  0.00  0.00    +0.000 A 
ATOM     20  C   UNL     1       1.478   8.551  20.475  0.00  0.00    +0.000 A 
ATOM     21  C   UNL     1       1.489   7.288  21.063  0.00  0.00    +0.000 A 
ATOM     22  C   UNL     1       1.840   6.169  20.309  0.00  0.00    +0.000 A 
ENDBRANCH  16  17
ENDBRANCH   6  16
TORSDOF 3
ENDMDL
MODEL 6
REMARK VINA RESULT:      -6.7      2.842      5.071
REMARK  Name = 
REMARK  5 active torsions:
REMARK  status: ('A' for Active; 'I' for Inactive)
REMARK    1  A    between atoms: C_1  and  C_2
REMARK    2  A    between atoms: C_4  and  C_5
REMARK    3  A    between atoms: N_10  and  C_11
REMARK    4  A    between atoms: C_11  and  C_12
REMARK    5  A    between atoms: C_20  and  C_21
REMARK                            x       y       z     vdW  Elec       q    Type
REMARK                         _______ _______ _______ _____ _____    ______ ____
ROOT
ATOM      1  C   UNL     1       6.712   5.301  15.455  0.00  0.00    +0.000 C 
ATOM      2  O   UNL     1       7.606   6.111  15.730  0.00  0.00    +0.000 OA
ATOM      3  N   UNL     1       5.690   5.008  16.370  0.00  0.00    +0.000 N 
ATOM      4  C   UNL     1       4.686   3.953  16.192  0.00  0.00    +0.000 C 
ATOM      5  C   UNL     1       4.158   3.346  17.503  0.00  0.00    +0.000 C 
ATOM      6  N   UNL     1       3.770   4.336  18.524  0.00  0.00    +0.000 NA
ATOM      7  C   UNL     1       4.918   5.251  18.722  0.00  0.00    +0.000 C 
ATOM      8  C   UNL     1       5.400   5.961  17.443  0.00  0.00    +0.000 C 
ENDROOT
BRANCH   1  12
ATOM      9  C   UNL     1       5.647   2.268  11.482  0.00  0.00    +0.000 C 
ATOM     10  C   UNL     1       6.170   3.275  12.420  0.00  0.00    +0.000 A 
ATOM     11  C   UNL     1       5.789   3.625  13.686  0.00  0.00    +0.000 A 
ATOM     12  C   UNL     1       6.684   4.633  14.153  0.00  0.00    +0.000 A 
ATOM     13  C   UNL     1       7.485   4.915  13.050  0.00  0.00    +0.000 A 
ATOM     14  C   UNL     1       8.544   5.907  12.757  0.00  0.00    +0.000 C 
ATOM     15  O   UNL     1       7.195   4.066  12.015  0.00  0.00    +0.000 OA
ENDBRANCH   1  12
BRANCH   6  16
ATOM     16  C   UNL     1       2.526   5.021  18.126  0.00  0.00    +0.000 C 
BRANCH  16  17
ATOM     17  C   UNL     1       2.143   6.188  19.006  0.00  0.00    +0.000 A 
ATOM     18  C   UNL     1       1.792   5.978  20.348  0.00  0.00    +0.000 A 
ATOM     19  C   UNL     1       1.473   7.055  21.173  0.00  0.00    +0.000 A 
ATOM     20  C   UNL     1       1.507   8.354  20.667  0.00  0.00    +0.000 A 
ATOM     21  C   UNL     1       1.853   8.574  19.335  0.00  0.00    +0.000 A 
ATOM     22  C   UNL     1       2.166   7.498  18.507  0.00  0.00    +0.000 A 
ENDBRANCH  16  17
ENDBRANCH   6  16
TORSDOF 3
ENDMDL
MODEL 7
REMARK VINA RESULT:      -6.7      3.251      5.409
REMARK  Name = 
REMARK  5 active torsions:
REMARK  status: ('A' for Active; 'I' for Inactive)
REMARK    1  A    between atoms: C_1  and  C_2
REMARK    2  A    between atoms: C_4  and  C_5
REMARK    3  A    between atoms: N_10  and  C_11
REMARK    4  A    between atoms: C_11  and  C_12
REMARK    5  A    between atoms: C_20  and  C_21
REMARK                            x       y       z     vdW  Elec       q    Type
REMARK                         _______ _______ _______ _____ _____    ______ ____
ROOT
ATOM      1  C   UNL     1       6.868   4.663  15.859  0.00  0.00    +0.000 C 
ATOM      2  O   UNL     1       8.004   4.591  16.343  0.00  0.00    +0.000 OA
ATOM      3  N   UNL     1       5.780   5.110  16.623  0.00  0.00    +0.000 N 
ATOM      4  C   UNL     1       4.381   5.079  16.183  0.00  0.00    +0.000 C 
ATOM      5  C   UNL     1       3.356   4.930  17.321  0.00  0.00    +0.000 C 
ATOM      6  N   UNL     1       3.574   5.834  18.465  0.00  0.00    +0.000 NA
ATOM      7  C   UNL     1       4.977   5.663  18.912  0.00  0.00    +0.000 C 
ATOM      8  C   UNL     1       6.033   5.915  17.820  0.00  0.00    +0.000 C 
ENDROOT
BRANCH   1  12
ATOM      9  C   UNL     1       5.083   2.629  11.523  0.00  0.00    +0.000 C 
ATOM     10  C   UNL     1       5.796   3.380  12.570  0.00  0.00    +0.000 A 
ATOM     11  C   UNL     1       5.604   3.462  13.922  0.00  0.00    +0.000 A 
ATOM     12  C   UNL     1       6.627   4.299  14.462  0.00  0.00    +0.000 A 
ATOM     13  C   UNL     1       7.304   4.775  13.343  0.00  0.00    +0.000 A 
ATOM     14  C   UNL     1       8.392   5.754  13.121  0.00  0.00    +0.000 C 
ATOM     15  O   UNL     1       6.822   4.189  12.203  0.00  0.00    +0.000 OA
ENDBRANCH   1  12
BRANCH   6  16
ATOM     16  C   UNL     1       3.235   7.220  18.094  0.00  0.00    +0.000 C 
BRANCH  16  17
ATOM     17  C   UNL     1       2.235   7.888  19.009  0.00  0.00    +0.000 A 
ATOM     18  C   UNL     1       1.971   7.354  20.280  0.00  0.00    +0.000 A 
ATOM     19  C   UNL     1       1.078   7.987  21.142  0.00  0.00    +0.000 A 
ATOM     20  C   UNL     1       0.444   9.164  20.746  0.00  0.00    +0.000 A 
ATOM     21  C   UNL     1       0.697   9.702  19.486  0.00  0.00    +0.000 A 
ATOM     22  C   UNL     1       1.586   9.067  18.620  0.00  0.00    +0.000 A 
ENDBRANCH  16  17
ENDBRANCH   6  16
TORSDOF 3
ENDMDL
MODEL 8
REMARK VINA RESULT:      -6.7      3.223      5.423
REMARK  Name = 
REMARK  5 active torsions:
REMARK  status: ('A' for Active; 'I' for Inactive)
REMARK    1  A    between atoms: C_1  and  C_2
REMARK    2  A    between atoms: C_4  and  C_5
REMARK    3  A    between atoms: N_10  and  C_11
REMARK    4  A    between atoms: C_11  and  C_12
REMARK    5  A    between atoms: C_20  and  C_21
REMARK                            x       y       z     vdW  Elec       q    Type
REMARK                         _______ _______ _______ _____ _____    ______ ____
ROOT
ATOM      1  C   UNL     1       6.863   4.649  15.864  0.00  0.00    +0.000 C 
ATOM      2  O   UNL     1       8.004   4.591  16.340  0.00  0.00    +0.000 OA
ATOM      3  N   UNL     1       5.774   5.072  16.638  0.00  0.00    +0.000 N 
ATOM      4  C   UNL     1       4.372   5.022  16.206  0.00  0.00    +0.000 C 
ATOM      5  C   UNL     1       3.357   4.847  17.350  0.00  0.00    +0.000 C 
ATOM      6  N   UNL     1       3.568   5.746  18.499  0.00  0.00    +0.000 NA
ATOM      7  C   UNL     1       4.976   5.594  18.936  0.00  0.00    +0.000 C 
ATOM      8  C   UNL     1       6.021   5.872  17.840  0.00  0.00    +0.000 C 
ENDROOT
BRANCH   1  12
ATOM      9  C   UNL     1       5.062   2.645  11.522  0.00  0.00    +0.000 C 
ATOM     10  C   UNL     1       5.781   3.386  12.571  0.00  0.00    +0.000 A 
ATOM     11  C   UNL     1       5.590   3.465  13.923  0.00  0.00    +0.000 A 
ATOM     12  C   UNL     1       6.619   4.291  14.466  0.00  0.00    +0.000 A 
ATOM     13  C   UNL     1       7.301   4.765  13.349  0.00  0.00    +0.000 A 
ATOM     14  C   UNL     1       8.397   5.736  13.130  0.00  0.00    +0.000 C 
ATOM     15  O   UNL     1       6.814   4.187  12.207  0.00  0.00    +0.000 OA
ENDBRANCH   1  12
BRANCH   6  16
ATOM     16  C   UNL     1       3.203   7.129  18.141  0.00  0.00    +0.000 C 
BRANCH  16  17
ATOM     17  C   UNL     1       2.261   7.801  19.112  0.00  0.00    +0.000 A 
ATOM     18  C   UNL     1       1.644   9.016  18.775  0.00  0.00    +0.000 A 
ATOM     19  C   UNL     1       0.746   9.621  19.651  0.00  0.00    +0.000 A 
ATOM     20  C   UNL     1       0.449   9.016  20.872  0.00  0.00    +0.000 A 
ATOM     21  C   UNL     1       1.057   7.811  21.219  0.00  0.00    +0.000 A 
ATOM     22  C   UNL     1       1.960   7.206  20.345  0.00  0.00    +0.000 A 
ENDBRANCH  16  17
ENDBRANCH   6  16
TORSDOF 3
ENDMDL
MODEL 9
REMARK VINA RESULT:      -6.4      2.895      5.493
REMARK  Name = 
REMARK  5 active torsions:
REMARK  status: ('A' for Active; 'I' for Inactive)
REMARK    1  A    between atoms: C_1  and  C_2
REMARK    2  A    between atoms: C_4  and  C_5
REMARK    3  A    between atoms: N_10  and  C_11
REMARK    4  A    between atoms: C_11  and  C_12
REMARK    5  A    between atoms: C_20  and  C_21
REMARK                            x       y       z     vdW  Elec       q    Type
REMARK                         _______ _______ _______ _____ _____    ______ ____
ROOT
ATOM      1  C   UNL     1       6.790   4.570  13.823  0.00  0.00    +0.000 C 
ATOM      2  O   UNL     1       7.848   5.145  13.536  0.00  0.00    +0.000 OA
ATOM      3  N   UNL     1       6.296   4.572  15.135  0.00  0.00    +0.000 N 
ATOM      4  C   UNL     1       5.141   3.790  15.595  0.00  0.00    +0.000 C 
ATOM      5  C   UNL     1       5.196   3.381  17.076  0.00  0.00    +0.000 C 
ATOM      6  N   UNL     1       5.549   4.473  18.001  0.00  0.00    +0.000 NA
ATOM      7  C   UNL     1       6.809   5.085  17.515  0.00  0.00    +0.000 C 
ATOM      8  C   UNL     1       6.751   5.606  16.067  0.00  0.00    +0.000 C 
ENDROOT
BRANCH   1  12
ATOM      9  C   UNL     1       3.099   2.945  10.685  0.00  0.00    +0.000 C 
ATOM     10  C   UNL     1       4.348   3.203  11.420  0.00  0.00    +0.000 A 
ATOM     11  C   UNL     1       4.661   4.111  12.393  0.00  0.00    +0.000 A 
ATOM     12  C   UNL     1       6.011   3.882  12.793  0.00  0.00    +0.000 A 
ATOM     13  C   UNL     1       6.466   2.905  11.912  0.00  0.00    +0.000 A 
ATOM     14  C   UNL     1       7.773   2.258  11.657  0.00  0.00    +0.000 C 
ATOM     15  O   UNL     1       5.447   2.470  11.107  0.00  0.00    +0.000 OA
ENDBRANCH   1  12
BRANCH   6  16
ATOM     16  C   UNL     1       4.432   5.428  18.116  0.00  0.00    +0.000 C 
BRANCH  16  17
ATOM     17  C   UNL     1       3.205   4.879  18.807  0.00  0.00    +0.000 A 
ATOM     18  C   UNL     1       2.186   4.268  18.061  0.00  0.00    +0.000 A 
ATOM     19  C   UNL     1       1.070   3.727  18.697  0.00  0.00    +0.000 A 
ATOM     20  C   UNL     1       0.964   3.786  20.086  0.00  0.00    +0.000 A 
ATOM     21  C   UNL     1       1.969   4.392  20.837  0.00  0.00    +0.000 A 
ATOM     22  C   UNL     1       3.083   4.938  20.203  0.00  0.00    +0.000 A 
ENDBRANCH  16  17
ENDBRANCH   6  16
TORSDOF 3
ENDMDL
