MODEL 1
REMARK VINA RESULT:      -6.8      0.000      0.000
REMARK  Name = 
REMARK  5 active torsions:
REMARK  status: ('A' for Active; 'I' for Inactive)
REMARK    1  A    between atoms: C_2  and  O_3
REMARK    2  A    between atoms: C_2  and  C_4
REMARK    3  A    between atoms: C_8  and  C_9
REMARK    4  A    between atoms: C_9  and  O_11
REMARK    5  A    between atoms: C_14  and  O_15
REMARK                            x       y       z     vdW  Elec       q    Type
REMARK                         _______ _______ _______ _____ _____    ______ ____
ROOT
ATOM      1  C   UNL     1       3.688   2.659  19.870  0.00  0.00    +0.000 C 
ATOM      2  C   UNL     1       2.496   2.133  19.067  0.00  0.00    +0.000 C 
ATOM      3  C   UNL     1       1.427   3.216  18.815  0.00  0.00    +0.000 C 
ATOM      4  C   UNL     1       2.045   4.282  17.920  0.00  0.00    +0.000 C 
ATOM      5  C   UNL     1       3.284   4.901  18.618  0.00  0.00    +0.000 C 
ATOM      6  C   UNL     1       2.746   5.587  19.880  0.00  0.00    +0.000 C 
ATOM      7  C   UNL     1       1.676   5.095  20.547  0.00  0.00    +0.000 C 
ATOM      8  C   UNL     1       0.851   3.914  20.069  0.00  0.00    +0.000 C 
ATOM      9  C   UNL     1       4.317   3.860  19.139  0.00  0.00    +0.000 C 
ENDROOT
BRANCH   1  11
ATOM     10  O   UNL     1       5.413   1.517  21.151  0.00  0.00    +0.000 OA
ATOM     11  C   UNL     1       4.715   1.574  20.151  0.00  0.00    +0.000 C 
BRANCH  11  12
ATOM     12  O   UNL     1       4.729   0.598  19.214  0.00  0.00    +0.000 OA
ATOM     13  H   UNL     1       3.889   0.115  19.101  0.00  0.00    +0.000 HD
ENDBRANCH  11  12
ENDBRANCH   1  11
BRANCH   5  14
ATOM     14  C   UNL     1       3.999   5.675  17.478  0.00  0.00    +0.000 C 
ATOM     15  O   UNL     1       3.965   6.898  17.387  0.00  0.00    +0.000 OA
BRANCH  14  16
ATOM     16  O   UNL     1       4.633   4.945  16.538  0.00  0.00    +0.000 OA
ATOM     17  H   UNL     1       4.738   5.378  15.679  0.00  0.00    +0.000 HD
ENDBRANCH  14  16
ENDBRANCH   5  14
BRANCH   8  18
ATOM     18  O   UNL     1       0.658   2.964  21.108  0.00  0.00    +0.000 OA
ATOM     19  H   UNL     1       0.715   3.415  21.963  0.00  0.00    +0.000 HD
ENDBRANCH   8  18
TORSDOF 5
ENDMDL
MODEL 2
REMARK VINA RESULT:      -6.7      2.941      5.169
REMARK  Name = 
REMARK  5 active torsions:
REMARK  status: ('A' for Active; 'I' for Inactive)
REMARK    1  A    between atoms: C_2  and  O_3
REMARK    2  A    between atoms: C_2  and  C_4
REMARK    3  A    between atoms: C_8  and  C_9
REMARK    4  A    between atoms: C_9  and  O_11
REMARK    5  A    between atoms: C_14  and  O_15
REMARK                            x       y       z     vdW  Elec       q    Type
REMARK                         _______ _______ _______ _____ _____    ______ ____
ROOT
ATOM      1  C   UNL     1       6.789   5.650  18.378  0.00  0.00    +0.000 C 
ATOM      2  C   UNL     1       6.569   6.868  17.478  0.00  0.00    +0.000 C 
ATOM      3  C   UNL     1       5.543   6.602  16.359  0.00  0.00    +0.000 C 
ATOM      4  C   UNL     1       4.188   6.366  17.015  0.00  0.00    +0.000 C 
ATOM      5  C   UNL     1       4.271   5.147  17.969  0.00  0.00    +0.000 C 
ATOM      6  C   UNL     1       4.588   3.942  17.074  0.00  0.00    +0.000 C 
ATOM      7  C   UNL     1       5.341   4.074  15.957  0.00  0.00    +0.000 C 
ATOM      8  C   UNL     1       5.843   5.405  15.427  0.00  0.00    +0.000 C 
ATOM      9  C   UNL     1       5.447   5.206  18.989  0.00  0.00    +0.000 C 
ENDROOT
BRANCH   1  11
ATOM     10  O   UNL     1       8.036   5.188  20.416  0.00  0.00    +0.000 OA
ATOM     11  C   UNL     1       7.834   5.908  19.450  0.00  0.00    +0.000 C 
BRANCH  11  12
ATOM     12  O   UNL     1       8.607   6.989  19.192  0.00  0.00    +0.000 OA
ATOM     13  H   UNL     1       8.852   7.522  19.971  0.00  0.00    +0.000 HD
ENDBRANCH  11  12
ENDBRANCH   1  11
BRANCH   5  14
ATOM     14  C   UNL     1       2.973   5.252  18.813  0.00  0.00    +0.000 C 
ATOM     15  O   UNL     1       1.883   4.867  18.401  0.00  0.00    +0.000 OA
BRANCH  14  16
ATOM     16  O   UNL     1       3.067   5.840  20.023  0.00  0.00    +0.000 OA
ATOM     17  H   UNL     1       3.942   5.806  20.433  0.00  0.00    +0.000 HD
ENDBRANCH  14  16
ENDBRANCH   5  14
BRANCH   8  18
ATOM     18  O   UNL     1       7.232   5.353  15.134  0.00  0.00    +0.000 OA
ATOM     19  H   UNL     1       7.350   5.111  14.204  0.00  0.00    +0.000 HD
ENDBRANCH   8  18
TORSDOF 5
ENDMDL
MODEL 3
REMARK VINA RESULT:      -6.7      3.264      4.520
REMARK  Name = 
REMARK  5 active torsions:
REMARK  status: ('A' for Active; 'I' for Inactive)
REMARK    1  A    between atoms: C_2  and  O_3
REMARK    2  A    between atoms: C_2  and  C_4
REMARK    3  A    between atoms: C_8  and  C_9
REMARK    4  A    between atoms: C_9  and  O_11
REMARK    5  A    between atoms: C_14  and  O_15
REMARK                            x       y       z     vdW  Elec       q    Type
REMARK                         _______ _______ _______ _____ _____    ______ ____
ROOT
ATOM      1  C   UNL     1       6.612   5.772  18.530  0.00  0.00    +0.000 C 
ATOM      2  C   UNL     1       5.746   4.547  18.837  0.00  0.00    +0.000 C 
ATOM      3  C   UNL     1       4.551   4.409  17.873  0.00  0.00    +0.000 C 
ATOM      4  C   UNL     1       5.105   4.141  16.479  0.00  0.00    +0.000 C 
ATOM      5  C   UNL     1       6.016   5.315  16.041  0.00  0.00    +0.000 C 
ATOM      6  C   UNL     1       5.100   6.544  15.965  0.00  0.00    +0.000 C 
ATOM      7  C   UNL     1       4.041   6.685  16.797  0.00  0.00    +0.000 C 
ATOM      8  C   UNL     1       3.597   5.623  17.787  0.00  0.00    +0.000 C 
ATOM      9  C   UNL     1       7.114   5.701  17.076  0.00  0.00    +0.000 C 
ENDROOT
BRANCH   1  11
ATOM     10  O   UNL     1       7.969   5.185  20.462  0.00  0.00    +0.000 OA
ATOM     11  C   UNL     1       7.761   5.924  19.512  0.00  0.00    +0.000 C 
BRANCH  11  12
ATOM     12  O   UNL     1       8.612   6.925  19.187  0.00  0.00    +0.000 OA
ATOM     13  H   UNL     1       9.525   6.647  18.984  0.00  0.00    +0.000 HD
ENDBRANCH  11  12
ENDBRANCH   1  11
BRANCH   5  14
ATOM     14  C   UNL     1       6.774   4.753  14.809  0.00  0.00    +0.000 C 
ATOM     15  O   UNL     1       7.677   5.368  14.250  0.00  0.00    +0.000 OA
BRANCH  14  16
ATOM     16  O   UNL     1       6.368   3.562  14.324  0.00  0.00    +0.000 OA
ATOM     17  H   UNL     1       6.482   2.810  14.923  0.00  0.00    +0.000 HD
ENDBRANCH  14  16
ENDBRANCH   5  14
BRANCH   8  18
ATOM     18  O   UNL     1       3.396   6.176  19.081  0.00  0.00    +0.000 OA
ATOM     19  H   UNL     1       2.938   5.527  19.634  0.00  0.00    +0.000 HD
ENDBRANCH   8  18
TORSDOF 5
ENDMDL
MODEL 4
REMARK VINA RESULT:      -6.7      2.065      3.049
REMARK  Name = 
REMARK  5 active torsions:
REMARK  status: ('A' for Active; 'I' for Inactive)
REMARK    1  A    between atoms: C_2  and  O_3
REMARK    2  A    between atoms: C_2  and  C_4
REMARK    3  A    between atoms: C_8  and  C_9
REMARK    4  A    between atoms: C_9  and  O_11
REMARK    5  A    between atoms: C_14  and  O_15
REMARK                            x       y       z     vdW  Elec       q    Type
REMARK                         _______ _______ _______ _____ _____    ______ ____
ROOT
ATOM      1  C   UNL     1       4.747   4.197  18.462  0.00  0.00    +0.000 C 
ATOM      2  C   UNL     1       3.903   3.982  17.203  0.00  0.00    +0.000 C 
ATOM      3  C   UNL     1       2.408   3.777  17.519  0.00  0.00    +0.000 C 
ATOM      4  C   UNL     1       1.876   5.073  18.116  0.00  0.00    +0.000 C 
ATOM      5  C   UNL     1       2.657   5.417  19.410  0.00  0.00    +0.000 C 
ATOM      6  C   UNL     1       2.353   4.277  20.390  0.00  0.00    +0.000 C 
ATOM      7  C   UNL     1       2.138   3.013  19.956  0.00  0.00    +0.000 C 
ATOM      8  C   UNL     1       2.067   2.623  18.490  0.00  0.00    +0.000 C 
ATOM      9  C   UNL     1       4.205   5.403  19.251  0.00  0.00    +0.000 C 
ENDROOT
BRANCH   1  11
ATOM     10  O   UNL     1       7.077   4.709  18.942  0.00  0.00    +0.000 OA
ATOM     11  C   UNL     1       6.225   4.354  18.143  0.00  0.00    +0.000 C 
BRANCH  11  12
ATOM     12  O   UNL     1       6.542   3.973  16.884  0.00  0.00    +0.000 OA
ATOM     13  H   UNL     1       6.002   4.373  16.178  0.00  0.00    +0.000 HD
ENDBRANCH  11  12
ENDBRANCH   1  11
BRANCH   5  14
ATOM     14  C   UNL     1       2.272   6.894  19.691  0.00  0.00    +0.000 C 
ATOM     15  O   UNL     1       2.356   7.773  18.839  0.00  0.00    +0.000 OA
BRANCH  14  16
ATOM     16  O   UNL     1       1.881   7.204  20.944  0.00  0.00    +0.000 OA
ATOM     17  H   UNL     1       2.428   7.861  21.398  0.00  0.00    +0.000 HD
ENDBRANCH  14  16
ENDBRANCH   5  14
BRANCH   8  18
ATOM     18  O   UNL     1       2.888   1.497  18.215  0.00  0.00    +0.000 OA
ATOM     19  H   UNL     1       2.891   0.912  18.986  0.00  0.00    +0.000 HD
ENDBRANCH   8  18
TORSDOF 5
ENDMDL
MODEL 5
REMARK VINA RESULT:      -6.6      2.050      3.506
REMARK  Name = 
REMARK  5 active torsions:
REMARK  status: ('A' for Active; 'I' for Inactive)
REMARK    1  A    between atoms: C_2  and  O_3
REMARK    2  A    between atoms: C_2  and  C_4
REMARK    3  A    between atoms: C_8  and  C_9
REMARK    4  A    between atoms: C_9  and  O_11
REMARK    5  A    between atoms: C_14  and  O_15
REMARK                            x       y       z     vdW  Elec       q    Type
REMARK                         _______ _______ _______ _____ _____    ______ ____
ROOT
ATOM      1  C   UNL     1       5.383   4.379  17.850  0.00  0.00    +0.000 C 
ATOM      2  C   UNL     1       4.460   3.917  16.720  0.00  0.00    +0.000 C 
ATOM      3  C   UNL     1       3.074   3.474  17.230  0.00  0.00    +0.000 C 
ATOM      4  C   UNL     1       2.377   4.697  17.812  0.00  0.00    +0.000 C 
ATOM      5  C   UNL     1       3.219   5.277  18.977  0.00  0.00    +0.000 C 
ATOM      6  C   UNL     1       3.244   4.183  20.052  0.00  0.00    +0.000 C 
ATOM      7  C   UNL     1       3.223   2.871  19.722  0.00  0.00    +0.000 C 
ATOM      8  C   UNL     1       3.064   2.359  18.301  0.00  0.00    +0.000 C 
ATOM      9  C   UNL     1       4.716   5.528  18.629  0.00  0.00    +0.000 C 
ENDROOT
BRANCH   1  11
ATOM     10  O   UNL     1       6.987   5.710  16.595  0.00  0.00    +0.000 OA
ATOM     11  C   UNL     1       6.760   4.772  17.343  0.00  0.00    +0.000 C 
BRANCH  11  12
ATOM     12  O   UNL     1       7.757   4.028  17.876  0.00  0.00    +0.000 OA
ATOM     13  H   UNL     1       8.603   4.054  17.391  0.00  0.00    +0.000 HD
ENDBRANCH  11  12
ENDBRANCH   1  11
BRANCH   5  14
ATOM     14  C   UNL     1       2.598   6.680  19.217  0.00  0.00    +0.000 C 
ATOM     15  O   UNL     1       2.462   7.505  18.319  0.00  0.00    +0.000 OA
BRANCH  14  16
ATOM     16  O   UNL     1       2.252   6.995  20.481  0.00  0.00    +0.000 OA
ATOM     17  H   UNL     1       1.944   7.903  20.612  0.00  0.00    +0.000 HD
ENDBRANCH  14  16
ENDBRANCH   5  14
BRANCH   8  18
ATOM     18  O   UNL     1       4.046   1.379  17.993  0.00  0.00    +0.000 OA
ATOM     19  H   UNL     1       4.861   1.824  17.719  0.00  0.00    +0.000 HD
ENDBRANCH   8  18
TORSDOF 5
ENDMDL
MODEL 6
REMARK VINA RESULT:      -6.6      1.788      3.868
REMARK  Name = 
REMARK  5 active torsions:
REMARK  status: ('A' for Active; 'I' for Inactive)
REMARK    1  A    between atoms: C_2  and  O_3
REMARK    2  A    between atoms: C_2  and  C_4
REMARK    3  A    between atoms: C_8  and  C_9
REMARK    4  A    between atoms: C_9  and  O_11
REMARK    5  A    between atoms: C_14  and  O_15
REMARK                            x       y       z     vdW  Elec       q    Type
REMARK                         _______ _______ _______ _____ _____    ______ ____
ROOT
ATOM      1  C   UNL     1       2.293   5.694  19.490  0.00  0.00    +0.000 C 
ATOM      2  C   UNL     1       2.622   4.854  20.726  0.00  0.00    +0.000 C 
ATOM      3  C   UNL     1       2.749   3.351  20.404  0.00  0.00    +0.000 C 
ATOM      4  C   UNL     1       3.955   3.170  19.491  0.00  0.00    +0.000 C 
ATOM      5  C   UNL     1       3.754   3.984  18.187  0.00  0.00    +0.000 C 
ATOM      6  C   UNL     1       2.532   3.363  17.497  0.00  0.00    +0.000 C 
ATOM      7  C   UNL     1       1.515   2.829  18.214  0.00  0.00    +0.000 C 
ATOM      8  C   UNL     1       1.527   2.691  19.725  0.00  0.00    +0.000 C 
ATOM      9  C   UNL     1       3.370   5.476  18.411  0.00  0.00    +0.000 C 
ENDROOT
BRANCH   1  11
ATOM     10  O   UNL     1       2.154   8.076  19.009  0.00  0.00    +0.000 OA
ATOM     11  C   UNL     1       2.126   7.167  19.824  0.00  0.00    +0.000 C 
BRANCH  11  12
ATOM     12  O   UNL     1       1.847   7.389  21.130  0.00  0.00    +0.000 OA
ATOM     13  H   UNL     1       1.668   6.590  21.660  0.00  0.00    +0.000 HD
ENDBRANCH  11  12
ENDBRANCH   1  11
BRANCH   5  14
ATOM     14  C   UNL     1       5.166   4.001  17.543  0.00  0.00    +0.000 C 
ATOM     15  O   UNL     1       5.339   4.024  16.329  0.00  0.00    +0.000 OA
BRANCH  14  16
ATOM     16  O   UNL     1       6.226   3.936  18.374  0.00  0.00    +0.000 OA
ATOM     17  H   UNL     1       7.068   3.708  17.955  0.00  0.00    +0.000 HD
ENDBRANCH  14  16
ENDBRANCH   5  14
BRANCH   8  18
ATOM     18  O   UNL     1       0.325   3.188  20.298  0.00  0.00    +0.000 OA
ATOM     19  H   UNL     1       0.515   4.016  20.762  0.00  0.00    +0.000 HD
ENDBRANCH   8  18
TORSDOF 5
ENDMDL
MODEL 7
REMARK VINA RESULT:      -6.5      2.981      5.646
REMARK  Name = 
REMARK  5 active torsions:
REMARK  status: ('A' for Active; 'I' for Inactive)
REMARK    1  A    between atoms: C_2  and  O_3
REMARK    2  A    between atoms: C_2  and  C_4
REMARK    3  A    between atoms: C_8  and  C_9
REMARK    4  A    between atoms: C_9  and  O_11
REMARK    5  A    between atoms: C_14  and  O_15
REMARK                            x       y       z     vdW  Elec       q    Type
REMARK                         _______ _______ _______ _____ _____    ______ ____
ROOT
ATOM      1  C   UNL     1       6.342   4.982  15.202  0.00  0.00    +0.000 C 
ATOM      2  C   UNL     1       7.384   4.711  16.290  0.00  0.00    +0.000 C 
ATOM      3  C   UNL     1       6.912   5.158  17.688  0.00  0.00    +0.000 C 
ATOM      4  C   UNL     1       5.723   4.290  18.078  0.00  0.00    +0.000 C 
ATOM      5  C   UNL     1       4.582   4.465  17.044  0.00  0.00    +0.000 C 
ATOM      6  C   UNL     1       4.156   5.936  17.144  0.00  0.00    +0.000 C 
ATOM      7  C   UNL     1       5.047   6.908  17.451  0.00  0.00    +0.000 C 
ATOM      8  C   UNL     1       6.494   6.640  17.826  0.00  0.00    +0.000 C 
ATOM      9  C   UNL     1       5.020   4.278  15.562  0.00  0.00    +0.000 C 
ENDROOT
BRANCH   1  11
ATOM     10  O   UNL     1       7.621   5.222  13.145  0.00  0.00    +0.000 OA
ATOM     11  C   UNL     1       6.834   4.579  13.822  0.00  0.00    +0.000 C 
BRANCH  11  12
ATOM     12  O   UNL     1       6.382   3.365  13.428  0.00  0.00    +0.000 OA
ATOM     13  H   UNL     1       6.140   3.295  12.486  0.00  0.00    +0.000 HD
ENDBRANCH  11  12
ENDBRANCH   1  11
BRANCH   5  14
ATOM     14  C   UNL     1       3.620   3.287  17.354  0.00  0.00    +0.000 C 
ATOM     15  O   UNL     1       2.443   3.285  17.007  0.00  0.00    +0.000 OA
BRANCH  14  16
ATOM     16  O   UNL     1       4.111   2.262  18.078  0.00  0.00    +0.000 OA
ATOM     17  H   UNL     1       4.795   1.735  17.640  0.00  0.00    +0.000 HD
ENDBRANCH  14  16
ENDBRANCH   5  14
BRANCH   8  18
ATOM     18  O   UNL     1       7.380   7.467  17.086  0.00  0.00    +0.000 OA
ATOM     19  H   UNL     1       6.880   8.200  16.699  0.00  0.00    +0.000 HD
ENDBRANCH   8  18
TORSDOF 5
ENDMDL
MODEL 8
REMARK VINA RESULT:      -6.5      2.926      4.620
REMARK  Name = 
REMARK  5 active torsions:
REMARK  status: ('A' for Active; 'I' for Inactive)
REMARK    1  A    between atoms: C_2  and  O_3
REMARK    2  A    between atoms: C_2  and  C_4
REMARK    3  A    between atoms: C_8  and  C_9
REMARK    4  A    between atoms: C_9  and  O_11
REMARK    5  A    between atoms: C_14  and  O_15
REMARK                            x       y       z     vdW  Elec       q    Type
REMARK                         _______ _______ _______ _____ _____    ______ ____
ROOT
ATOM      1  C   UNL     1       4.560   3.680  17.370  0.00  0.00    +0.000 C 
ATOM      2  C   UNL     1       4.060   5.125  17.430  0.00  0.00    +0.000 C 
ATOM      3  C   UNL     1       5.208   6.152  17.371  0.00  0.00    +0.000 C 
ATOM      4  C   UNL     1       5.868   6.037  16.003  0.00  0.00    +0.000 C 
ATOM      5  C   UNL     1       6.420   4.602  15.805  0.00  0.00    +0.000 C 
ATOM      6  C   UNL     1       7.503   4.425  16.877  0.00  0.00    +0.000 C 
ATOM      7  C   UNL     1       7.407   5.033  18.082  0.00  0.00    +0.000 C 
ATOM      8  C   UNL     1       6.307   6.013  18.449  0.00  0.00    +0.000 C 
ATOM      9  C   UNL     1       5.389   3.470  16.089  0.00  0.00    +0.000 C 
ENDROOT
BRANCH   1  11
ATOM     10  O   UNL     1       2.277   2.878  17.109  0.00  0.00    +0.000 OA
ATOM     11  C   UNL     1       3.425   2.674  17.473  0.00  0.00    +0.000 C 
BRANCH  11  12
ATOM     12  O   UNL     1       3.824   1.466  17.933  0.00  0.00    +0.000 OA
ATOM     13  H   UNL     1       4.476   1.490  18.659  0.00  0.00    +0.000 HD
ENDBRANCH  11  12
ENDBRANCH   1  11
BRANCH   5  14
ATOM     14  C   UNL     1       6.720   4.530  14.283  0.00  0.00    +0.000 C 
ATOM     15  O   UNL     1       7.357   5.396  13.694  0.00  0.00    +0.000 OA
BRANCH  14  16
ATOM     16  O   UNL     1       6.204   3.488  13.600  0.00  0.00    +0.000 OA
ATOM     17  H   UNL     1       6.796   2.731  13.489  0.00  0.00    +0.000 HD
ENDBRANCH  14  16
ENDBRANCH   5  14
BRANCH   8  18
ATOM     18  O   UNL     1       5.721   5.685  19.701  0.00  0.00    +0.000 OA
ATOM     19  H   UNL     1       6.089   4.846  20.014  0.00  0.00    +0.000 HD
ENDBRANCH   8  18
TORSDOF 5
ENDMDL
MODEL 9
REMARK VINA RESULT:      -6.5      2.363      4.454
REMARK  Name = 
REMARK  5 active torsions:
REMARK  status: ('A' for Active; 'I' for Inactive)
REMARK    1  A    between atoms: C_2  and  O_3
REMARK    2  A    between atoms: C_2  and  C_4
REMARK    3  A    between atoms: C_8  and  C_9
REMARK    4  A    between atoms: C_9  and  O_11
REMARK    5  A    between atoms: C_14  and  O_15
REMARK                            x       y       z     vdW  Elec       q    Type
REMARK                         _______ _______ _______ _____ _____    ______ ____
ROOT
ATOM      1  C   UNL     1       2.868   6.332  18.199  0.00  0.00    +0.000 C 
ATOM      2  C   UNL     1       2.321   5.542  19.390  0.00  0.00    +0.000 C 
ATOM      3  C   UNL     1       2.689   4.046  19.329  0.00  0.00    +0.000 C 
ATOM      4  C   UNL     1       4.202   3.932  19.461  0.00  0.00    +0.000 C 
ATOM      5  C   UNL     1       4.891   4.703  18.306  0.00  0.00    +0.000 C 
ATOM      6  C   UNL     1       4.466   3.985  17.019  0.00  0.00    +0.000 C 
ATOM      7  C   UNL     1       3.253   3.395  16.909  0.00  0.00    +0.000 C 
ATOM      8  C   UNL     1       2.258   3.288  18.051  0.00  0.00    +0.000 C 
ATOM      9  C   UNL     1       4.397   6.169  18.125  0.00  0.00    +0.000 C 
ENDROOT
BRANCH   1  11
ATOM     10  O   UNL     1       2.519   8.567  17.301  0.00  0.00    +0.000 OA
ATOM     11  C   UNL     1       2.463   7.796  18.246  0.00  0.00    +0.000 C 
BRANCH  11  12
ATOM     12  O   UNL     1       1.935   8.165  19.437  0.00  0.00    +0.000 OA
ATOM     13  H   UNL     1       1.504   7.451  19.942  0.00  0.00    +0.000 HD
ENDBRANCH  11  12
ENDBRANCH   1  11
BRANCH   5  14
ATOM     14  C   UNL     1       6.370   4.807  18.764  0.00  0.00    +0.000 C 
ATOM     15  O   UNL     1       6.708   5.410  19.777  0.00  0.00    +0.000 OA
BRANCH  14  16
ATOM     16  O   UNL     1       7.304   4.247  17.969  0.00  0.00    +0.000 OA
ATOM     17  H   UNL     1       6.962   3.675  17.267  0.00  0.00    +0.000 HD
ENDBRANCH  14  16
ENDBRANCH   5  14
BRANCH   8  18
ATOM     18  O   UNL     1       0.963   3.710  17.649  0.00  0.00    +0.000 OA
ATOM     19  H   UNL     1       1.007   4.046  16.742  0.00  0.00    +0.000 HD
ENDBRANCH   8  18
TORSDOF 5
ENDMDL
