MODEL 1
REMARK VINA RESULT:      -7.0      0.000      0.000
REMARK  Name = 
REMARK  5 active torsions:
REMARK  status: ('A' for Active; 'I' for Inactive)
REMARK    1  A    between atoms: C_1  and  C_2
REMARK    2  A    between atoms: C_4  and  N_5
REMARK    3  A    between atoms: N_5  and  C_6
REMARK    4  A    between atoms: N_5  and  C_7
REMARK    5  A    between atoms: C_7  and  C_8
REMARK                            x       y       z     vdW  Elec       q    Type
REMARK                         _______ _______ _______ _____ _____    ______ ____
ROOT
ATOM      1  C   UNL     1       7.856   5.723  19.496  0.00  0.00    +0.000 C 
ATOM      2  C   UNL     1       7.134   5.231  18.265  0.00  0.00    +0.000 A 
ATOM      3  C   UNL     1       5.813   4.563  18.468  0.00  0.00    +0.000 A 
ATOM      4  C   UNL     1       5.149   4.109  17.382  0.00  0.00    +0.000 A 
ATOM      5  N   UNL     1       5.781   4.326  16.121  0.00  0.00    +0.000 N 
ATOM      6  N   UNL     1       5.348   4.047  14.854  0.00  0.00    +0.000 NA
ATOM      7  C   UNL     1       6.350   4.490  14.103  0.00  0.00    +0.000 A 
ATOM      8  N   UNL     1       7.387   5.058  14.762  0.00  0.00    +0.000 NA
ATOM      9  C   UNL     1       7.032   4.969  16.025  0.00  0.00    +0.000 A 
ATOM     10  N   UNL     1       7.706   5.420  17.119  0.00  0.00    +0.000 NA
ENDROOT
BRANCH   4  11
ATOM     11  N   UNL     1       3.887   3.462  17.485  0.00  0.00    +0.000 N 
ATOM     12  C   UNL     1       3.759   2.055  17.885  0.00  0.00    +0.000 C 
BRANCH  11  13
ATOM     13  C   UNL     1       2.586   4.174  17.495  0.00  0.00    +0.000 C 
BRANCH  13  14
ATOM     14  C   UNL     1       2.254   4.982  18.723  0.00  0.00    +0.000 A 
ATOM     15  C   UNL     1       1.731   4.531  19.924  0.00  0.00    +0.000 A 
ATOM     16  C   UNL     1       1.468   5.591  20.841  0.00  0.00    +0.000 A 
ATOM     17  C   UNL     1       1.801   6.804  20.297  0.00  0.00    +0.000 A 
ATOM     18 CL   UNL     1       1.632   8.340  21.047  0.00  0.00    +0.000 Cl
ATOM     19  S   UNL     1       2.420   6.693  18.725  0.00  0.00    +0.000 S 
ENDBRANCH  13  14
ENDBRANCH  11  13
ENDBRANCH   4  11
TORSDOF 3
ENDMDL
MODEL 2
REMARK VINA RESULT:      -7.0      1.060      2.543
REMARK  Name = 
REMARK  5 active torsions:
REMARK  status: ('A' for Active; 'I' for Inactive)
REMARK    1  A    between atoms: C_1  and  C_2
REMARK    2  A    between atoms: C_4  and  N_5
REMARK    3  A    between atoms: N_5  and  C_6
REMARK    4  A    between atoms: N_5  and  C_7
REMARK    5  A    between atoms: C_7  and  C_8
REMARK                            x       y       z     vdW  Elec       q    Type
REMARK                         _______ _______ _______ _____ _____    ______ ____
ROOT
ATOM      1  C   UNL     1       6.932   4.400  13.711  0.00  0.00    +0.000 C 
ATOM      2  C   UNL     1       6.574   4.463  15.177  0.00  0.00    +0.000 A 
ATOM      3  C   UNL     1       5.303   3.801  15.601  0.00  0.00    +0.000 A 
ATOM      4  C   UNL     1       4.959   3.849  16.907  0.00  0.00    +0.000 A 
ATOM      5  N   UNL     1       5.866   4.530  17.773  0.00  0.00    +0.000 N 
ATOM      6  N   UNL     1       5.838   4.696  19.130  0.00  0.00    +0.000 NA
ATOM      7  C   UNL     1       6.946   5.392  19.359  0.00  0.00    +0.000 A 
ATOM      8  N   UNL     1       7.711   5.672  18.277  0.00  0.00    +0.000 NA
ATOM      9  C   UNL     1       7.046   5.125  17.283  0.00  0.00    +0.000 A 
ATOM     10  N   UNL     1       7.390   5.086  15.966  0.00  0.00    +0.000 NA
ENDROOT
BRANCH   4  11
ATOM     11  N   UNL     1       3.768   3.245  17.396  0.00  0.00    +0.000 N 
ATOM     12  C   UNL     1       3.781   1.982  18.145  0.00  0.00    +0.000 C 
BRANCH  11  13
ATOM     13  C   UNL     1       2.457   3.934  17.473  0.00  0.00    +0.000 C 
BRANCH  13  14
ATOM     14  C   UNL     1       2.200   4.793  18.685  0.00  0.00    +0.000 A 
ATOM     15  C   UNL     1       1.722   4.396  19.923  0.00  0.00    +0.000 A 
ATOM     16  C   UNL     1       1.527   5.493  20.813  0.00  0.00    +0.000 A 
ATOM     17  C   UNL     1       1.864   6.678  20.213  0.00  0.00    +0.000 A 
ATOM     18 CL   UNL     1       1.767   8.242  20.915  0.00  0.00    +0.000 Cl
ATOM     19  S   UNL     1       2.408   6.498  18.620  0.00  0.00    +0.000 S 
ENDBRANCH  13  14
ENDBRANCH  11  13
ENDBRANCH   4  11
TORSDOF 3
ENDMDL
MODEL 3
REMARK VINA RESULT:      -6.8      0.853      1.177
REMARK  Name = 
REMARK  5 active torsions:
REMARK  status: ('A' for Active; 'I' for Inactive)
REMARK    1  A    between atoms: C_1  and  C_2
REMARK    2  A    between atoms: C_4  and  N_5
REMARK    3  A    between atoms: N_5  and  C_6
REMARK    4  A    between atoms: N_5  and  C_7
REMARK    5  A    between atoms: C_7  and  C_8
REMARK                            x       y       z     vdW  Elec       q    Type
REMARK                         _______ _______ _______ _____ _____    ______ ____
ROOT
ATOM      1  C   UNL     1       7.984   5.787  19.710  0.00  0.00    +0.000 C 
ATOM      2  C   UNL     1       7.205   5.310  18.508  0.00  0.00    +0.000 A 
ATOM      3  C   UNL     1       5.879   4.669  18.762  0.00  0.00    +0.000 A 
ATOM      4  C   UNL     1       5.165   4.229  17.703  0.00  0.00    +0.000 A 
ATOM      5  N   UNL     1       5.753   4.433  16.418  0.00  0.00    +0.000 N 
ATOM      6  N   UNL     1       5.266   4.163  15.169  0.00  0.00    +0.000 NA
ATOM      7  C   UNL     1       6.248   4.584  14.379  0.00  0.00    +0.000 A 
ATOM      8  N   UNL     1       7.322   5.131  14.998  0.00  0.00    +0.000 NA
ATOM      9  C   UNL     1       7.013   5.050  16.274  0.00  0.00    +0.000 A 
ATOM     10  N   UNL     1       7.738   5.486  17.341  0.00  0.00    +0.000 NA
ENDROOT
BRANCH   4  11
ATOM     11  N   UNL     1       3.894   3.609  17.853  0.00  0.00    +0.000 N 
ATOM     12  C   UNL     1       3.727   2.328  18.552  0.00  0.00    +0.000 C 
BRANCH  11  13
ATOM     13  C   UNL     1       2.601   4.291  17.604  0.00  0.00    +0.000 C 
BRANCH  13  14
ATOM     14  C   UNL     1       2.365   5.599  18.315  0.00  0.00    +0.000 A 
ATOM     15  C   UNL     1       2.446   6.879  17.792  0.00  0.00    +0.000 A 
ATOM     16  C   UNL     1       2.235   7.889  18.778  0.00  0.00    +0.000 A 
ATOM     17  C   UNL     1       2.005   7.333  20.008  0.00  0.00    +0.000 A 
ATOM     18 CL   UNL     1       1.720   8.180  21.475  0.00  0.00    +0.000 Cl
ATOM     19  S   UNL     1       2.032   5.640  20.001  0.00  0.00    +0.000 S 
ENDBRANCH  13  14
ENDBRANCH  11  13
ENDBRANCH   4  11
TORSDOF 3
ENDMDL
MODEL 4
REMARK VINA RESULT:      -6.8      2.289      3.660
REMARK  Name = 
REMARK  5 active torsions:
REMARK  status: ('A' for Active; 'I' for Inactive)
REMARK    1  A    between atoms: C_1  and  C_2
REMARK    2  A    between atoms: C_4  and  N_5
REMARK    3  A    between atoms: N_5  and  C_6
REMARK    4  A    between atoms: N_5  and  C_7
REMARK    5  A    between atoms: C_7  and  C_8
REMARK                            x       y       z     vdW  Elec       q    Type
REMARK                         _______ _______ _______ _____ _____    ______ ____
ROOT
ATOM      1  C   UNL     1       6.287   4.015  14.030  0.00  0.00    +0.000 C 
ATOM      2  C   UNL     1       6.202   4.511  15.453  0.00  0.00    +0.000 A 
ATOM      3  C   UNL     1       4.920   5.150  15.879  0.00  0.00    +0.000 A 
ATOM      4  C   UNL     1       4.822   5.607  17.147  0.00  0.00    +0.000 A 
ATOM      5  N   UNL     1       5.969   5.422  17.975  0.00  0.00    +0.000 N 
ATOM      6  N   UNL     1       6.162   5.711  19.298  0.00  0.00    +0.000 NA
ATOM      7  C   UNL     1       7.409   5.300  19.504  0.00  0.00    +0.000 A 
ATOM      8  N   UNL     1       8.039   4.742  18.443  0.00  0.00    +0.000 NA
ATOM      9  C   UNL     1       7.139   4.805  17.486  0.00  0.00    +0.000 A 
ATOM     10  N   UNL     1       7.243   4.351  16.206  0.00  0.00    +0.000 NA
ENDROOT
BRANCH   4  11
ATOM     11  N   UNL     1       3.639   6.228  17.636  0.00  0.00    +0.000 N 
ATOM     12  C   UNL     1       3.514   7.685  17.761  0.00  0.00    +0.000 C 
BRANCH  11  13
ATOM     13  C   UNL     1       2.337   5.533  17.787  0.00  0.00    +0.000 C 
BRANCH  13  14
ATOM     14  C   UNL     1       2.285   4.368  18.742  0.00  0.00    +0.000 A 
ATOM     15  C   UNL     1       2.676   3.059  18.511  0.00  0.00    +0.000 A 
ATOM     16  C   UNL     1       2.410   2.203  19.620  0.00  0.00    +0.000 A 
ATOM     17  C   UNL     1       1.827   2.897  20.647  0.00  0.00    +0.000 A 
ATOM     18 CL   UNL     1       1.326   2.254  22.159  0.00  0.00    +0.000 Cl
ATOM     19  S   UNL     1       1.599   4.540  20.309  0.00  0.00    +0.000 S 
ENDBRANCH  13  14
ENDBRANCH  11  13
ENDBRANCH   4  11
TORSDOF 3
ENDMDL
MODEL 5
REMARK VINA RESULT:      -6.7      1.801      3.173
REMARK  Name = 
REMARK  5 active torsions:
REMARK  status: ('A' for Active; 'I' for Inactive)
REMARK    1  A    between atoms: C_1  and  C_2
REMARK    2  A    between atoms: C_4  and  N_5
REMARK    3  A    between atoms: N_5  and  C_6
REMARK    4  A    between atoms: N_5  and  C_7
REMARK    5  A    between atoms: C_7  and  C_8
REMARK                            x       y       z     vdW  Elec       q    Type
REMARK                         _______ _______ _______ _____ _____    ______ ____
ROOT
ATOM      1  C   UNL     1       6.089   4.018  14.213  0.00  0.00    +0.000 C 
ATOM      2  C   UNL     1       6.048   4.336  15.688  0.00  0.00    +0.000 A 
ATOM      3  C   UNL     1       4.727   4.218  16.377  0.00  0.00    +0.000 A 
ATOM      4  C   UNL     1       4.664   4.503  17.697  0.00  0.00    +0.000 A 
ATOM      5  N   UNL     1       5.890   4.886  18.319  0.00  0.00    +0.000 N 
ATOM      6  N   UNL     1       6.168   5.171  19.627  0.00  0.00    +0.000 NA
ATOM      7  C   UNL     1       7.469   5.439  19.594  0.00  0.00    +0.000 A 
ATOM      8  N   UNL     1       8.073   5.327  18.388  0.00  0.00    +0.000 NA
ATOM      9  C   UNL     1       7.093   4.969  17.587  0.00  0.00    +0.000 A 
ATOM     10  N   UNL     1       7.157   4.691  16.256  0.00  0.00    +0.000 NA
ENDROOT
BRANCH   4  11
ATOM     11  N   UNL     1       3.449   4.415  18.431  0.00  0.00    +0.000 N 
ATOM     12  C   UNL     1       2.597   3.219  18.395  0.00  0.00    +0.000 C 
BRANCH  11  13
ATOM     13  C   UNL     1       3.059   5.355  19.510  0.00  0.00    +0.000 C 
BRANCH  13  14
ATOM     14  C   UNL     1       2.527   6.702  19.091  0.00  0.00    +0.000 A 
ATOM     15  C   UNL     1       2.596   7.293  17.840  0.00  0.00    +0.000 A 
ATOM     16  C   UNL     1       2.054   8.613  17.826  0.00  0.00    +0.000 A 
ATOM     17  C   UNL     1       1.599   8.969  19.068  0.00  0.00    +0.000 A 
ATOM     18 CL   UNL     1       0.890  10.472  19.503  0.00  0.00    +0.000 Cl
ATOM     19  S   UNL     1       1.803   7.760  20.236  0.00  0.00    +0.000 S 
ENDBRANCH  13  14
ENDBRANCH  11  13
ENDBRANCH   4  11
TORSDOF 3
ENDMDL
MODEL 6
REMARK VINA RESULT:      -6.5      2.302      2.617
REMARK  Name = 
REMARK  5 active torsions:
REMARK  status: ('A' for Active; 'I' for Inactive)
REMARK    1  A    between atoms: C_1  and  C_2
REMARK    2  A    between atoms: C_4  and  N_5
REMARK    3  A    between atoms: N_5  and  C_6
REMARK    4  A    between atoms: N_5  and  C_7
REMARK    5  A    between atoms: C_7  and  C_8
REMARK                            x       y       z     vdW  Elec       q    Type
REMARK                         _______ _______ _______ _____ _____    ______ ____
ROOT
ATOM      1  C   UNL     1       8.059   7.726  18.284  0.00  0.00    +0.000 C 
ATOM      2  C   UNL     1       7.249   6.808  17.401  0.00  0.00    +0.000 A 
ATOM      3  C   UNL     1       5.885   6.427  17.878  0.00  0.00    +0.000 A 
ATOM      4  C   UNL     1       5.142   5.602  17.107  0.00  0.00    +0.000 A 
ATOM      5  N   UNL     1       5.740   5.175  15.883  0.00  0.00    +0.000 N 
ATOM      6  N   UNL     1       5.234   4.404  14.873  0.00  0.00    +0.000 NA
ATOM      7  C   UNL     1       6.240   4.370  14.005  0.00  0.00    +0.000 A 
ATOM      8  N   UNL     1       7.347   5.072  14.344  0.00  0.00    +0.000 NA
ATOM      9  C   UNL     1       7.036   5.588  15.513  0.00  0.00    +0.000 A 
ATOM     10  N   UNL     1       7.789   6.412  16.292  0.00  0.00    +0.000 NA
ENDROOT
BRANCH   4  11
ATOM     11  N   UNL     1       3.834   5.190  17.484  0.00  0.00    +0.000 N 
ATOM     12  C   UNL     1       2.763   6.153  17.773  0.00  0.00    +0.000 C 
BRANCH  11  13
ATOM     13  C   UNL     1       3.327   3.803  17.346  0.00  0.00    +0.000 C 
BRANCH  13  14
ATOM     14  C   UNL     1       2.461   3.273  18.460  0.00  0.00    +0.000 A 
ATOM     15  C   UNL     1       1.137   2.871  18.392  0.00  0.00    +0.000 A 
ATOM     16  C   UNL     1       0.611   2.498  19.664  0.00  0.00    +0.000 A 
ATOM     17  C   UNL     1       1.556   2.634  20.645  0.00  0.00    +0.000 A 
ATOM     18 CL   UNL     1       1.345   2.312  22.319  0.00  0.00    +0.000 Cl
ATOM     19  S   UNL     1       3.049   3.191  20.073  0.00  0.00    +0.000 S 
ENDBRANCH  13  14
ENDBRANCH  11  13
ENDBRANCH   4  11
TORSDOF 3
ENDMDL
MODEL 7
REMARK VINA RESULT:      -6.5      1.562      1.786
REMARK  Name = 
REMARK  5 active torsions:
REMARK  status: ('A' for Active; 'I' for Inactive)
REMARK    1  A    between atoms: C_1  and  C_2
REMARK    2  A    between atoms: C_4  and  N_5
REMARK    3  A    between atoms: N_5  and  C_6
REMARK    4  A    between atoms: N_5  and  C_7
REMARK    5  A    between atoms: C_7  and  C_8
REMARK                            x       y       z     vdW  Elec       q    Type
REMARK                         _______ _______ _______ _____ _____    ______ ____
ROOT
ATOM      1  C   UNL     1       7.985   8.139  17.882  0.00  0.00    +0.000 C 
ATOM      2  C   UNL     1       7.254   6.943  17.321  0.00  0.00    +0.000 A 
ATOM      3  C   UNL     1       6.080   6.434  18.092  0.00  0.00    +0.000 A 
ATOM      4  C   UNL     1       5.413   5.361  17.612  0.00  0.00    +0.000 A 
ATOM      5  N   UNL     1       5.897   4.814  16.386  0.00  0.00    +0.000 N 
ATOM      6  N   UNL     1       5.413   3.787  15.623  0.00  0.00    +0.000 NA
ATOM      7  C   UNL     1       6.266   3.758  14.605  0.00  0.00    +0.000 A 
ATOM      8  N   UNL     1       7.248   4.691  14.619  0.00  0.00    +0.000 NA
ATOM      9  C   UNL     1       7.015   5.362  15.726  0.00  0.00    +0.000 A 
ATOM     10  N   UNL     1       7.694   6.438  16.212  0.00  0.00    +0.000 NA
ENDROOT
BRANCH   4  11
ATOM     11  N   UNL     1       4.284   4.812  18.282  0.00  0.00    +0.000 N 
ATOM     12  C   UNL     1       4.418   3.950  19.464  0.00  0.00    +0.000 C 
BRANCH  11  13
ATOM     13  C   UNL     1       2.888   5.265  18.067  0.00  0.00    +0.000 C 
BRANCH  13  14
ATOM     14  C   UNL     1       2.454   6.519  18.782  0.00  0.00    +0.000 A 
ATOM     15  C   UNL     1       2.104   6.662  20.115  0.00  0.00    +0.000 A 
ATOM     16  C   UNL     1       1.667   7.983  20.429  0.00  0.00    +0.000 A 
ATOM     17  C   UNL     1       1.701   8.787  19.321  0.00  0.00    +0.000 A 
ATOM     18 CL   UNL     1       1.243  10.441  19.245  0.00  0.00    +0.000 Cl
ATOM     19  S   UNL     1       2.246   7.996  17.927  0.00  0.00    +0.000 S 
ENDBRANCH  13  14
ENDBRANCH  11  13
ENDBRANCH   4  11
TORSDOF 3
ENDMDL
MODEL 8
REMARK VINA RESULT:      -6.5      1.559      2.966
REMARK  Name = 
REMARK  5 active torsions:
REMARK  status: ('A' for Active; 'I' for Inactive)
REMARK    1  A    between atoms: C_1  and  C_2
REMARK    2  A    between atoms: C_4  and  N_5
REMARK    3  A    between atoms: N_5  and  C_6
REMARK    4  A    between atoms: N_5  and  C_7
REMARK    5  A    between atoms: C_7  and  C_8
REMARK                            x       y       z     vdW  Elec       q    Type
REMARK                         _______ _______ _______ _____ _____    ______ ____
ROOT
ATOM      1  C   UNL     1       6.253   4.153  14.144  0.00  0.00    +0.000 C 
ATOM      2  C   UNL     1       6.155   4.406  15.629  0.00  0.00    +0.000 A 
ATOM      3  C   UNL     1       4.861   4.072  16.296  0.00  0.00    +0.000 A 
ATOM      4  C   UNL     1       4.747   4.295  17.624  0.00  0.00    +0.000 A 
ATOM      5  N   UNL     1       5.899   4.829  18.275  0.00  0.00    +0.000 N 
ATOM      6  N   UNL     1       6.122   5.103  19.596  0.00  0.00    +0.000 NA
ATOM      7  C   UNL     1       7.371   5.558  19.590  0.00  0.00    +0.000 A 
ATOM      8  N   UNL     1       7.993   5.580  18.388  0.00  0.00    +0.000 NA
ATOM      9  C   UNL     1       7.082   5.114  17.562  0.00  0.00    +0.000 A 
ATOM     10  N   UNL     1       7.196   4.897  16.223  0.00  0.00    +0.000 NA
ENDROOT
BRANCH   4  11
ATOM     11  N   UNL     1       3.551   4.004  18.339  0.00  0.00    +0.000 N 
ATOM     12  C   UNL     1       2.728   2.826  18.039  0.00  0.00    +0.000 C 
BRANCH  11  13
ATOM     13  C   UNL     1       3.166   4.655  19.615  0.00  0.00    +0.000 C 
BRANCH  13  14
ATOM     14  C   UNL     1       2.680   6.080  19.542  0.00  0.00    +0.000 A 
ATOM     15  C   UNL     1       1.956   6.782  20.491  0.00  0.00    +0.000 A 
ATOM     16  C   UNL     1       1.598   8.091  20.051  0.00  0.00    +0.000 A 
ATOM     17  C   UNL     1       2.064   8.326  18.785  0.00  0.00    +0.000 A 
ATOM     18 CL   UNL     1       1.845   9.762  17.867  0.00  0.00    +0.000 Cl
ATOM     19  S   UNL     1       2.917   7.022  18.124  0.00  0.00    +0.000 S 
ENDBRANCH  13  14
ENDBRANCH  11  13
ENDBRANCH   4  11
TORSDOF 3
ENDMDL
MODEL 9
REMARK VINA RESULT:      -6.5      2.130      2.629
REMARK  Name = 
REMARK  5 active torsions:
REMARK  status: ('A' for Active; 'I' for Inactive)
REMARK    1  A    between atoms: C_1  and  C_2
REMARK    2  A    between atoms: C_4  and  N_5
REMARK    3  A    between atoms: N_5  and  C_6
REMARK    4  A    between atoms: N_5  and  C_7
REMARK    5  A    between atoms: C_7  and  C_8
REMARK                            x       y       z     vdW  Elec       q    Type
REMARK                         _______ _______ _______ _____ _____    ______ ____
ROOT
ATOM      1  C   UNL     1       8.083   5.405  19.973  0.00  0.00    +0.000 C 
ATOM      2  C   UNL     1       7.235   5.396  18.724  0.00  0.00    +0.000 A 
ATOM      3  C   UNL     1       5.813   5.834  18.858  0.00  0.00    +0.000 A 
ATOM      4  C   UNL     1       5.033   5.829  17.754  0.00  0.00    +0.000 A 
ATOM      5  N   UNL     1       5.659   5.409  16.542  0.00  0.00    +0.000 N 
ATOM      6  N   UNL     1       5.169   5.353  15.266  0.00  0.00    +0.000 NA
ATOM      7  C   UNL     1       6.212   4.904  14.576  0.00  0.00    +0.000 A 
ATOM      8  N   UNL     1       7.347   4.687  15.281  0.00  0.00    +0.000 NA
ATOM      9  C   UNL     1       7.011   5.013  16.510  0.00  0.00    +0.000 A 
ATOM     10  N   UNL     1       7.796   5.008  17.622  0.00  0.00    +0.000 NA
ENDROOT
BRANCH   4  11
ATOM     11  N   UNL     1       3.670   6.232  17.791  0.00  0.00    +0.000 N 
ATOM     12  C   UNL     1       3.271   7.645  17.809  0.00  0.00    +0.000 C 
BRANCH  11  13
ATOM     13  C   UNL     1       2.527   5.325  17.523  0.00  0.00    +0.000 C 
BRANCH  13  14
ATOM     14  C   UNL     1       2.298   4.199  18.499  0.00  0.00    +0.000 A 
ATOM     15  C   UNL     1       2.142   2.851  18.222  0.00  0.00    +0.000 A 
ATOM     16  C   UNL     1       1.862   2.080  19.389  0.00  0.00    +0.000 A 
ATOM     17  C   UNL     1       1.815   2.875  20.503  0.00  0.00    +0.000 A 
ATOM     18 CL   UNL     1       1.491   2.364  22.110  0.00  0.00    +0.000 Cl
ATOM     19  S   UNL     1       2.102   4.512  20.178  0.00  0.00    +0.000 S 
ENDBRANCH  13  14
ENDBRANCH  11  13
ENDBRANCH   4  11
TORSDOF 3
ENDMDL
