MODEL 1
REMARK VINA RESULT:      -5.2      0.000      0.000
REMARK  Name = 
REMARK  8 active torsions:
REMARK  status: ('A' for Active; 'I' for Inactive)
REMARK    1  A    between atoms: C_1  and  C_2
REMARK    2  A    between atoms: C_2  and  C_3
REMARK    3  A    between atoms: C_2  and  C_4
REMARK    4  A    between atoms: C_4  and  C_5
REMARK    5  A    between atoms: C_5  and  C_6
REMARK    6  A    between atoms: C_6  and  C_7
REMARK    7  A    between atoms: C_7  and  C_8
REMARK    8  A    between atoms: C_10  and  C_12
REMARK                            x       y       z     vdW  Elec       q    Type
REMARK                         _______ _______ _______ _____ _____    ______ ____
ROOT
ATOM      1  C   UNL     1       4.429   4.628  17.920  0.00  0.00    +0.000 C 
ATOM      2  C   UNL     1       5.304   4.963  16.936  0.00  0.00    +0.000 C 
ATOM      3 CL   UNL     1       5.796   3.808  15.717  0.00  0.00    +0.000 Cl
ENDROOT
BRANCH   1   4
ATOM      4  C   UNL     1       4.033   5.696  18.921  0.00  0.00    +0.000 C 
ATOM      5 BR   UNL     1       2.703   6.990  18.356  0.00  0.00    +0.000 Br
ENDBRANCH   1   4
BRANCH   2   6
ATOM      6  C   UNL     1       5.908   6.325  16.703  0.00  0.00    +0.000 C 
ATOM      7 CL   UNL     1       7.395   6.515  17.654  0.00  0.00    +0.000 Cl
ENDBRANCH   2   6
BRANCH   1   8
ATOM      8  C   UNL     1       3.860   3.219  18.041  0.00  0.00    +0.000 C 
BRANCH   8   9
ATOM      9  C   UNL     1       2.329   3.231  18.140  0.00  0.00    +0.000 C 
BRANCH   9  10
ATOM     10  C   UNL     1       1.807   2.185  19.132  0.00  0.00    +0.000 C 
BRANCH  10  12
ATOM     11  C   UNL     1       2.431   2.710  21.523  0.00  0.00    +0.000 C 
ATOM     12  C   UNL     1       1.327   2.799  20.466  0.00  0.00    +0.000 C 
ATOM     13  C   UNL     1       0.884   4.256  20.313  0.00  0.00    +0.000 C 
ENDBRANCH  10  12
ENDBRANCH   9  10
ENDBRANCH   8   9
ENDBRANCH   1   8
TORSDOF 6
ENDMDL
MODEL 2
REMARK VINA RESULT:      -5.1      3.163      5.690
REMARK  Name = 
REMARK  8 active torsions:
REMARK  status: ('A' for Active; 'I' for Inactive)
REMARK    1  A    between atoms: C_1  and  C_2
REMARK    2  A    between atoms: C_2  and  C_3
REMARK    3  A    between atoms: C_2  and  C_4
REMARK    4  A    between atoms: C_4  and  C_5
REMARK    5  A    between atoms: C_5  and  C_6
REMARK    6  A    between atoms: C_6  and  C_7
REMARK    7  A    between atoms: C_7  and  C_8
REMARK    8  A    between atoms: C_10  and  C_12
REMARK                            x       y       z     vdW  Elec       q    Type
REMARK                         _______ _______ _______ _____ _____    ______ ____
ROOT
ATOM      1  C   UNL     1       2.624   4.560  18.274  0.00  0.00    +0.000 C 
ATOM      2  C   UNL     1       1.946   4.836  19.419  0.00  0.00    +0.000 C 
ATOM      3 CL   UNL     1       2.103   6.381  20.225  0.00  0.00    +0.000 Cl
ENDROOT
BRANCH   1   4
ATOM      4  C   UNL     1       2.411   3.207  17.623  0.00  0.00    +0.000 C 
ATOM      5 BR   UNL     1       3.415   1.711  18.342  0.00  0.00    +0.000 Br
ENDBRANCH   1   4
BRANCH   2   6
ATOM      6  C   UNL     1       0.950   3.936  20.107  0.00  0.00    +0.000 C 
ATOM      7 CL   UNL     1       1.699   3.137  21.504  0.00  0.00    +0.000 Cl
ENDBRANCH   2   6
BRANCH   1   8
ATOM      8  C   UNL     1       3.589   5.564  17.653  0.00  0.00    +0.000 C 
BRANCH   8   9
ATOM      9  C   UNL     1       4.643   4.874  16.778  0.00  0.00    +0.000 C 
BRANCH   9  10
ATOM     10  C   UNL     1       5.524   5.882  16.032  0.00  0.00    +0.000 C 
BRANCH  10  12
ATOM     11  C   UNL     1       7.228   7.033  17.500  0.00  0.00    +0.000 C 
ATOM     12  C   UNL     1       6.990   5.883  16.517  0.00  0.00    +0.000 C 
ATOM     13  C   UNL     1       7.391   4.560  17.174  0.00  0.00    +0.000 C 
ENDBRANCH  10  12
ENDBRANCH   9  10
ENDBRANCH   8   9
ENDBRANCH   1   8
TORSDOF 6
ENDMDL
MODEL 3
REMARK VINA RESULT:      -5.1      3.328      5.575
REMARK  Name = 
REMARK  8 active torsions:
REMARK  status: ('A' for Active; 'I' for Inactive)
REMARK    1  A    between atoms: C_1  and  C_2
REMARK    2  A    between atoms: C_2  and  C_3
REMARK    3  A    between atoms: C_2  and  C_4
REMARK    4  A    between atoms: C_4  and  C_5
REMARK    5  A    between atoms: C_5  and  C_6
REMARK    6  A    between atoms: C_6  and  C_7
REMARK    7  A    between atoms: C_7  and  C_8
REMARK    8  A    between atoms: C_10  and  C_12
REMARK                            x       y       z     vdW  Elec       q    Type
REMARK                         _______ _______ _______ _____ _____    ______ ____
ROOT
ATOM      1  C   UNL     1       2.475   4.796  18.375  0.00  0.00    +0.000 C 
ATOM      2  C   UNL     1       1.828   4.700  19.567  0.00  0.00    +0.000 C 
ATOM      3 CL   UNL     1       1.751   6.049  20.677  0.00  0.00    +0.000 Cl
ENDROOT
BRANCH   1   4
ATOM      4  C   UNL     1       2.471   3.589  17.458  0.00  0.00    +0.000 C 
ATOM      5 BR   UNL     1       3.589   2.087  17.966  0.00  0.00    +0.000 Br
ENDBRANCH   1   4
BRANCH   2   6
ATOM      6  C   UNL     1       1.054   3.507  20.070  0.00  0.00    +0.000 C 
ATOM      7 CL   UNL     1       1.621   3.037  21.686  0.00  0.00    +0.000 Cl
ENDBRANCH   2   6
BRANCH   1   8
ATOM      8  C   UNL     1       3.203   6.069  17.960  0.00  0.00    +0.000 C 
BRANCH   8   9
ATOM      9  C   UNL     1       4.638   5.780  17.501  0.00  0.00    +0.000 C 
BRANCH   9  10
ATOM     10  C   UNL     1       5.587   5.551  18.683  0.00  0.00    +0.000 C 
BRANCH  10  12
ATOM     11  C   UNL     1       7.471   4.560  17.323  0.00  0.00    +0.000 C 
ATOM     12  C   UNL     1       7.078   5.673  18.298  0.00  0.00    +0.000 C 
ATOM     13  C   UNL     1       7.413   7.033  17.680  0.00  0.00    +0.000 C 
ENDBRANCH  10  12
ENDBRANCH   9  10
ENDBRANCH   8   9
ENDBRANCH   1   8
TORSDOF 6
ENDMDL
MODEL 4
REMARK VINA RESULT:      -5.0      2.797      5.148
REMARK  Name = 
REMARK  8 active torsions:
REMARK  status: ('A' for Active; 'I' for Inactive)
REMARK    1  A    between atoms: C_1  and  C_2
REMARK    2  A    between atoms: C_2  and  C_3
REMARK    3  A    between atoms: C_2  and  C_4
REMARK    4  A    between atoms: C_4  and  C_5
REMARK    5  A    between atoms: C_5  and  C_6
REMARK    6  A    between atoms: C_6  and  C_7
REMARK    7  A    between atoms: C_7  and  C_8
REMARK    8  A    between atoms: C_10  and  C_12
REMARK                            x       y       z     vdW  Elec       q    Type
REMARK                         _______ _______ _______ _____ _____    ______ ____
ROOT
ATOM      1  C   UNL     1       2.738   4.888  18.634  0.00  0.00    +0.000 C 
ATOM      2  C   UNL     1       1.964   3.820  18.960  0.00  0.00    +0.000 C 
ATOM      3 CL   UNL     1       2.227   2.247  18.242  0.00  0.00    +0.000 Cl
ENDROOT
BRANCH   1   4
ATOM      4  C   UNL     1       2.461   6.210  19.323  0.00  0.00    +0.000 C 
ATOM      5 BR   UNL     1       2.491   7.807  18.221  0.00  0.00    +0.000 Br
ENDBRANCH   1   4
BRANCH   2   6
ATOM      6  C   UNL     1       0.858   3.797  19.985  0.00  0.00    +0.000 C 
ATOM      7 CL   UNL     1       1.373   2.907  21.433  0.00  0.00    +0.000 Cl
ENDBRANCH   2   6
BRANCH   1   8
ATOM      8  C   UNL     1       3.851   4.785  17.597  0.00  0.00    +0.000 C 
BRANCH   8   9
ATOM      9  C   UNL     1       5.154   4.259  18.213  0.00  0.00    +0.000 C 
BRANCH   9  10
ATOM     10  C   UNL     1       5.930   5.359  18.947  0.00  0.00    +0.000 C 
BRANCH  10  12
ATOM     11  C   UNL     1       7.676   4.557  17.305  0.00  0.00    +0.000 C 
ATOM     12  C   UNL     1       7.318   5.638  18.330  0.00  0.00    +0.000 C 
ATOM     13  C   UNL     1       7.397   7.015  17.665  0.00  0.00    +0.000 C 
ENDBRANCH  10  12
ENDBRANCH   9  10
ENDBRANCH   8   9
ENDBRANCH   1   8
TORSDOF 6
ENDMDL
MODEL 5
REMARK VINA RESULT:      -5.0      2.266      2.529
REMARK  Name = 
REMARK  8 active torsions:
REMARK  status: ('A' for Active; 'I' for Inactive)
REMARK    1  A    between atoms: C_1  and  C_2
REMARK    2  A    between atoms: C_2  and  C_3
REMARK    3  A    between atoms: C_2  and  C_4
REMARK    4  A    between atoms: C_4  and  C_5
REMARK    5  A    between atoms: C_5  and  C_6
REMARK    6  A    between atoms: C_6  and  C_7
REMARK    7  A    between atoms: C_7  and  C_8
REMARK    8  A    between atoms: C_10  and  C_12
REMARK                            x       y       z     vdW  Elec       q    Type
REMARK                         _______ _______ _______ _____ _____    ______ ____
ROOT
ATOM      1  C   UNL     1       5.106   4.157  17.029  0.00  0.00    +0.000 C 
ATOM      2  C   UNL     1       5.804   4.781  18.014  0.00  0.00    +0.000 C 
ATOM      3 CL   UNL     1       5.005   5.446  19.421  0.00  0.00    +0.000 Cl
ENDROOT
BRANCH   1   4
ATOM      4  C   UNL     1       5.878   3.583  15.857  0.00  0.00    +0.000 C 
ATOM      5 BR   UNL     1       6.382   4.811  14.441  0.00  0.00    +0.000 Br
ENDBRANCH   1   4
BRANCH   2   6
ATOM      6  C   UNL     1       7.303   4.932  18.089  0.00  0.00    +0.000 C 
ATOM      7 CL   UNL     1       7.746   6.643  18.255  0.00  0.00    +0.000 Cl
ENDBRANCH   2   6
BRANCH   1   8
ATOM      8  C   UNL     1       3.587   4.040  17.075  0.00  0.00    +0.000 C 
BRANCH   8   9
ATOM      9  C   UNL     1       3.137   2.735  17.744  0.00  0.00    +0.000 C 
BRANCH   9  10
ATOM     10  C   UNL     1       1.709   2.830  18.293  0.00  0.00    +0.000 C 
BRANCH  10  12
ATOM     11  C   UNL     1       3.041   2.606  20.428  0.00  0.00    +0.000 C 
ATOM     12  C   UNL     1       1.652   2.862  19.836  0.00  0.00    +0.000 C 
ATOM     13  C   UNL     1       1.105   4.187  20.374  0.00  0.00    +0.000 C 
ENDBRANCH  10  12
ENDBRANCH   9  10
ENDBRANCH   8   9
ENDBRANCH   1   8
TORSDOF 6
ENDMDL
MODEL 6
REMARK VINA RESULT:      -5.0      2.176      2.459
REMARK  Name = 
REMARK  8 active torsions:
REMARK  status: ('A' for Active; 'I' for Inactive)
REMARK    1  A    between atoms: C_1  and  C_2
REMARK    2  A    between atoms: C_2  and  C_3
REMARK    3  A    between atoms: C_2  and  C_4
REMARK    4  A    between atoms: C_4  and  C_5
REMARK    5  A    between atoms: C_5  and  C_6
REMARK    6  A    between atoms: C_6  and  C_7
REMARK    7  A    between atoms: C_7  and  C_8
REMARK    8  A    between atoms: C_10  and  C_12
REMARK                            x       y       z     vdW  Elec       q    Type
REMARK                         _______ _______ _______ _____ _____    ______ ____
ROOT
ATOM      1  C   UNL     1       4.544   4.772  16.897  0.00  0.00    +0.000 C 
ATOM      2  C   UNL     1       4.739   6.092  17.153  0.00  0.00    +0.000 C 
ATOM      3 CL   UNL     1       3.489   7.079  17.876  0.00  0.00    +0.000 Cl
ENDROOT
BRANCH   1   4
ATOM      4  C   UNL     1       5.689   3.981  16.294  0.00  0.00    +0.000 C 
ATOM      5 BR   UNL     1       5.926   4.092  14.372  0.00  0.00    +0.000 Br
ENDBRANCH   1   4
BRANCH   2   6
ATOM      6  C   UNL     1       6.015   6.865  16.933  0.00  0.00    +0.000 C 
ATOM      7 CL   UNL     1       7.206   6.466  18.188  0.00  0.00    +0.000 Cl
ENDBRANCH   2   6
BRANCH   1   8
ATOM      8  C   UNL     1       3.213   4.089  17.188  0.00  0.00    +0.000 C 
BRANCH   8   9
ATOM      9  C   UNL     1       3.181   3.481  18.596  0.00  0.00    +0.000 C 
BRANCH   9  10
ATOM     10  C   UNL     1       1.774   3.022  18.996  0.00  0.00    +0.000 C 
BRANCH  10  12
ATOM     11  C   UNL     1       1.419   2.706  21.478  0.00  0.00    +0.000 C 
ATOM     12  C   UNL     1       1.269   3.675  20.301  0.00  0.00    +0.000 C 
ATOM     13  C   UNL     1       1.999   4.982  20.622  0.00  0.00    +0.000 C 
ENDBRANCH  10  12
ENDBRANCH   9  10
ENDBRANCH   8   9
ENDBRANCH   1   8
TORSDOF 6
ENDMDL
MODEL 7
REMARK VINA RESULT:      -5.0      1.464      2.136
REMARK  Name = 
REMARK  8 active torsions:
REMARK  status: ('A' for Active; 'I' for Inactive)
REMARK    1  A    between atoms: C_1  and  C_2
REMARK    2  A    between atoms: C_2  and  C_3
REMARK    3  A    between atoms: C_2  and  C_4
REMARK    4  A    between atoms: C_4  and  C_5
REMARK    5  A    between atoms: C_5  and  C_6
REMARK    6  A    between atoms: C_6  and  C_7
REMARK    7  A    between atoms: C_7  and  C_8
REMARK    8  A    between atoms: C_10  and  C_12
REMARK                            x       y       z     vdW  Elec       q    Type
REMARK                         _______ _______ _______ _____ _____    ______ ____
ROOT
ATOM      1  C   UNL     1       3.814   6.218  18.411  0.00  0.00    +0.000 C 
ATOM      2  C   UNL     1       4.924   5.464  18.200  0.00  0.00    +0.000 C 
ATOM      3 CL   UNL     1       5.268   4.050  19.170  0.00  0.00    +0.000 Cl
ENDROOT
BRANCH   1   4
ATOM      4  C   UNL     1       3.576   7.412  17.507  0.00  0.00    +0.000 C 
ATOM      5 BR   UNL     1       2.087   8.575  17.949  0.00  0.00    +0.000 Br
ENDBRANCH   1   4
BRANCH   2   6
ATOM      6  C   UNL     1       5.950   5.668  17.113  0.00  0.00    +0.000 C 
ATOM      7 CL   UNL     1       7.349   6.563  17.741  0.00  0.00    +0.000 Cl
ENDBRANCH   2   6
BRANCH   1   8
ATOM      8  C   UNL     1       2.829   5.897  19.529  0.00  0.00    +0.000 C 
BRANCH   8   9
ATOM      9  C   UNL     1       1.801   4.845  19.097  0.00  0.00    +0.000 C 
BRANCH   9  10
ATOM     10  C   UNL     1       0.999   4.298  20.284  0.00  0.00    +0.000 C 
BRANCH  10  12
ATOM     11  C   UNL     1       1.734   2.078  19.327  0.00  0.00    +0.000 C 
ATOM     12  C   UNL     1       1.313   2.819  20.599  0.00  0.00    +0.000 C 
ATOM     13  C   UNL     1       2.405   2.665  21.662  0.00  0.00    +0.000 C 
ENDBRANCH  10  12
ENDBRANCH   9  10
ENDBRANCH   8   9
ENDBRANCH   1   8
TORSDOF 6
ENDMDL
MODEL 8
REMARK VINA RESULT:      -5.0      1.450      2.344
REMARK  Name = 
REMARK  8 active torsions:
REMARK  status: ('A' for Active; 'I' for Inactive)
REMARK    1  A    between atoms: C_1  and  C_2
REMARK    2  A    between atoms: C_2  and  C_3
REMARK    3  A    between atoms: C_2  and  C_4
REMARK    4  A    between atoms: C_4  and  C_5
REMARK    5  A    between atoms: C_5  and  C_6
REMARK    6  A    between atoms: C_6  and  C_7
REMARK    7  A    between atoms: C_7  and  C_8
REMARK    8  A    between atoms: C_10  and  C_12
REMARK                            x       y       z     vdW  Elec       q    Type
REMARK                         _______ _______ _______ _____ _____    ______ ____
ROOT
ATOM      1  C   UNL     1       3.902   5.910  18.441  0.00  0.00    +0.000 C 
ATOM      2  C   UNL     1       4.872   4.989  18.201  0.00  0.00    +0.000 C 
ATOM      3 CL   UNL     1       5.010   3.533  19.161  0.00  0.00    +0.000 Cl
ENDROOT
BRANCH   1   4
ATOM      4  C   UNL     1       3.836   7.131  17.544  0.00  0.00    +0.000 C 
ATOM      5 BR   UNL     1       2.400   8.393  17.872  0.00  0.00    +0.000 Br
ENDBRANCH   1   4
BRANCH   2   6
ATOM      6  C   UNL     1       5.889   5.032  17.087  0.00  0.00    +0.000 C 
ATOM      7 CL   UNL     1       5.191   4.390  15.585  0.00  0.00    +0.000 Cl
ENDBRANCH   2   6
BRANCH   1   8
ATOM      8  C   UNL     1       2.908   5.746  19.585  0.00  0.00    +0.000 C 
BRANCH   8   9
ATOM      9  C   UNL     1       1.725   4.856  19.185  0.00  0.00    +0.000 C 
BRANCH   9  10
ATOM     10  C   UNL     1       0.980   4.304  20.407  0.00  0.00    +0.000 C 
BRANCH  10  12
ATOM     11  C   UNL     1       1.625   2.083  19.389  0.00  0.00    +0.000 C 
ATOM     12  C   UNL     1       1.296   2.819  20.691  0.00  0.00    +0.000 C 
ATOM     13  C   UNL     1       2.452   2.646  21.680  0.00  0.00    +0.000 C 
ENDBRANCH  10  12
ENDBRANCH   9  10
ENDBRANCH   8   9
ENDBRANCH   1   8
TORSDOF 6
ENDMDL
MODEL 9
REMARK VINA RESULT:      -5.0      1.912      2.415
REMARK  Name = 
REMARK  8 active torsions:
REMARK  status: ('A' for Active; 'I' for Inactive)
REMARK    1  A    between atoms: C_1  and  C_2
REMARK    2  A    between atoms: C_2  and  C_3
REMARK    3  A    between atoms: C_2  and  C_4
REMARK    4  A    between atoms: C_4  and  C_5
REMARK    5  A    between atoms: C_5  and  C_6
REMARK    6  A    between atoms: C_6  and  C_7
REMARK    7  A    between atoms: C_7  and  C_8
REMARK    8  A    between atoms: C_10  and  C_12
REMARK                            x       y       z     vdW  Elec       q    Type
REMARK                         _______ _______ _______ _____ _____    ______ ____
ROOT
ATOM      1  C   UNL     1       5.380   5.830  18.323  0.00  0.00    +0.000 C 
ATOM      2  C   UNL     1       6.675   6.243  18.287  0.00  0.00    +0.000 C 
ATOM      3 CL   UNL     1       7.851   5.668  19.448  0.00  0.00    +0.000 Cl
ENDROOT
BRANCH   1   4
ATOM      4  C   UNL     1       4.431   6.354  17.263  0.00  0.00    +0.000 C 
ATOM      5 BR   UNL     1       3.056   7.594  17.842  0.00  0.00    +0.000 Br
ENDBRANCH   1   4
BRANCH   2   6
ATOM      6  C   UNL     1       7.292   7.158  17.260  0.00  0.00    +0.000 C 
ATOM      7 CL   UNL     1       8.195   8.464  18.055  0.00  0.00    +0.000 Cl
ENDBRANCH   2   6
BRANCH   1   8
ATOM      8  C   UNL     1       4.874   4.876  19.399  0.00  0.00    +0.000 C 
BRANCH   8   9
ATOM      9  C   UNL     1       4.559   3.488  18.826  0.00  0.00    +0.000 C 
BRANCH   9  10
ATOM     10  C   UNL     1       3.180   2.982  19.266  0.00  0.00    +0.000 C 
BRANCH  10  12
ATOM     11  C   UNL     1       1.491   4.097  17.753  0.00  0.00    +0.000 C 
ATOM     12  C   UNL     1       2.078   4.059  19.167  0.00  0.00    +0.000 C 
ATOM     13  C   UNL     1       0.951   3.839  20.180  0.00  0.00    +0.000 C 
ENDBRANCH  10  12
ENDBRANCH   9  10
ENDBRANCH   8   9
ENDBRANCH   1   8
TORSDOF 6
ENDMDL
