MODEL 1
REMARK VINA RESULT:      -6.9      0.000      0.000
REMARK  Name = 
REMARK  7 active torsions:
REMARK  status: ('A' for Active; 'I' for Inactive)
REMARK    1  A    between atoms: C_1  and  O_2
REMARK    2  A    between atoms: O_2  and  C_3
REMARK    3  A    between atoms: N_5  and  N_6
REMARK    4  A    between atoms: C_9  and  C_10
REMARK    5  A    between atoms: C_11  and  C_12
REMARK    6  A    between atoms: C_15  and  O_16
REMARK    7  A    between atoms: C_17  and  O_18
REMARK                            x       y       z     vdW  Elec       q    Type
REMARK                         _______ _______ _______ _____ _____    ______ ____
ROOT
ATOM      1  N   UNL     1       6.334   4.911  17.701  0.00  0.00    +0.000 N 
ATOM      2  C   UNL     1       6.818   4.373  16.545  0.00  0.00    +0.000 C 
ATOM      3  O   UNL     1       7.922   4.418  16.056  0.00  0.00    +0.000 OA
ATOM      4  C   UNL     1       5.409   3.974  16.066  0.00  0.00    +0.000 C 
ATOM      5  C   UNL     1       5.042   4.584  14.722  0.00  0.00    +0.000 C 
ATOM      6  C   UNL     1       4.901   4.730  17.338  0.00  0.00    +0.000 C 
ENDROOT
BRANCH   6   7
ATOM      7  C   UNL     1       4.175   3.991  18.482  0.00  0.00    +0.000 C 
ATOM      8  N   UNL     1       4.383   2.529  18.402  0.00  0.00    +0.000 NA
ATOM      9  C   UNL     1       3.092   1.857  18.294  0.00  0.00    +0.000 C 
ATOM     10  C   UNL     1       2.100   2.922  17.846  0.00  0.00    +0.000 C 
ATOM     11  C   UNL     1       2.654   4.197  18.485  0.00  0.00    +0.000 C 
ATOM     12  H   UNL     1       4.925   2.201  19.205  0.00  0.00    +0.000 HD
BRANCH  10  13
ATOM     13  O   UNL     1       0.780   2.633  18.289  0.00  0.00    +0.000 OA
ATOM     14  H   UNL     1       0.879   2.224  19.172  0.00  0.00    +0.000 HD
ENDBRANCH  10  13
BRANCH  11  15
ATOM     15  O   UNL     1       2.165   4.268  19.841  0.00  0.00    +0.000 OA
ATOM     16  H   UNL     1       1.246   4.588  19.807  0.00  0.00    +0.000 HD
ENDBRANCH  11  15
ENDBRANCH   6   7
BRANCH   1  19
ATOM     17  C   UNL     1       7.830   6.308  18.886  0.00  0.00    +0.000 C 
ATOM     18  O   UNL     1       8.219   5.453  19.673  0.00  0.00    +0.000 OA
ATOM     19  N   UNL     1       6.759   6.196  18.039  0.00  0.00    +0.000 N 
ATOM     20  H   UNL     1       6.744   6.874  17.281  0.00  0.00    +0.000 HD
BRANCH  17  22
ATOM     21  C   UNL     1       7.813   8.300  17.675  0.00  0.00    +0.000 C 
ATOM     22  O   UNL     1       8.408   7.524  18.716  0.00  0.00    +0.000 OA
ENDBRANCH  17  22
ENDBRANCH   1  19
TORSDOF 5
ENDMDL
MODEL 2
REMARK VINA RESULT:      -6.9      2.006      3.834
REMARK  Name = 
REMARK  7 active torsions:
REMARK  status: ('A' for Active; 'I' for Inactive)
REMARK    1  A    between atoms: C_1  and  O_2
REMARK    2  A    between atoms: O_2  and  C_3
REMARK    3  A    between atoms: N_5  and  N_6
REMARK    4  A    between atoms: C_9  and  C_10
REMARK    5  A    between atoms: C_11  and  C_12
REMARK    6  A    between atoms: C_15  and  O_16
REMARK    7  A    between atoms: C_17  and  O_18
REMARK                            x       y       z     vdW  Elec       q    Type
REMARK                         _______ _______ _______ _____ _____    ______ ____
ROOT
ATOM      1  N   UNL     1       6.217   5.356  16.553  0.00  0.00    +0.000 N 
ATOM      2  C   UNL     1       6.984   6.351  17.085  0.00  0.00    +0.000 C 
ATOM      3  O   UNL     1       7.763   7.112  16.561  0.00  0.00    +0.000 OA
ATOM      4  C   UNL     1       6.658   5.919  18.527  0.00  0.00    +0.000 C 
ATOM      5  C   UNL     1       7.895   5.582  19.343  0.00  0.00    +0.000 C 
ATOM      6  C   UNL     1       5.910   4.716  17.863  0.00  0.00    +0.000 C 
ENDROOT
BRANCH   6   7
ATOM      7  C   UNL     1       4.383   4.538  17.997  0.00  0.00    +0.000 C 
ATOM      8  N   UNL     1       3.951   4.610  19.410  0.00  0.00    +0.000 NA
ATOM      9  C   UNL     1       3.269   3.373  19.776  0.00  0.00    +0.000 C 
ATOM     10  C   UNL     1       3.677   2.344  18.730  0.00  0.00    +0.000 C 
ATOM     11  C   UNL     1       3.868   3.192  17.471  0.00  0.00    +0.000 C 
ATOM     12  H   UNL     1       3.365   5.436  19.562  0.00  0.00    +0.000 HD
BRANCH  10  13
ATOM     13  O   UNL     1       2.678   1.347  18.555  0.00  0.00    +0.000 OA
ATOM     14  H   UNL     1       2.019   1.503  19.261  0.00  0.00    +0.000 HD
ENDBRANCH  10  13
BRANCH  11  15
ATOM     15  O   UNL     1       2.579   3.363  16.845  0.00  0.00    +0.000 OA
ATOM     16  H   UNL     1       2.117   4.083  17.311  0.00  0.00    +0.000 HD
ENDBRANCH  11  15
ENDBRANCH   6   7
BRANCH   1  19
ATOM     17  C   UNL     1       6.064   4.335  14.425  0.00  0.00    +0.000 C 
ATOM     18  O   UNL     1       4.846   4.421  14.321  0.00  0.00    +0.000 OA
ATOM     19  N   UNL     1       6.793   4.561  15.562  0.00  0.00    +0.000 N 
ATOM     20  H   UNL     1       7.788   4.709  15.407  0.00  0.00    +0.000 HD
BRANCH  17  22
ATOM     21  C   UNL     1       6.254   3.370  12.311  0.00  0.00    +0.000 C 
ATOM     22  O   UNL     1       6.905   4.004  13.414  0.00  0.00    +0.000 OA
ENDBRANCH  17  22
ENDBRANCH   1  19
TORSDOF 5
ENDMDL
MODEL 3
REMARK VINA RESULT:      -6.8      1.701      2.096
REMARK  Name = 
REMARK  7 active torsions:
REMARK  status: ('A' for Active; 'I' for Inactive)
REMARK    1  A    between atoms: C_1  and  O_2
REMARK    2  A    between atoms: O_2  and  C_3
REMARK    3  A    between atoms: N_5  and  N_6
REMARK    4  A    between atoms: C_9  and  C_10
REMARK    5  A    between atoms: C_11  and  C_12
REMARK    6  A    between atoms: C_15  and  O_16
REMARK    7  A    between atoms: C_17  and  O_18
REMARK                            x       y       z     vdW  Elec       q    Type
REMARK                         _______ _______ _______ _____ _____    ______ ____
ROOT
ATOM      1  N   UNL     1       6.386   5.228  16.236  0.00  0.00    +0.000 N 
ATOM      2  C   UNL     1       7.011   4.799  15.102  0.00  0.00    +0.000 C 
ATOM      3  O   UNL     1       8.031   5.175  14.574  0.00  0.00    +0.000 OA
ATOM      4  C   UNL     1       5.813   3.919  14.699  0.00  0.00    +0.000 C 
ATOM      5  C   UNL     1       5.249   4.270  13.331  0.00  0.00    +0.000 C 
ATOM      6  C   UNL     1       5.094   4.552  15.935  0.00  0.00    +0.000 C 
ENDROOT
BRANCH   6   7
ATOM      7  C   UNL     1       4.670   3.699  17.150  0.00  0.00    +0.000 C 
ATOM      8  N   UNL     1       3.219   3.411  17.129  0.00  0.00    +0.000 NA
ATOM      9  C   UNL     1       2.602   3.919  18.350  0.00  0.00    +0.000 C 
ATOM     10  C   UNL     1       3.584   4.932  18.925  0.00  0.00    +0.000 C 
ATOM     11  C   UNL     1       4.942   4.370  18.502  0.00  0.00    +0.000 C 
ATOM     12  H   UNL     1       3.057   2.409  17.001  0.00  0.00    +0.000 HD
BRANCH  10  13
ATOM     13  O   UNL     1       3.465   5.034  20.339  0.00  0.00    +0.000 OA
ATOM     14  H   UNL     1       3.618   4.133  20.686  0.00  0.00    +0.000 HD
ENDBRANCH  10  13
BRANCH  11  15
ATOM     15  O   UNL     1       5.343   3.383  19.475  0.00  0.00    +0.000 OA
ATOM     16  H   UNL     1       4.581   2.796  19.632  0.00  0.00    +0.000 HD
ENDBRANCH  11  15
ENDBRANCH   6   7
BRANCH   1  19
ATOM     17  C   UNL     1       7.247   7.106  17.388  0.00  0.00    +0.000 C 
ATOM     18  O   UNL     1       7.792   6.476  18.286  0.00  0.00    +0.000 OA
ATOM     19  N   UNL     1       6.359   6.602  16.474  0.00  0.00    +0.000 N 
ATOM     20  H   UNL     1       6.219   7.185  15.652  0.00  0.00    +0.000 HD
BRANCH  17  22
ATOM     21  C   UNL     1       8.281   9.071  18.099  0.00  0.00    +0.000 C 
ATOM     22  O   UNL     1       7.439   8.426  17.141  0.00  0.00    +0.000 OA
ENDBRANCH  17  22
ENDBRANCH   1  19
TORSDOF 5
ENDMDL
MODEL 4
REMARK VINA RESULT:      -6.8      1.129      1.209
REMARK  Name = 
REMARK  7 active torsions:
REMARK  status: ('A' for Active; 'I' for Inactive)
REMARK    1  A    between atoms: C_1  and  O_2
REMARK    2  A    between atoms: O_2  and  C_3
REMARK    3  A    between atoms: N_5  and  N_6
REMARK    4  A    between atoms: C_9  and  C_10
REMARK    5  A    between atoms: C_11  and  C_12
REMARK    6  A    between atoms: C_15  and  O_16
REMARK    7  A    between atoms: C_17  and  O_18
REMARK                            x       y       z     vdW  Elec       q    Type
REMARK                         _______ _______ _______ _____ _____    ______ ____
ROOT
ATOM      1  N   UNL     1       6.426   5.335  16.617  0.00  0.00    +0.000 N 
ATOM      2  C   UNL     1       6.988   4.752  15.519  0.00  0.00    +0.000 C 
ATOM      3  O   UNL     1       8.011   5.006  14.928  0.00  0.00    +0.000 OA
ATOM      4  C   UNL     1       5.729   3.909  15.242  0.00  0.00    +0.000 C 
ATOM      5  C   UNL     1       5.143   4.149  13.860  0.00  0.00    +0.000 C 
ATOM      6  C   UNL     1       5.087   4.712  16.422  0.00  0.00    +0.000 C 
ENDROOT
BRANCH   6   7
ATOM      7  C   UNL     1       4.653   4.019  17.731  0.00  0.00    +0.000 C 
ATOM      8  N   UNL     1       4.394   2.578  17.521  0.00  0.00    +0.000 NA
ATOM      9  C   UNL     1       3.020   2.267  17.902  0.00  0.00    +0.000 C 
ATOM     10  C   UNL     1       2.278   3.597  17.916  0.00  0.00    +0.000 C 
ATOM     11  C   UNL     1       3.363   4.590  18.335  0.00  0.00    +0.000 C 
ATOM     12  H   UNL     1       5.076   2.015  18.036  0.00  0.00    +0.000 HD
BRANCH  10  13
ATOM     13  O   UNL     1       1.187   3.581  18.829  0.00  0.00    +0.000 OA
ATOM     14  H   UNL     1       0.380   3.535  18.279  0.00  0.00    +0.000 HD
ENDBRANCH  10  13
BRANCH  11  15
ATOM     15  O   UNL     1       3.445   4.585  19.775  0.00  0.00    +0.000 OA
ATOM     16  H   UNL     1       4.020   5.325  20.041  0.00  0.00    +0.000 HD
ENDBRANCH  11  15
ENDBRANCH   6   7
BRANCH   1  19
ATOM     17  C   UNL     1       7.398   7.265  17.577  0.00  0.00    +0.000 C 
ATOM     18  O   UNL     1       7.893   6.701  18.545  0.00  0.00    +0.000 OA
ATOM     19  N   UNL     1       6.487   6.725  16.708  0.00  0.00    +0.000 N 
ATOM     20  H   UNL     1       6.393   7.225  15.826  0.00  0.00    +0.000 HD
BRANCH  17  22
ATOM     21  C   UNL     1       8.412   9.279  18.171  0.00  0.00    +0.000 C 
ATOM     22  O   UNL     1       7.679   8.537  17.195  0.00  0.00    +0.000 OA
ENDBRANCH  17  22
ENDBRANCH   1  19
TORSDOF 5
ENDMDL
MODEL 5
REMARK VINA RESULT:      -6.8      2.321      5.275
REMARK  Name = 
REMARK  7 active torsions:
REMARK  status: ('A' for Active; 'I' for Inactive)
REMARK    1  A    between atoms: C_1  and  O_2
REMARK    2  A    between atoms: O_2  and  C_3
REMARK    3  A    between atoms: N_5  and  N_6
REMARK    4  A    between atoms: C_9  and  C_10
REMARK    5  A    between atoms: C_11  and  C_12
REMARK    6  A    between atoms: C_15  and  O_16
REMARK    7  A    between atoms: C_17  and  O_18
REMARK                            x       y       z     vdW  Elec       q    Type
REMARK                         _______ _______ _______ _____ _____    ______ ____
ROOT
ATOM      1  N   UNL     1       2.891   4.751  17.913  0.00  0.00    +0.000 N 
ATOM      2  C   UNL     1       2.074   3.660  17.976  0.00  0.00    +0.000 C 
ATOM      3  O   UNL     1       0.953   3.538  18.411  0.00  0.00    +0.000 OA
ATOM      4  C   UNL     1       3.208   2.707  17.552  0.00  0.00    +0.000 C 
ATOM      5  C   UNL     1       3.472   1.607  18.567  0.00  0.00    +0.000 C 
ATOM      6  C   UNL     1       4.128   3.969  17.633  0.00  0.00    +0.000 C 
ENDROOT
BRANCH   6   7
ATOM      7  C   UNL     1       4.823   4.547  16.382  0.00  0.00    +0.000 C 
ATOM      8  N   UNL     1       5.947   3.691  15.944  0.00  0.00    +0.000 NA
ATOM      9  C   UNL     1       7.182   4.469  15.942  0.00  0.00    +0.000 C 
ATOM     10  C   UNL     1       6.913   5.685  16.818  0.00  0.00    +0.000 C 
ATOM     11  C   UNL     1       5.421   5.944  16.596  0.00  0.00    +0.000 C 
ATOM     12  H   UNL     1       5.746   3.280  15.028  0.00  0.00    +0.000 HD
BRANCH  10  13
ATOM     13  O   UNL     1       7.710   6.798  16.432  0.00  0.00    +0.000 OA
ATOM     14  H   UNL     1       7.103   7.418  15.981  0.00  0.00    +0.000 HD
ENDBRANCH  10  13
BRANCH  11  15
ATOM     15  O   UNL     1       5.276   6.735  15.399  0.00  0.00    +0.000 OA
ATOM     16  H   UNL     1       4.404   7.169  15.436  0.00  0.00    +0.000 HD
ENDBRANCH  11  15
ENDBRANCH   6   7
BRANCH   1  19
ATOM     17  C   UNL     1       2.532   6.913  18.802  0.00  0.00    +0.000 C 
ATOM     18  O   UNL     1       2.560   7.506  17.730  0.00  0.00    +0.000 OA
ATOM     19  N   UNL     1       2.901   5.610  19.011  0.00  0.00    +0.000 N 
ATOM     20  H   UNL     1       2.564   5.208  19.883  0.00  0.00    +0.000 HD
BRANCH  17  22
ATOM     21  C   UNL     1       1.550   6.502  20.876  0.00  0.00    +0.000 C 
ATOM     22  O   UNL     1       2.120   7.454  19.976  0.00  0.00    +0.000 OA
ENDBRANCH  17  22
ENDBRANCH   1  19
TORSDOF 5
ENDMDL
MODEL 6
REMARK VINA RESULT:      -6.8      2.505      3.215
REMARK  Name = 
REMARK  7 active torsions:
REMARK  status: ('A' for Active; 'I' for Inactive)
REMARK    1  A    between atoms: C_1  and  O_2
REMARK    2  A    between atoms: O_2  and  C_3
REMARK    3  A    between atoms: N_5  and  N_6
REMARK    4  A    between atoms: C_9  and  C_10
REMARK    5  A    between atoms: C_11  and  C_12
REMARK    6  A    between atoms: C_15  and  O_16
REMARK    7  A    between atoms: C_17  and  O_18
REMARK                            x       y       z     vdW  Elec       q    Type
REMARK                         _______ _______ _______ _____ _____    ______ ____
ROOT
ATOM      1  N   UNL     1       4.632   6.281  17.579  0.00  0.00    +0.000 N 
ATOM      2  C   UNL     1       5.910   6.330  17.104  0.00  0.00    +0.000 C 
ATOM      3  O   UNL     1       6.617   7.274  16.840  0.00  0.00    +0.000 OA
ATOM      4  C   UNL     1       5.931   4.816  16.821  0.00  0.00    +0.000 C 
ATOM      5  C   UNL     1       6.224   4.485  15.366  0.00  0.00    +0.000 C 
ATOM      6  C   UNL     1       4.425   4.844  17.242  0.00  0.00    +0.000 C 
ENDROOT
BRANCH   6   7
ATOM      7  C   UNL     1       3.919   4.096  18.494  0.00  0.00    +0.000 C 
ATOM      8  N   UNL     1       4.586   2.785  18.647  0.00  0.00    +0.000 NA
ATOM      9  C   UNL     1       3.583   1.725  18.655  0.00  0.00    +0.000 C 
ATOM     10  C   UNL     1       2.326   2.332  18.046  0.00  0.00    +0.000 C 
ATOM     11  C   UNL     1       2.414   3.799  18.471  0.00  0.00    +0.000 C 
ATOM     12  H   UNL     1       5.166   2.776  19.490  0.00  0.00    +0.000 HD
BRANCH  10  13
ATOM     13  O   UNL     1       1.148   1.704  18.537  0.00  0.00    +0.000 OA
ATOM     14  H   UNL     1       1.388   0.769  18.691  0.00  0.00    +0.000 HD
ENDBRANCH  10  13
BRANCH  11  15
ATOM     15  O   UNL     1       1.865   3.916  19.800  0.00  0.00    +0.000 OA
ATOM     16  H   UNL     1       1.221   4.646  19.790  0.00  0.00    +0.000 HD
ENDBRANCH  11  15
ENDBRANCH   6   7
BRANCH   1  19
ATOM     17  C   UNL     1       2.835   7.774  17.943  0.00  0.00    +0.000 C 
ATOM     18  O   UNL     1       2.489   7.309  19.023  0.00  0.00    +0.000 OA
ATOM     19  N   UNL     1       3.721   7.204  17.067  0.00  0.00    +0.000 N 
ATOM     20  H   UNL     1       4.092   7.840  16.364  0.00  0.00    +0.000 HD
BRANCH  17  22
ATOM     21  C   UNL     1       1.318   9.530  18.168  0.00  0.00    +0.000 C 
ATOM     22  O   UNL     1       2.395   8.951  17.430  0.00  0.00    +0.000 OA
ENDBRANCH  17  22
ENDBRANCH   1  19
TORSDOF 5
ENDMDL
MODEL 7
REMARK VINA RESULT:      -6.8      1.061      1.254
REMARK  Name = 
REMARK  7 active torsions:
REMARK  status: ('A' for Active; 'I' for Inactive)
REMARK    1  A    between atoms: C_1  and  O_2
REMARK    2  A    between atoms: O_2  and  C_3
REMARK    3  A    between atoms: N_5  and  N_6
REMARK    4  A    between atoms: C_9  and  C_10
REMARK    5  A    between atoms: C_11  and  C_12
REMARK    6  A    between atoms: C_15  and  O_16
REMARK    7  A    between atoms: C_17  and  O_18
REMARK                            x       y       z     vdW  Elec       q    Type
REMARK                         _______ _______ _______ _____ _____    ______ ____
ROOT
ATOM      1  N   UNL     1       6.085   5.138  17.523  0.00  0.00    +0.000 N 
ATOM      2  C   UNL     1       6.752   4.351  16.631  0.00  0.00    +0.000 C 
ATOM      3  O   UNL     1       7.933   4.122  16.509  0.00  0.00    +0.000 OA
ATOM      4  C   UNL     1       5.489   4.143  15.773  0.00  0.00    +0.000 C 
ATOM      5  C   UNL     1       5.666   4.596  14.332  0.00  0.00    +0.000 C 
ATOM      6  C   UNL     1       4.813   5.162  16.748  0.00  0.00    +0.000 C 
ENDROOT
BRANCH   6   7
ATOM      7  C   UNL     1       3.646   4.749  17.670  0.00  0.00    +0.000 C 
ATOM      8  N   UNL     1       4.101   4.551  19.063  0.00  0.00    +0.000 NA
ATOM      9  C   UNL     1       3.796   3.189  19.488  0.00  0.00    +0.000 C 
ATOM     10  C   UNL     1       3.565   2.393  18.210  0.00  0.00    +0.000 C 
ATOM     11  C   UNL     1       2.970   3.435  17.261  0.00  0.00    +0.000 C 
ATOM     12  H   UNL     1       3.681   5.253  19.679  0.00  0.00    +0.000 HD
BRANCH  10  13
ATOM     13  O   UNL     1       2.681   1.299  18.424  0.00  0.00    +0.000 OA
ATOM     14  H   UNL     1       1.882   1.679  18.841  0.00  0.00    +0.000 HD
ENDBRANCH  10  13
BRANCH  11  15
ATOM     15  O   UNL     1       1.550   3.509  17.508  0.00  0.00    +0.000 OA
ATOM     16  H   UNL     1       1.391   3.194  18.416  0.00  0.00    +0.000 HD
ENDBRANCH  11  15
ENDBRANCH   6   7
BRANCH   1  19
ATOM     17  C   UNL     1       7.648   6.358  18.811  0.00  0.00    +0.000 C 
ATOM     18  O   UNL     1       7.823   5.496  19.665  0.00  0.00    +0.000 OA
ATOM     19  N   UNL     1       6.664   6.361  17.859  0.00  0.00    +0.000 N 
ATOM     20  H   UNL     1       6.828   6.995  17.080  0.00  0.00    +0.000 HD
BRANCH  17  22
ATOM     21  C   UNL     1       7.903   8.395  17.706  0.00  0.00    +0.000 C 
ATOM     22  O   UNL     1       8.417   7.466  18.661  0.00  0.00    +0.000 OA
ENDBRANCH  17  22
ENDBRANCH   1  19
TORSDOF 5
ENDMDL
MODEL 8
REMARK VINA RESULT:      -6.8      2.541      5.236
REMARK  Name = 
REMARK  7 active torsions:
REMARK  status: ('A' for Active; 'I' for Inactive)
REMARK    1  A    between atoms: C_1  and  O_2
REMARK    2  A    between atoms: O_2  and  C_3
REMARK    3  A    between atoms: N_5  and  N_6
REMARK    4  A    between atoms: C_9  and  C_10
REMARK    5  A    between atoms: C_11  and  C_12
REMARK    6  A    between atoms: C_15  and  O_16
REMARK    7  A    between atoms: C_17  and  O_18
REMARK                            x       y       z     vdW  Elec       q    Type
REMARK                         _______ _______ _______ _____ _____    ______ ____
ROOT
ATOM      1  N   UNL     1       3.107   5.241  17.924  0.00  0.00    +0.000 N 
ATOM      2  C   UNL     1       2.280   4.238  17.510  0.00  0.00    +0.000 C 
ATOM      3  O   UNL     1       1.075   4.192  17.430  0.00  0.00    +0.000 OA
ATOM      4  C   UNL     1       3.434   3.218  17.471  0.00  0.00    +0.000 C 
ATOM      5  C   UNL     1       3.190   2.008  18.358  0.00  0.00    +0.000 C 
ATOM      6  C   UNL     1       4.303   4.367  18.079  0.00  0.00    +0.000 C 
ENDROOT
BRANCH   6   7
ATOM      7  C   UNL     1       5.488   4.983  17.306  0.00  0.00    +0.000 C 
ATOM      8  N   UNL     1       6.623   4.039  17.212  0.00  0.00    +0.000 NA
ATOM      9  C   UNL     1       7.809   4.640  17.813  0.00  0.00    +0.000 C 
ATOM     10  C   UNL     1       7.304   5.775  18.694  0.00  0.00    +0.000 C 
ATOM     11  C   UNL     1       6.054   6.254  17.952  0.00  0.00    +0.000 C 
ATOM     12  H   UNL     1       6.778   3.765  16.239  0.00  0.00    +0.000 HD
BRANCH  10  13
ATOM     13  O   UNL     1       8.273   6.807  18.829  0.00  0.00    +0.000 OA
ATOM     14  H   UNL     1       7.934   7.562  18.308  0.00  0.00    +0.000 HD
ENDBRANCH  10  13
BRANCH  11  15
ATOM     15  O   UNL     1       6.468   7.188  16.932  0.00  0.00    +0.000 OA
ATOM     16  H   UNL     1       6.827   7.975  17.380  0.00  0.00    +0.000 HD
ENDBRANCH  11  15
ENDBRANCH   6   7
BRANCH   1  19
ATOM     17  C   UNL     1       2.517   7.336  18.851  0.00  0.00    +0.000 C 
ATOM     18  O   UNL     1       3.013   8.021  17.964  0.00  0.00    +0.000 OA
ATOM     19  N   UNL     1       2.703   5.991  19.029  0.00  0.00    +0.000 N 
ATOM     20  H   UNL     1       2.018   5.543  19.634  0.00  0.00    +0.000 HD
BRANCH  17  22
ATOM     21  C   UNL     1       1.246   9.145  19.593  0.00  0.00    +0.000 C 
ATOM     22  O   UNL     1       1.683   7.802  19.814  0.00  0.00    +0.000 OA
ENDBRANCH  17  22
ENDBRANCH   1  19
TORSDOF 5
ENDMDL
MODEL 9
REMARK VINA RESULT:      -6.6      2.108      5.435
REMARK  Name = 
REMARK  7 active torsions:
REMARK  status: ('A' for Active; 'I' for Inactive)
REMARK    1  A    between atoms: C_1  and  O_2
REMARK    2  A    between atoms: O_2  and  C_3
REMARK    3  A    between atoms: N_5  and  N_6
REMARK    4  A    between atoms: C_9  and  C_10
REMARK    5  A    between atoms: C_11  and  C_12
REMARK    6  A    between atoms: C_15  and  O_16
REMARK    7  A    between atoms: C_17  and  O_18
REMARK                            x       y       z     vdW  Elec       q    Type
REMARK                         _______ _______ _______ _____ _____    ______ ____
ROOT
ATOM      1  N   UNL     1       3.975   5.330  18.546  0.00  0.00    +0.000 N 
ATOM      2  C   UNL     1       3.127   6.100  19.286  0.00  0.00    +0.000 C 
ATOM      3  O   UNL     1       2.392   5.809  20.201  0.00  0.00    +0.000 OA
ATOM      4  C   UNL     1       3.300   7.308  18.345  0.00  0.00    +0.000 C 
ATOM      5  C   UNL     1       1.988   7.793  17.751  0.00  0.00    +0.000 C 
ATOM      6  C   UNL     1       4.150   6.336  17.462  0.00  0.00    +0.000 C 
ENDROOT
BRANCH   6   7
ATOM      7  C   UNL     1       5.657   6.569  17.221  0.00  0.00    +0.000 C 
ATOM      8  N   UNL     1       6.044   6.222  15.836  0.00  0.00    +0.000 NA
ATOM      9  C   UNL     1       7.077   5.192  15.860  0.00  0.00    +0.000 C 
ATOM     10  C   UNL     1       7.010   4.564  17.246  0.00  0.00    +0.000 C 
ATOM     11  C   UNL     1       6.565   5.731  18.130  0.00  0.00    +0.000 C 
ATOM     12  H   UNL     1       6.343   7.059  15.330  0.00  0.00    +0.000 HD
BRANCH  10  13
ATOM     13  O   UNL     1       8.270   4.040  17.648  0.00  0.00    +0.000 OA
ATOM     14  H   UNL     1       8.942   4.574  17.179  0.00  0.00    +0.000 HD
ENDBRANCH  10  13
BRANCH  11  15
ATOM     15  O   UNL     1       7.737   6.489  18.496  0.00  0.00    +0.000 OA
ATOM     16  H   UNL     1       8.420   5.857  18.785  0.00  0.00    +0.000 HD
ENDBRANCH  11  15
ENDBRANCH   6   7
BRANCH   1  19
ATOM     17  C   UNL     1       3.953   3.000  18.952  0.00  0.00    +0.000 C 
ATOM     18  O   UNL     1       4.945   2.978  19.670  0.00  0.00    +0.000 OA
ATOM     19  N   UNL     1       3.536   4.056  18.185  0.00  0.00    +0.000 N 
ATOM     20  H   UNL     1       2.569   4.000  17.873  0.00  0.00    +0.000 HD
BRANCH  17  22
ATOM     21  C   UNL     1       1.713   2.353  18.907  0.00  0.00    +0.000 C 
ATOM     22  O   UNL     1       3.085   1.968  18.798  0.00  0.00    +0.000 OA
ENDBRANCH  17  22
ENDBRANCH   1  19
TORSDOF 5
ENDMDL
