MODEL 1
REMARK VINA RESULT:      -7.3      0.000      0.000
REMARK  Name = 
REMARK  8 active torsions:
REMARK  status: ('A' for Active; 'I' for Inactive)
REMARK    1  A    between atoms: C_1  and  C_2
REMARK    2  A    between atoms: C_2  and  C_3
REMARK    3  A    between atoms: C_2  and  C_7
REMARK    4  A    between atoms: C_3  and  C_4
REMARK    5  A    between atoms: C_4  and  O_6
REMARK    6  A    between atoms: C_7  and  C_8
REMARK    7  A    between atoms: C_8  and  C_10
REMARK    8  A    between atoms: C_13  and  C_14
REMARK                            x       y       z     vdW  Elec       q    Type
REMARK                         _______ _______ _______ _____ _____    ______ ____
ROOT
ATOM      1  C   UNL     1       3.935   5.451  18.030  0.00  0.00    +0.000 A 
ATOM      2  C   UNL     1       4.144   4.142  17.591  0.00  0.00    +0.000 A 
ATOM      3  C   UNL     1       4.819   3.897  16.396  0.00  0.00    +0.000 A 
ATOM      4  C   UNL     1       5.311   4.939  15.595  0.00  0.00    +0.000 A 
ATOM      5  C   UNL     1       5.088   6.253  16.044  0.00  0.00    +0.000 A 
ATOM      6  C   UNL     1       4.410   6.507  17.247  0.00  0.00    +0.000 A 
ENDROOT
BRANCH   4   7
ATOM      7  C   UNL     1       6.064   4.630  14.360  0.00  0.00    +0.000 A 
ATOM      8  C   UNL     1       7.247   5.327  14.037  0.00  0.00    +0.000 A 
ATOM      9  C   UNL     1       7.916   5.117  12.829  0.00  0.00    +0.000 A 
ATOM     10  C   UNL     1       7.431   4.181  11.923  0.00  0.00    +0.000 A 
ATOM     11  C   UNL     1       6.280   3.457  12.228  0.00  0.00    +0.000 A 
ATOM     12  C   UNL     1       5.605   3.681  13.431  0.00  0.00    +0.000 A 
ENDBRANCH   4   7
BRANCH   1  13
ATOM     13  C   UNL     1       3.232   5.746  19.317  0.00  0.00    +0.000 C 
ATOM     14  O   UNL     1       2.582   6.785  19.436  0.00  0.00    +0.000 OA
BRANCH  13  15
ATOM     15  C   UNL     1       3.386   4.755  20.463  0.00  0.00    +0.000 C 
BRANCH  15  17
ATOM     16  C   UNL     1       2.463   2.734  21.662  0.00  0.00    +0.000 C 
ATOM     17  C   UNL     1       2.510   3.501  20.337  0.00  0.00    +0.000 C 
BRANCH  17  18
ATOM     18  C   UNL     1       1.099   3.878  19.848  0.00  0.00    +0.000 C 
BRANCH  18  19
ATOM     19  C   UNL     1       0.689   3.191  18.562  0.00  0.00    +0.000 C 
ATOM     20  O   UNL     1       0.234   2.059  18.513  0.00  0.00    +0.000 OA
BRANCH  19  21
ATOM     21  O   UNL     1       0.917   3.929  17.458  0.00  0.00    +0.000 OA
ATOM     22  H   UNL     1       0.162   4.481  17.181  0.00  0.00    +0.000 HD
ENDBRANCH  19  21
ENDBRANCH  18  19
ENDBRANCH  17  18
ENDBRANCH  15  17
ENDBRANCH  13  15
ENDBRANCH   1  13
TORSDOF 7
ENDMDL
MODEL 2
REMARK VINA RESULT:      -7.2      3.768      7.901
REMARK  Name = 
REMARK  8 active torsions:
REMARK  status: ('A' for Active; 'I' for Inactive)
REMARK    1  A    between atoms: C_1  and  C_2
REMARK    2  A    between atoms: C_2  and  C_3
REMARK    3  A    between atoms: C_2  and  C_7
REMARK    4  A    between atoms: C_3  and  C_4
REMARK    5  A    between atoms: C_4  and  O_6
REMARK    6  A    between atoms: C_7  and  C_8
REMARK    7  A    between atoms: C_8  and  C_10
REMARK    8  A    between atoms: C_13  and  C_14
REMARK                            x       y       z     vdW  Elec       q    Type
REMARK                         _______ _______ _______ _____ _____    ______ ____
ROOT
ATOM      1  C   UNL     1       3.266   5.421  18.836  0.00  0.00    +0.000 A 
ATOM      2  C   UNL     1       3.087   6.643  18.185  0.00  0.00    +0.000 A 
ATOM      3  C   UNL     1       2.352   7.664  18.788  0.00  0.00    +0.000 A 
ATOM      4  C   UNL     1       1.770   7.509  20.056  0.00  0.00    +0.000 A 
ATOM      5  C   UNL     1       1.951   6.271  20.698  0.00  0.00    +0.000 A 
ATOM      6  C   UNL     1       2.690   5.239  20.097  0.00  0.00    +0.000 A 
ENDROOT
BRANCH   4   7
ATOM      7  C   UNL     1       1.040   8.636  20.677  0.00  0.00    +0.000 A 
ATOM      8  C   UNL     1       0.931   8.747  22.078  0.00  0.00    +0.000 A 
ATOM      9  C   UNL     1       0.165   9.748  22.678  0.00  0.00    +0.000 A 
ATOM     10  C   UNL     1      -0.492  10.683  21.888  0.00  0.00    +0.000 A 
ATOM     11  C   UNL     1      -0.380  10.617  20.501  0.00  0.00    +0.000 A 
ATOM     12  C   UNL     1       0.376   9.603  19.903  0.00  0.00    +0.000 A 
ENDBRANCH   4   7
BRANCH   1  13
ATOM     13  C   UNL     1       4.065   4.314  18.225  0.00  0.00    +0.000 C 
ATOM     14  O   UNL     1       4.540   3.434  18.942  0.00  0.00    +0.000 OA
BRANCH  13  15
ATOM     15  C   UNL     1       4.302   4.346  16.721  0.00  0.00    +0.000 C 
BRANCH  15  17
ATOM     16  C   UNL     1       5.922   4.037  14.808  0.00  0.00    +0.000 C 
ATOM     17  C   UNL     1       5.782   4.283  16.313  0.00  0.00    +0.000 C 
BRANCH  17  18
ATOM     18  C   UNL     1       6.514   5.565  16.750  0.00  0.00    +0.000 C 
BRANCH  18  19
ATOM     19  C   UNL     1       7.554   5.343  17.829  0.00  0.00    +0.000 C 
ATOM     20  O   UNL     1       7.969   6.227  18.563  0.00  0.00    +0.000 OA
BRANCH  19  21
ATOM     21  O   UNL     1       8.021   4.080  17.879  0.00  0.00    +0.000 OA
ATOM     22  H   UNL     1       8.127   3.727  18.782  0.00  0.00    +0.000 HD
ENDBRANCH  19  21
ENDBRANCH  18  19
ENDBRANCH  17  18
ENDBRANCH  15  17
ENDBRANCH  13  15
ENDBRANCH   1  13
TORSDOF 7
ENDMDL
MODEL 3
REMARK VINA RESULT:      -7.2      4.587      8.388
REMARK  Name = 
REMARK  8 active torsions:
REMARK  status: ('A' for Active; 'I' for Inactive)
REMARK    1  A    between atoms: C_1  and  C_2
REMARK    2  A    between atoms: C_2  and  C_3
REMARK    3  A    between atoms: C_2  and  C_7
REMARK    4  A    between atoms: C_3  and  C_4
REMARK    5  A    between atoms: C_4  and  O_6
REMARK    6  A    between atoms: C_7  and  C_8
REMARK    7  A    between atoms: C_8  and  C_10
REMARK    8  A    between atoms: C_13  and  C_14
REMARK                            x       y       z     vdW  Elec       q    Type
REMARK                         _______ _______ _______ _____ _____    ______ ____
ROOT
ATOM      1  C   UNL     1       2.652   7.473  18.466  0.00  0.00    +0.000 A 
ATOM      2  C   UNL     1       2.088   8.673  18.028  0.00  0.00    +0.000 A 
ATOM      3  C   UNL     1       1.288   9.431  18.882  0.00  0.00    +0.000 A 
ATOM      4  C   UNL     1       1.020   9.028  20.199  0.00  0.00    +0.000 A 
ATOM      5  C   UNL     1       1.587   7.813  20.626  0.00  0.00    +0.000 A 
ATOM      6  C   UNL     1       2.395   7.045  19.771  0.00  0.00    +0.000 A 
ENDROOT
BRANCH   4   7
ATOM      7  C   UNL     1       0.205   9.888  21.085  0.00  0.00    +0.000 A 
ATOM      8  C   UNL     1      -0.028   9.531  22.430  0.00  0.00    +0.000 A 
ATOM      9  C   UNL     1      -0.874  10.280  23.251  0.00  0.00    +0.000 A 
ATOM     10  C   UNL     1      -1.486  11.424  22.754  0.00  0.00    +0.000 A 
ATOM     11  C   UNL     1      -1.252  11.818  21.438  0.00  0.00    +0.000 A 
ATOM     12  C   UNL     1      -0.417  11.056  20.614  0.00  0.00    +0.000 A 
ENDBRANCH   4   7
BRANCH   1  13
ATOM     13  C   UNL     1       3.530   6.648  17.580  0.00  0.00    +0.000 C 
ATOM     14  O   UNL     1       4.286   7.201  16.781  0.00  0.00    +0.000 OA
BRANCH  13  15
ATOM     15  C   UNL     1       3.419   5.132  17.669  0.00  0.00    +0.000 C 
BRANCH  15  17
ATOM     16  C   UNL     1       4.438   3.224  18.973  0.00  0.00    +0.000 C 
ATOM     17  C   UNL     1       4.724   4.425  18.066  0.00  0.00    +0.000 C 
BRANCH  17  18
ATOM     18  C   UNL     1       5.515   4.015  16.811  0.00  0.00    +0.000 C 
BRANCH  18  19
ATOM     19  C   UNL     1       6.945   4.515  16.793  0.00  0.00    +0.000 C 
ATOM     20  O   UNL     1       7.442   5.114  15.852  0.00  0.00    +0.000 OA
BRANCH  19  21
ATOM     21  O   UNL     1       7.643   4.195  17.900  0.00  0.00    +0.000 OA
ATOM     22  H   UNL     1       7.101   4.110  18.706  0.00  0.00    +0.000 HD
ENDBRANCH  19  21
ENDBRANCH  18  19
ENDBRANCH  17  18
ENDBRANCH  15  17
ENDBRANCH  13  15
ENDBRANCH   1  13
TORSDOF 7
ENDMDL
MODEL 4
REMARK VINA RESULT:      -7.2      4.273      8.305
REMARK  Name = 
REMARK  8 active torsions:
REMARK  status: ('A' for Active; 'I' for Inactive)
REMARK    1  A    between atoms: C_1  and  C_2
REMARK    2  A    between atoms: C_2  and  C_3
REMARK    3  A    between atoms: C_2  and  C_7
REMARK    4  A    between atoms: C_3  and  C_4
REMARK    5  A    between atoms: C_4  and  O_6
REMARK    6  A    between atoms: C_7  and  C_8
REMARK    7  A    between atoms: C_8  and  C_10
REMARK    8  A    between atoms: C_13  and  C_14
REMARK                            x       y       z     vdW  Elec       q    Type
REMARK                         _______ _______ _______ _____ _____    ______ ____
ROOT
ATOM      1  C   UNL     1       2.417   6.110  18.985  0.00  0.00    +0.000 A 
ATOM      2  C   UNL     1       1.928   5.916  20.279  0.00  0.00    +0.000 A 
ATOM      3  C   UNL     1       1.375   6.980  20.991  0.00  0.00    +0.000 A 
ATOM      4  C   UNL     1       1.288   8.271  20.448  0.00  0.00    +0.000 A 
ATOM      5  C   UNL     1       1.791   8.454  19.147  0.00  0.00    +0.000 A 
ATOM      6  C   UNL     1       2.347   7.388  18.423  0.00  0.00    +0.000 A 
ENDROOT
BRANCH   4   7
ATOM      7  C   UNL     1       0.650   9.358  21.222  0.00  0.00    +0.000 A 
ATOM      8  C   UNL     1      -0.040   9.086  22.422  0.00  0.00    +0.000 A 
ATOM      9  C   UNL     1      -0.730  10.084  23.113  0.00  0.00    +0.000 A 
ATOM     10  C   UNL     1      -0.724  11.389  22.634  0.00  0.00    +0.000 A 
ATOM     11  C   UNL     1      -0.027  11.693  21.466  0.00  0.00    +0.000 A 
ATOM     12  C   UNL     1       0.650  10.688  20.769  0.00  0.00    +0.000 A 
ENDBRANCH   4   7
BRANCH   1  13
ATOM     13  C   UNL     1       2.997   4.985  18.188  0.00  0.00    +0.000 C 
ATOM     14  O   UNL     1       2.272   4.063  17.812  0.00  0.00    +0.000 OA
BRANCH  13  15
ATOM     15  C   UNL     1       4.494   5.001  17.906  0.00  0.00    +0.000 C 
BRANCH  15  17
ATOM     16  C   UNL     1       5.598   6.835  16.567  0.00  0.00    +0.000 C 
ATOM     17  C   UNL     1       4.867   5.490  16.499  0.00  0.00    +0.000 C 
BRANCH  17  18
ATOM     18  C   UNL     1       5.702   4.426  15.765  0.00  0.00    +0.000 C 
BRANCH  18  19
ATOM     19  C   UNL     1       7.195   4.675  15.810  0.00  0.00    +0.000 C 
ATOM     20  O   UNL     1       7.899   4.409  16.773  0.00  0.00    +0.000 OA
BRANCH  19  21
ATOM     21  O   UNL     1       7.679   5.268  14.701  0.00  0.00    +0.000 OA
ATOM     22  H   UNL     1       7.331   4.902  13.866  0.00  0.00    +0.000 HD
ENDBRANCH  19  21
ENDBRANCH  18  19
ENDBRANCH  17  18
ENDBRANCH  15  17
ENDBRANCH  13  15
ENDBRANCH   1  13
TORSDOF 7
ENDMDL
MODEL 5
REMARK VINA RESULT:      -7.2      3.941      7.784
REMARK  Name = 
REMARK  8 active torsions:
REMARK  status: ('A' for Active; 'I' for Inactive)
REMARK    1  A    between atoms: C_1  and  C_2
REMARK    2  A    between atoms: C_2  and  C_3
REMARK    3  A    between atoms: C_2  and  C_7
REMARK    4  A    between atoms: C_3  and  C_4
REMARK    5  A    between atoms: C_4  and  O_6
REMARK    6  A    between atoms: C_7  and  C_8
REMARK    7  A    between atoms: C_8  and  C_10
REMARK    8  A    between atoms: C_13  and  C_14
REMARK                            x       y       z     vdW  Elec       q    Type
REMARK                         _______ _______ _______ _____ _____    ______ ____
ROOT
ATOM      1  C   UNL     1       3.152   5.650  18.749  0.00  0.00    +0.000 A 
ATOM      2  C   UNL     1       2.515   5.431  19.972  0.00  0.00    +0.000 A 
ATOM      3  C   UNL     1       1.802   6.457  20.591  0.00  0.00    +0.000 A 
ATOM      4  C   UNL     1       1.697   7.735  20.020  0.00  0.00    +0.000 A 
ATOM      5  C   UNL     1       2.350   7.945  18.792  0.00  0.00    +0.000 A 
ATOM      6  C   UNL     1       3.068   6.916  18.162  0.00  0.00    +0.000 A 
ENDROOT
BRANCH   4   7
ATOM      7  C   UNL     1       0.890   8.780  20.689  0.00  0.00    +0.000 A 
ATOM      8  C   UNL     1       0.574   9.986  20.031  0.00  0.00    +0.000 A 
ATOM      9  C   UNL     1      -0.102  11.021  20.680  0.00  0.00    +0.000 A 
ATOM     10  C   UNL     1      -0.503  10.863  22.001  0.00  0.00    +0.000 A 
ATOM     11  C   UNL     1      -0.230   9.671  22.669  0.00  0.00    +0.000 A 
ATOM     12  C   UNL     1       0.460   8.643  22.020  0.00  0.00    +0.000 A 
ENDBRANCH   4   7
BRANCH   1  13
ATOM     13  C   UNL     1       3.907   4.563  18.050  0.00  0.00    +0.000 C 
ATOM     14  O   UNL     1       3.359   3.912  17.160  0.00  0.00    +0.000 OA
BRANCH  13  15
ATOM     15  C   UNL     1       5.330   4.270  18.506  0.00  0.00    +0.000 C 
BRANCH  15  17
ATOM     16  C   UNL     1       7.295   5.760  19.051  0.00  0.00    +0.000 C 
ATOM     17  C   UNL     1       6.386   5.230  17.937  0.00  0.00    +0.000 C 
BRANCH  17  18
ATOM     18  C   UNL     1       7.195   4.540  16.824  0.00  0.00    +0.000 C 
BRANCH  18  19
ATOM     19  C   UNL     1       6.849   5.014  15.428  0.00  0.00    +0.000 C 
ATOM     20  O   UNL     1       7.679   5.388  14.613  0.00  0.00    +0.000 OA
BRANCH  19  21
ATOM     21  O   UNL     1       5.526   5.034  15.175  0.00  0.00    +0.000 OA
ATOM     22  H   UNL     1       4.974   4.676  15.896  0.00  0.00    +0.000 HD
ENDBRANCH  19  21
ENDBRANCH  18  19
ENDBRANCH  17  18
ENDBRANCH  15  17
ENDBRANCH  13  15
ENDBRANCH   1  13
TORSDOF 7
ENDMDL
MODEL 6
REMARK VINA RESULT:      -7.1      3.968      7.957
REMARK  Name = 
REMARK  8 active torsions:
REMARK  status: ('A' for Active; 'I' for Inactive)
REMARK    1  A    between atoms: C_1  and  C_2
REMARK    2  A    between atoms: C_2  and  C_3
REMARK    3  A    between atoms: C_2  and  C_7
REMARK    4  A    between atoms: C_3  and  C_4
REMARK    5  A    between atoms: C_4  and  O_6
REMARK    6  A    between atoms: C_7  and  C_8
REMARK    7  A    between atoms: C_8  and  C_10
REMARK    8  A    between atoms: C_13  and  C_14
REMARK                            x       y       z     vdW  Elec       q    Type
REMARK                         _______ _______ _______ _____ _____    ______ ____
ROOT
ATOM      1  C   UNL     1       2.636   5.352  19.237  0.00  0.00    +0.000 A 
ATOM      2  C   UNL     1       1.924   5.291  20.437  0.00  0.00    +0.000 A 
ATOM      3  C   UNL     1       1.343   6.440  20.972  0.00  0.00    +0.000 A 
ATOM      4  C   UNL     1       1.447   7.688  20.339  0.00  0.00    +0.000 A 
ATOM      5  C   UNL     1       2.174   7.737  19.135  0.00  0.00    +0.000 A 
ATOM      6  C   UNL     1       2.760   6.584  18.590  0.00  0.00    +0.000 A 
ENDROOT
BRANCH   4   7
ATOM      7  C   UNL     1       0.774   8.871  20.919  0.00  0.00    +0.000 A 
ATOM      8  C   UNL     1       0.634  10.062  20.178  0.00  0.00    +0.000 A 
ATOM      9  C   UNL     1       0.089  11.217  20.744  0.00  0.00    +0.000 A 
ATOM     10  C   UNL     1      -0.356  11.200  22.060  0.00  0.00    +0.000 A 
ATOM     11  C   UNL     1      -0.257  10.029  22.807  0.00  0.00    +0.000 A 
ATOM     12  C   UNL     1       0.303   8.879  22.243  0.00  0.00    +0.000 A 
ENDBRANCH   4   7
BRANCH   1  13
ATOM     13  C   UNL     1       3.254   4.133  18.627  0.00  0.00    +0.000 C 
ATOM     14  O   UNL     1       3.533   3.167  19.338  0.00  0.00    +0.000 OA
BRANCH  13  15
ATOM     15  C   UNL     1       3.560   4.154  17.136  0.00  0.00    +0.000 C 
BRANCH  15  17
ATOM     16  C   UNL     1       5.288   4.239  15.296  0.00  0.00    +0.000 C 
ATOM     17  C   UNL     1       5.053   4.035  16.796  0.00  0.00    +0.000 C 
BRANCH  17  18
ATOM     18  C   UNL     1       5.877   5.024  17.640  0.00  0.00    +0.000 C 
BRANCH  18  19
ATOM     19  C   UNL     1       7.286   5.244  17.131  0.00  0.00    +0.000 C 
ATOM     20  O   UNL     1       7.645   6.253  16.544  0.00  0.00    +0.000 OA
BRANCH  19  21
ATOM     21  O   UNL     1       8.107   4.196  17.341  0.00  0.00    +0.000 OA
ATOM     22  H   UNL     1       8.700   4.299  18.108  0.00  0.00    +0.000 HD
ENDBRANCH  19  21
ENDBRANCH  18  19
ENDBRANCH  17  18
ENDBRANCH  15  17
ENDBRANCH  13  15
ENDBRANCH   1  13
TORSDOF 7
ENDMDL
MODEL 7
REMARK VINA RESULT:      -7.1      4.295      7.815
REMARK  Name = 
REMARK  8 active torsions:
REMARK  status: ('A' for Active; 'I' for Inactive)
REMARK    1  A    between atoms: C_1  and  C_2
REMARK    2  A    between atoms: C_2  and  C_3
REMARK    3  A    between atoms: C_2  and  C_7
REMARK    4  A    between atoms: C_3  and  C_4
REMARK    5  A    between atoms: C_4  and  O_6
REMARK    6  A    between atoms: C_7  and  C_8
REMARK    7  A    between atoms: C_8  and  C_10
REMARK    8  A    between atoms: C_13  and  C_14
REMARK                            x       y       z     vdW  Elec       q    Type
REMARK                         _______ _______ _______ _____ _____    ______ ____
ROOT
ATOM      1  C   UNL     1       2.415   6.684  19.086  0.00  0.00    +0.000 A 
ATOM      2  C   UNL     1       1.982   6.522  20.404  0.00  0.00    +0.000 A 
ATOM      3  C   UNL     1       1.334   7.563  21.067  0.00  0.00    +0.000 A 
ATOM      4  C   UNL     1       1.092   8.800  20.449  0.00  0.00    +0.000 A 
ATOM      5  C   UNL     1       1.539   8.953  19.124  0.00  0.00    +0.000 A 
ATOM      6  C   UNL     1       2.192   7.909  18.450  0.00  0.00    +0.000 A 
ENDROOT
BRANCH   4   7
ATOM      7  C   UNL     1       0.357   9.859  21.176  0.00  0.00    +0.000 A 
ATOM      8  C   UNL     1       0.427  11.205  20.762  0.00  0.00    +0.000 A 
ATOM      9  C   UNL     1      -0.179  12.229  21.493  0.00  0.00    +0.000 A 
ATOM     10  C   UNL     1      -0.897  11.927  22.644  0.00  0.00    +0.000 A 
ATOM     11  C   UNL     1      -1.008  10.602  23.061  0.00  0.00    +0.000 A 
ATOM     12  C   UNL     1      -0.386   9.581  22.335  0.00  0.00    +0.000 A 
ENDBRANCH   4   7
BRANCH   1  13
ATOM     13  C   UNL     1       3.095   5.580  18.341  0.00  0.00    +0.000 C 
ATOM     14  O   UNL     1       4.272   5.706  17.999  0.00  0.00    +0.000 OA
BRANCH  13  15
ATOM     15  C   UNL     1       2.280   4.343  17.988  0.00  0.00    +0.000 C 
BRANCH  15  17
ATOM     16  C   UNL     1       0.688   2.545  18.768  0.00  0.00    +0.000 C 
ATOM     17  C   UNL     1       1.729   3.582  19.203  0.00  0.00    +0.000 C 
BRANCH  17  18
ATOM     18  C   UNL     1       2.877   2.937  19.999  0.00  0.00    +0.000 C 
BRANCH  18  19
ATOM     19  C   UNL     1       3.915   2.250  19.135  0.00  0.00    +0.000 C 
ATOM     20  O   UNL     1       3.696   1.235  18.490  0.00  0.00    +0.000 OA
BRANCH  19  21
ATOM     21  O   UNL     1       5.128   2.834  19.178  0.00  0.00    +0.000 OA
ATOM     22  H   UNL     1       5.339   3.257  20.032  0.00  0.00    +0.000 HD
ENDBRANCH  19  21
ENDBRANCH  18  19
ENDBRANCH  17  18
ENDBRANCH  15  17
ENDBRANCH  13  15
ENDBRANCH   1  13
TORSDOF 7
ENDMDL
MODEL 8
REMARK VINA RESULT:      -7.1      4.781      8.771
REMARK  Name = 
REMARK  8 active torsions:
REMARK  status: ('A' for Active; 'I' for Inactive)
REMARK    1  A    between atoms: C_1  and  C_2
REMARK    2  A    between atoms: C_2  and  C_3
REMARK    3  A    between atoms: C_2  and  C_7
REMARK    4  A    between atoms: C_3  and  C_4
REMARK    5  A    between atoms: C_4  and  O_6
REMARK    6  A    between atoms: C_7  and  C_8
REMARK    7  A    between atoms: C_8  and  C_10
REMARK    8  A    between atoms: C_13  and  C_14
REMARK                            x       y       z     vdW  Elec       q    Type
REMARK                         _______ _______ _______ _____ _____    ______ ____
ROOT
ATOM      1  C   UNL     1       2.425   7.331  19.210  0.00  0.00    +0.000 A 
ATOM      2  C   UNL     1       2.033   8.492  18.540  0.00  0.00    +0.000 A 
ATOM      3  C   UNL     1       1.187   9.413  19.158  0.00  0.00    +0.000 A 
ATOM      4  C   UNL     1       0.701   9.216  20.460  0.00  0.00    +0.000 A 
ATOM      5  C   UNL     1       1.098   8.039  21.121  0.00  0.00    +0.000 A 
ATOM      6  C   UNL     1       1.950   7.109  20.505  0.00  0.00    +0.000 A 
ENDROOT
BRANCH   4   7
ATOM      7  C   UNL     1      -0.155  10.243  21.093  0.00  0.00    +0.000 A 
ATOM      8  C   UNL     1      -0.402  10.226  22.481  0.00  0.00    +0.000 A 
ATOM      9  C   UNL     1      -1.285  11.128  23.079  0.00  0.00    +0.000 A 
ATOM     10  C   UNL     1      -1.922  12.090  22.305  0.00  0.00    +0.000 A 
ATOM     11  C   UNL     1      -1.674  12.150  20.935  0.00  0.00    +0.000 A 
ATOM     12  C   UNL     1      -0.802  11.235  20.337  0.00  0.00    +0.000 A 
ENDBRANCH   4   7
BRANCH   1  13
ATOM     13  C   UNL     1       3.347   6.335  18.582  0.00  0.00    +0.000 C 
ATOM     14  O   UNL     1       3.506   5.232  19.106  0.00  0.00    +0.000 OA
BRANCH  13  15
ATOM     15  C   UNL     1       4.101   6.747  17.324  0.00  0.00    +0.000 C 
BRANCH  15  17
ATOM     16  C   UNL     1       5.490   5.767  15.457  0.00  0.00    +0.000 C 
ATOM     17  C   UNL     1       5.289   5.839  16.974  0.00  0.00    +0.000 C 
BRANCH  17  18
ATOM     18  C   UNL     1       6.562   6.320  17.694  0.00  0.00    +0.000 C 
BRANCH  18  19
ATOM     19  C   UNL     1       7.144   5.307  18.658  0.00  0.00    +0.000 C 
ATOM     20  O   UNL     1       7.125   5.439  19.873  0.00  0.00    +0.000 OA
BRANCH  19  21
ATOM     21  O   UNL     1       7.733   4.258  18.052  0.00  0.00    +0.000 OA
ATOM     22  H   UNL     1       7.127   3.523  17.842  0.00  0.00    +0.000 HD
ENDBRANCH  19  21
ENDBRANCH  18  19
ENDBRANCH  17  18
ENDBRANCH  15  17
ENDBRANCH  13  15
ENDBRANCH   1  13
TORSDOF 7
ENDMDL
MODEL 9
REMARK VINA RESULT:      -7.0      3.974      8.278
REMARK  Name = 
REMARK  8 active torsions:
REMARK  status: ('A' for Active; 'I' for Inactive)
REMARK    1  A    between atoms: C_1  and  C_2
REMARK    2  A    between atoms: C_2  and  C_3
REMARK    3  A    between atoms: C_2  and  C_7
REMARK    4  A    between atoms: C_3  and  C_4
REMARK    5  A    between atoms: C_4  and  O_6
REMARK    6  A    between atoms: C_7  and  C_8
REMARK    7  A    between atoms: C_8  and  C_10
REMARK    8  A    between atoms: C_13  and  C_14
REMARK                            x       y       z     vdW  Elec       q    Type
REMARK                         _______ _______ _______ _____ _____    ______ ____
ROOT
ATOM      1  C   UNL     1       2.837   6.211  18.597  0.00  0.00    +0.000 A 
ATOM      2  C   UNL     1       2.583   7.497  18.115  0.00  0.00    +0.000 A 
ATOM      3  C   UNL     1       1.892   8.421  18.898  0.00  0.00    +0.000 A 
ATOM      4  C   UNL     1       1.431   8.105  20.185  0.00  0.00    +0.000 A 
ATOM      5  C   UNL     1       1.687   6.805  20.657  0.00  0.00    +0.000 A 
ATOM      6  C   UNL     1       2.383   5.869  19.874  0.00  0.00    +0.000 A 
ENDROOT
BRANCH   4   7
ATOM      7  C   UNL     1       0.745   9.134  20.998  0.00  0.00    +0.000 A 
ATOM      8  C   UNL     1       0.445   8.903  22.357  0.00  0.00    +0.000 A 
ATOM      9  C   UNL     1      -0.287   9.822  23.112  0.00  0.00    +0.000 A 
ATOM     10  C   UNL     1      -0.714  11.010  22.532  0.00  0.00    +0.000 A 
ATOM     11  C   UNL     1      -0.407  11.279  21.199  0.00  0.00    +0.000 A 
ATOM     12  C   UNL     1       0.312  10.349  20.442  0.00  0.00    +0.000 A 
ENDBRANCH   4   7
BRANCH   1  13
ATOM     13  C   UNL     1       3.592   5.204  17.790  0.00  0.00    +0.000 C 
ATOM     14  O   UNL     1       3.392   4.002  17.968  0.00  0.00    +0.000 OA
BRANCH  13  15
ATOM     15  C   UNL     1       4.629   5.711  16.796  0.00  0.00    +0.000 C 
BRANCH  15  17
ATOM     16  C   UNL     1       5.683   4.765  14.706  0.00  0.00    +0.000 C 
ATOM     17  C   UNL     1       5.543   4.617  16.224  0.00  0.00    +0.000 C 
BRANCH  17  18
ATOM     18  C   UNL     1       6.913   4.641  16.926  0.00  0.00    +0.000 C 
BRANCH  18  19
ATOM     19  C   UNL     1       7.353   6.020  17.372  0.00  0.00    +0.000 C 
ATOM     20  O   UNL     1       7.668   6.914  16.601  0.00  0.00    +0.000 OA
BRANCH  19  21
ATOM     21  O   UNL     1       7.413   6.162  18.711  0.00  0.00    +0.000 OA
ATOM     22  H   UNL     1       8.070   6.815  19.016  0.00  0.00    +0.000 HD
ENDBRANCH  19  21
ENDBRANCH  18  19
ENDBRANCH  17  18
ENDBRANCH  15  17
ENDBRANCH  13  15
ENDBRANCH   1  13
TORSDOF 7
ENDMDL
