MODEL 1
REMARK VINA RESULT:      -5.7      0.000      0.000
REMARK  Name = 
REMARK  5 active torsions:
REMARK  status: ('A' for Active; 'I' for Inactive)
REMARK    1  A    between atoms: N_1  and  C_2
REMARK    2  A    between atoms: C_2  and  C_3
REMARK    3  A    between atoms: C_3  and  S_4
REMARK    4  A    between atoms: S_4  and  N_7
REMARK    5  A    between atoms: N_7  and  C_8
REMARK                            x       y       z     vdW  Elec       q    Type
REMARK                         _______ _______ _______ _____ _____    ______ ____
ROOT
ATOM      1  S   UNL     1       6.564   5.025  18.375  0.00  0.00    +0.000 S 
ATOM      2  O   UNL     1       7.897   4.402  17.940  0.00  0.00    +0.000 OA
ATOM      3  O   UNL     1       6.746   5.167  19.893  0.00  0.00    +0.000 OA
ENDROOT
BRANCH   1   4
ATOM      4  N   UNL     1       5.331   3.757  18.130  0.00  0.00    +0.000 NA
ATOM      5  H   UNL     1       5.827   2.862  17.958  0.00  0.00    +0.000 HD
BRANCH   4   6
ATOM      6  C   UNL     1       4.299   3.669  19.193  0.00  0.00    +0.000 C 
ATOM      7  C   UNL     1       3.475   4.979  19.241  0.00  0.00    +0.000 C 
ATOM      8  C   UNL     1       2.622   5.164  17.969  0.00  0.00    +0.000 C 
ATOM      9  C   UNL     1       1.699   3.954  17.750  0.00  0.00    +0.000 C 
ATOM     10  C   UNL     1       2.496   2.641  17.717  0.00  0.00    +0.000 C 
ATOM     11  C   UNL     1       3.301   2.495  19.018  0.00  0.00    +0.000 C 
ENDBRANCH   4   6
ENDBRANCH   1   4
BRANCH   1  12
ATOM     12  C   UNL     1       6.334   6.617  17.518  0.00  0.00    +0.000 C 
BRANCH  12  13
ATOM     13  C   UNL     1       7.644   7.410  17.495  0.00  0.00    +0.000 C 
BRANCH  13  14
ATOM     14  N   UNL     1       8.338   7.316  18.776  0.00  0.00    +0.000 NA
ATOM     15  H   UNL     1       9.332   7.625  18.654  0.00  0.00    +0.000 HD
ATOM     16  H   UNL     1       8.337   6.320  19.100  0.00  0.00    +0.000 HD
ENDBRANCH  13  14
ENDBRANCH  12  13
ENDBRANCH   1  12
TORSDOF 5
ENDMDL
MODEL 2
REMARK VINA RESULT:      -5.6      2.224      2.748
REMARK  Name = 
REMARK  5 active torsions:
REMARK  status: ('A' for Active; 'I' for Inactive)
REMARK    1  A    between atoms: N_1  and  C_2
REMARK    2  A    between atoms: C_2  and  C_3
REMARK    3  A    between atoms: C_3  and  S_4
REMARK    4  A    between atoms: S_4  and  N_7
REMARK    5  A    between atoms: N_7  and  C_8
REMARK                            x       y       z     vdW  Elec       q    Type
REMARK                         _______ _______ _______ _____ _____    ______ ____
ROOT
ATOM      1  S   UNL     1       5.261   4.664  17.829  0.00  0.00    +0.000 S 
ATOM      2  O   UNL     1       6.521   4.411  18.667  0.00  0.00    +0.000 OA
ATOM      3  O   UNL     1       5.050   6.176  17.998  0.00  0.00    +0.000 OA
ENDROOT
BRANCH   1   4
ATOM      4  N   UNL     1       3.925   3.865  18.705  0.00  0.00    +0.000 NA
ATOM      5  H   UNL     1       4.304   3.512  19.604  0.00  0.00    +0.000 HD
BRANCH   4   6
ATOM      6  C   UNL     1       2.696   4.681  18.857  0.00  0.00    +0.000 C 
ATOM      7  C   UNL     1       1.469   3.893  18.337  0.00  0.00    +0.000 C 
ATOM      8  C   UNL     1       1.161   2.667  19.221  0.00  0.00    +0.000 C 
ATOM      9  C   UNL     1       0.950   3.089  20.685  0.00  0.00    +0.000 C 
ATOM     10  C   UNL     1       2.150   3.889  21.215  0.00  0.00    +0.000 C 
ATOM     11  C   UNL     1       2.391   5.111  20.315  0.00  0.00    +0.000 C 
ENDBRANCH   4   6
ENDBRANCH   1   4
BRANCH   1  12
ATOM     12  C   UNL     1       5.573   4.162  16.105  0.00  0.00    +0.000 C 
BRANCH  12  13
ATOM     13  C   UNL     1       7.002   4.522  15.689  0.00  0.00    +0.000 C 
BRANCH  13  14
ATOM     14  N   UNL     1       7.331   5.893  16.070  0.00  0.00    +0.000 NA
ATOM     15  H   UNL     1       7.835   5.886  16.988  0.00  0.00    +0.000 HD
ATOM     16  H   UNL     1       6.448   6.446  16.180  0.00  0.00    +0.000 HD
ENDBRANCH  13  14
ENDBRANCH  12  13
ENDBRANCH   1  12
TORSDOF 5
ENDMDL
MODEL 3
REMARK VINA RESULT:      -5.6      1.446      1.702
REMARK  Name = 
REMARK  5 active torsions:
REMARK  status: ('A' for Active; 'I' for Inactive)
REMARK    1  A    between atoms: N_1  and  C_2
REMARK    2  A    between atoms: C_2  and  C_3
REMARK    3  A    between atoms: C_3  and  S_4
REMARK    4  A    between atoms: S_4  and  N_7
REMARK    5  A    between atoms: N_7  and  C_8
REMARK                            x       y       z     vdW  Elec       q    Type
REMARK                         _______ _______ _______ _____ _____    ______ ____
ROOT
ATOM      1  S   UNL     1       6.727   5.047  18.302  0.00  0.00    +0.000 S 
ATOM      2  O   UNL     1       8.047   4.578  17.677  0.00  0.00    +0.000 OA
ATOM      3  O   UNL     1       7.128   5.311  19.761  0.00  0.00    +0.000 OA
ENDROOT
BRANCH   1   4
ATOM      4  N   UNL     1       5.661   3.615  18.323  0.00  0.00    +0.000 NA
ATOM      5  H   UNL     1       6.258   2.778  18.467  0.00  0.00    +0.000 HD
BRANCH   4   6
ATOM      6  C   UNL     1       4.515   3.697  19.262  0.00  0.00    +0.000 C 
ATOM      7  C   UNL     1       3.348   4.474  18.606  0.00  0.00    +0.000 C 
ATOM      8  C   UNL     1       2.743   3.700  17.416  0.00  0.00    +0.000 C 
ATOM      9  C   UNL     1       2.281   2.300  17.854  0.00  0.00    +0.000 C 
ATOM     10  C   UNL     1       3.421   1.518  18.523  0.00  0.00    +0.000 C 
ATOM     11  C   UNL     1       3.964   2.321  19.717  0.00  0.00    +0.000 C 
ENDBRANCH   4   6
ENDBRANCH   1   4
BRANCH   1  12
ATOM     12  C   UNL     1       6.142   6.536  17.429  0.00  0.00    +0.000 C 
BRANCH  12  13
ATOM     13  C   UNL     1       5.537   6.162  16.072  0.00  0.00    +0.000 C 
BRANCH  13  14
ATOM     14  N   UNL     1       6.546   5.585  15.189  0.00  0.00    +0.000 NA
ATOM     15  H   UNL     1       7.465   5.547  15.690  0.00  0.00    +0.000 HD
ATOM     16  H   UNL     1       6.655   6.190  14.341  0.00  0.00    +0.000 HD
ENDBRANCH  13  14
ENDBRANCH  12  13
ENDBRANCH   1  12
TORSDOF 5
ENDMDL
MODEL 4
REMARK VINA RESULT:      -5.5      1.784      2.430
REMARK  Name = 
REMARK  5 active torsions:
REMARK  status: ('A' for Active; 'I' for Inactive)
REMARK    1  A    between atoms: N_1  and  C_2
REMARK    2  A    between atoms: C_2  and  C_3
REMARK    3  A    between atoms: C_3  and  S_4
REMARK    4  A    between atoms: S_4  and  N_7
REMARK    5  A    between atoms: N_7  and  C_8
REMARK                            x       y       z     vdW  Elec       q    Type
REMARK                         _______ _______ _______ _____ _____    ______ ____
ROOT
ATOM      1  S   UNL     1       5.326   4.739  17.661  0.00  0.00    +0.000 S 
ATOM      2  O   UNL     1       5.667   3.981  16.372  0.00  0.00    +0.000 OA
ATOM      3  O   UNL     1       6.485   4.347  18.590  0.00  0.00    +0.000 OA
ENDROOT
BRANCH   1   4
ATOM      4  N   UNL     1       3.864   3.951  18.318  0.00  0.00    +0.000 NA
ATOM      5  H   UNL     1       4.101   3.579  19.257  0.00  0.00    +0.000 HD
BRANCH   4   6
ATOM      6  C   UNL     1       2.638   4.786  18.300  0.00  0.00    +0.000 C 
ATOM      7  C   UNL     1       1.398   3.900  18.028  0.00  0.00    +0.000 C 
ATOM      8  C   UNL     1       1.120   2.932  19.197  0.00  0.00    +0.000 C 
ATOM      9  C   UNL     1       0.953   3.704  20.517  0.00  0.00    +0.000 C 
ATOM     10  C   UNL     1       2.167   4.603  20.796  0.00  0.00    +0.000 C 
ATOM     11  C   UNL     1       2.377   5.564  19.615  0.00  0.00    +0.000 C 
ENDBRANCH   4   6
ENDBRANCH   1   4
BRANCH   1  12
ATOM     12  C   UNL     1       5.250   6.525  17.309  0.00  0.00    +0.000 C 
BRANCH  12  13
ATOM     13  C   UNL     1       6.657   7.127  17.267  0.00  0.00    +0.000 C 
BRANCH  13  14
ATOM     14  N   UNL     1       7.538   6.346  16.403  0.00  0.00    +0.000 NA
ATOM     15  H   UNL     1       6.992   5.566  15.967  0.00  0.00    +0.000 HD
ATOM     16  H   UNL     1       8.311   5.932  16.975  0.00  0.00    +0.000 HD
ENDBRANCH  13  14
ENDBRANCH  12  13
ENDBRANCH   1  12
TORSDOF 5
ENDMDL
MODEL 5
REMARK VINA RESULT:      -5.5      2.698      5.003
REMARK  Name = 
REMARK  5 active torsions:
REMARK  status: ('A' for Active; 'I' for Inactive)
REMARK    1  A    between atoms: N_1  and  C_2
REMARK    2  A    between atoms: C_2  and  C_3
REMARK    3  A    between atoms: C_3  and  S_4
REMARK    4  A    between atoms: S_4  and  N_7
REMARK    5  A    between atoms: N_7  and  C_8
REMARK                            x       y       z     vdW  Elec       q    Type
REMARK                         _______ _______ _______ _____ _____    ______ ____
ROOT
ATOM      1  S   UNL     1       3.939   2.509  19.221  0.00  0.00    +0.000 S 
ATOM      2  O   UNL     1       4.853   2.035  20.358  0.00  0.00    +0.000 OA
ATOM      3  O   UNL     1       3.738   1.226  18.401  0.00  0.00    +0.000 OA
ENDROOT
BRANCH   1   4
ATOM      4  N   UNL     1       4.936   3.599  18.216  0.00  0.00    +0.000 NA
ATOM      5  H   UNL     1       4.627   3.491  17.231  0.00  0.00    +0.000 HD
BRANCH   4   6
ATOM      6  C   UNL     1       4.983   5.009  18.675  0.00  0.00    +0.000 C 
ATOM      7  C   UNL     1       6.382   5.330  19.256  0.00  0.00    +0.000 C 
ATOM      8  C   UNL     1       7.473   5.301  18.167  0.00  0.00    +0.000 C 
ATOM      9  C   UNL     1       7.130   6.270  17.023  0.00  0.00    +0.000 C 
ATOM     10  C   UNL     1       5.737   5.979  16.443  0.00  0.00    +0.000 C 
ATOM     11  C   UNL     1       4.688   6.051  17.565  0.00  0.00    +0.000 C 
ENDBRANCH   4   6
ENDBRANCH   1   4
BRANCH   1  12
ATOM     12  C   UNL     1       2.394   3.171  19.925  0.00  0.00    +0.000 C 
BRANCH  12  13
ATOM     13  C   UNL     1       1.270   3.138  18.885  0.00  0.00    +0.000 C 
BRANCH  13  14
ATOM     14  N   UNL     1       1.786   3.402  17.545  0.00  0.00    +0.000 NA
ATOM     15  H   UNL     1       1.792   4.435  17.374  0.00  0.00    +0.000 HD
ATOM     16  H   UNL     1       1.160   2.952  16.836  0.00  0.00    +0.000 HD
ENDBRANCH  13  14
ENDBRANCH  12  13
ENDBRANCH   1  12
TORSDOF 5
ENDMDL
MODEL 6
REMARK VINA RESULT:      -5.5      2.214      2.829
REMARK  Name = 
REMARK  5 active torsions:
REMARK  status: ('A' for Active; 'I' for Inactive)
REMARK    1  A    between atoms: N_1  and  C_2
REMARK    2  A    between atoms: C_2  and  C_3
REMARK    3  A    between atoms: C_3  and  S_4
REMARK    4  A    between atoms: S_4  and  N_7
REMARK    5  A    between atoms: N_7  and  C_8
REMARK                            x       y       z     vdW  Elec       q    Type
REMARK                         _______ _______ _______ _____ _____    ______ ____
ROOT
ATOM      1  S   UNL     1       5.585   4.541  17.308  0.00  0.00    +0.000 S 
ATOM      2  O   UNL     1       6.834   4.399  18.188  0.00  0.00    +0.000 OA
ATOM      3  O   UNL     1       5.385   6.064  17.261  0.00  0.00    +0.000 OA
ENDROOT
BRANCH   1   4
ATOM      4  N   UNL     1       4.233   3.883  18.270  0.00  0.00    +0.000 NA
ATOM      5  H   UNL     1       4.118   4.486  19.107  0.00  0.00    +0.000 HD
BRANCH   4   6
ATOM      6  C   UNL     1       2.973   3.664  17.517  0.00  0.00    +0.000 C 
ATOM      7  C   UNL     1       2.476   2.213  17.727  0.00  0.00    +0.000 C 
ATOM      8  C   UNL     1       2.036   1.965  19.184  0.00  0.00    +0.000 C 
ATOM      9  C   UNL     1       0.953   2.971  19.607  0.00  0.00    +0.000 C 
ATOM     10  C   UNL     1       1.420   4.419  19.390  0.00  0.00    +0.000 C 
ATOM     11  C   UNL     1       1.817   4.616  17.918  0.00  0.00    +0.000 C 
ENDBRANCH   4   6
ENDBRANCH   1   4
BRANCH   1  12
ATOM     12  C   UNL     1       5.911   3.802  15.674  0.00  0.00    +0.000 C 
BRANCH  12  13
ATOM     13  C   UNL     1       6.519   4.838  14.725  0.00  0.00    +0.000 C 
BRANCH  13  14
ATOM     14  N   UNL     1       7.586   5.589  15.380  0.00  0.00    +0.000 NA
ATOM     15  H   UNL     1       8.257   5.941  14.657  0.00  0.00    +0.000 HD
ATOM     16  H   UNL     1       8.105   4.959  16.036  0.00  0.00    +0.000 HD
ENDBRANCH  13  14
ENDBRANCH  12  13
ENDBRANCH   1  12
TORSDOF 5
ENDMDL
MODEL 7
REMARK VINA RESULT:      -5.4      2.246      2.771
REMARK  Name = 
REMARK  5 active torsions:
REMARK  status: ('A' for Active; 'I' for Inactive)
REMARK    1  A    between atoms: N_1  and  C_2
REMARK    2  A    between atoms: C_2  and  C_3
REMARK    3  A    between atoms: C_3  and  S_4
REMARK    4  A    between atoms: S_4  and  N_7
REMARK    5  A    between atoms: N_7  and  C_8
REMARK                            x       y       z     vdW  Elec       q    Type
REMARK                         _______ _______ _______ _____ _____    ______ ____
ROOT
ATOM      1  S   UNL     1       5.124   4.675  17.891  0.00  0.00    +0.000 S 
ATOM      2  O   UNL     1       6.196   4.198  18.880  0.00  0.00    +0.000 OA
ATOM      3  O   UNL     1       5.326   6.197  17.893  0.00  0.00    +0.000 OA
ENDROOT
BRANCH   1   4
ATOM      4  N   UNL     1       3.555   4.373  18.688  0.00  0.00    +0.000 NA
ATOM      5  H   UNL     1       2.838   4.943  18.201  0.00  0.00    +0.000 HD
BRANCH   4   6
ATOM      6  C   UNL     1       3.185   2.943  18.828  0.00  0.00    +0.000 C 
ATOM      7  C   UNL     1       3.552   2.436  20.244  0.00  0.00    +0.000 C 
ATOM      8  C   UNL     1       2.688   3.107  21.332  0.00  0.00    +0.000 C 
ATOM      9  C   UNL     1       1.192   2.890  21.053  0.00  0.00    +0.000 C 
ATOM     10  C   UNL     1       0.810   3.370  19.644  0.00  0.00    +0.000 C 
ATOM     11  C   UNL     1       1.680   2.649  18.601  0.00  0.00    +0.000 C 
ENDBRANCH   4   6
ENDBRANCH   1   4
BRANCH   1  12
ATOM     12  C   UNL     1       5.418   3.905  16.266  0.00  0.00    +0.000 C 
BRANCH  12  13
ATOM     13  C   UNL     1       6.677   4.486  15.614  0.00  0.00    +0.000 C 
BRANCH  13  14
ATOM     14  N   UNL     1       7.776   4.566  16.572  0.00  0.00    +0.000 NA
ATOM     15  H   UNL     1       7.579   5.330  17.262  0.00  0.00    +0.000 HD
ATOM     16  H   UNL     1       8.663   4.797  16.066  0.00  0.00    +0.000 HD
ENDBRANCH  13  14
ENDBRANCH  12  13
ENDBRANCH   1  12
TORSDOF 5
ENDMDL
MODEL 8
REMARK VINA RESULT:      -5.4      3.155      5.085
REMARK  Name = 
REMARK  5 active torsions:
REMARK  status: ('A' for Active; 'I' for Inactive)
REMARK    1  A    between atoms: N_1  and  C_2
REMARK    2  A    between atoms: C_2  and  C_3
REMARK    3  A    between atoms: C_3  and  S_4
REMARK    4  A    between atoms: S_4  and  N_7
REMARK    5  A    between atoms: N_7  and  C_8
REMARK                            x       y       z     vdW  Elec       q    Type
REMARK                         _______ _______ _______ _____ _____    ______ ____
ROOT
ATOM      1  S   UNL     1       3.605   3.214  19.753  0.00  0.00    +0.000 S 
ATOM      2  O   UNL     1       3.843   2.286  20.951  0.00  0.00    +0.000 OA
ATOM      3  O   UNL     1       2.946   2.273  18.732  0.00  0.00    +0.000 OA
ENDROOT
BRANCH   1   4
ATOM      4  N   UNL     1       5.224   3.604  19.108  0.00  0.00    +0.000 NA
ATOM      5  H   UNL     1       5.475   2.869  18.419  0.00  0.00    +0.000 HD
BRANCH   4   6
ATOM      6  C   UNL     1       5.378   4.985  18.589  0.00  0.00    +0.000 C 
ATOM      7  C   UNL     1       6.879   5.360  18.520  0.00  0.00    +0.000 C 
ATOM      8  C   UNL     1       7.629   4.525  17.463  0.00  0.00    +0.000 C 
ATOM      9  C   UNL     1       6.971   4.676  16.080  0.00  0.00    +0.000 C 
ATOM     10  C   UNL     1       5.476   4.325  16.131  0.00  0.00    +0.000 C 
ATOM     11  C   UNL     1       4.776   5.206  17.178  0.00  0.00    +0.000 C 
ENDBRANCH   4   6
ENDBRANCH   1   4
BRANCH   1  12
ATOM     12  C   UNL     1       2.533   4.596  20.265  0.00  0.00    +0.000 C 
BRANCH  12  13
ATOM     13  C   UNL     1       1.072   4.142  20.349  0.00  0.00    +0.000 C 
BRANCH  13  14
ATOM     14  N   UNL     1       0.953   2.889  21.089  0.00  0.00    +0.000 NA
ATOM     15  H   UNL     1       1.662   2.207  20.730  0.00  0.00    +0.000 HD
ATOM     16  H   UNL     1      -0.002   2.486  20.941  0.00  0.00    +0.000 HD
ENDBRANCH  13  14
ENDBRANCH  12  13
ENDBRANCH   1  12
TORSDOF 5
ENDMDL
MODEL 9
REMARK VINA RESULT:      -5.4      2.069      2.287
REMARK  Name = 
REMARK  5 active torsions:
REMARK  status: ('A' for Active; 'I' for Inactive)
REMARK    1  A    between atoms: N_1  and  C_2
REMARK    2  A    between atoms: C_2  and  C_3
REMARK    3  A    between atoms: C_3  and  S_4
REMARK    4  A    between atoms: S_4  and  N_7
REMARK    5  A    between atoms: N_7  and  C_8
REMARK                            x       y       z     vdW  Elec       q    Type
REMARK                         _______ _______ _______ _____ _____    ______ ____
ROOT
ATOM      1  S   UNL     1       6.486   4.918  17.109  0.00  0.00    +0.000 S 
ATOM      2  O   UNL     1       7.930   4.417  16.978  0.00  0.00    +0.000 OA
ATOM      3  O   UNL     1       6.625   6.070  18.116  0.00  0.00    +0.000 OA
ENDROOT
BRANCH   1   4
ATOM      4  N   UNL     1       5.593   3.619  17.947  0.00  0.00    +0.000 NA
ATOM      5  H   UNL     1       6.288   3.019  18.432  0.00  0.00    +0.000 HD
BRANCH   4   6
ATOM      6  C   UNL     1       4.489   4.079  18.826  0.00  0.00    +0.000 C 
ATOM      7  C   UNL     1       3.327   4.635  17.968  0.00  0.00    +0.000 C 
ATOM      8  C   UNL     1       2.647   3.527  17.139  0.00  0.00    +0.000 C 
ATOM      9  C   UNL     1       2.150   2.391  18.049  0.00  0.00    +0.000 C 
ATOM     10  C   UNL     1       3.285   1.836  18.922  0.00  0.00    +0.000 C 
ATOM     11  C   UNL     1       3.905   2.977  19.746  0.00  0.00    +0.000 C 
ENDBRANCH   4   6
ENDBRANCH   1   4
BRANCH   1  12
ATOM     12  C   UNL     1       5.882   5.452  15.474  0.00  0.00    +0.000 C 
BRANCH  12  13
ATOM     13  C   UNL     1       6.674   4.765  14.357  0.00  0.00    +0.000 C 
BRANCH  13  14
ATOM     14  N   UNL     1       7.900   5.498  14.055  0.00  0.00    +0.000 NA
ATOM     15  H   UNL     1       8.379   5.755  14.950  0.00  0.00    +0.000 HD
ATOM     16  H   UNL     1       7.662   6.379  13.541  0.00  0.00    +0.000 HD
ENDBRANCH  13  14
ENDBRANCH  12  13
ENDBRANCH   1  12
TORSDOF 5
ENDMDL
