MODEL 1
REMARK VINA RESULT:      -6.6      0.000      0.000
REMARK  Name = 
REMARK  9 active torsions:
REMARK  status: ('A' for Active; 'I' for Inactive)
REMARK    1  A    between atoms: C_2  and  O_3
REMARK    2  A    between atoms: C_2  and  C_4
REMARK    3  A    between atoms: C_4  and  C_5
REMARK    4  A    between atoms: C_5  and  C_6
REMARK    5  A    between atoms: C_6  and  C_7
REMARK    6  A    between atoms: C_7  and  C_8
REMARK    7  A    between atoms: C_8  and  C_9
REMARK    8  A    between atoms: C_9  and  C_10
REMARK    9  A    between atoms: N_12  and  C_13
REMARK                            x       y       z     vdW  Elec       q    Type
REMARK                         _______ _______ _______ _____ _____    ______ ____
ROOT
ATOM      1  C   UNL     1       6.459   5.788  18.250  0.00  0.00    +0.000 C 
ENDROOT
BRANCH   1   2
ATOM      2  C   UNL     1       5.420   4.829  18.788  0.00  0.00    +0.000 C 
ATOM      3  O   UNL     1       5.777   3.813  19.377  0.00  0.00    +0.000 OA
ATOM      4  N   UNL     1       4.114   5.209  18.520  0.00  0.00    +0.000 N 
ATOM      5  H   UNL     1       3.974   5.952  17.849  0.00  0.00    +0.000 HD
BRANCH   4   6
ATOM      6  C   UNL     1       2.956   4.545  18.981  0.00  0.00    +0.000 A 
ATOM      7  C   UNL     1       2.387   4.802  20.232  0.00  0.00    +0.000 A 
ATOM      8  C   UNL     1       1.274   4.086  20.672  0.00  0.00    +0.000 A 
ATOM      9  C   UNL     1       0.706   3.112  19.861  0.00  0.00    +0.000 A 
ATOM     10  C   UNL     1       1.240   2.872  18.592  0.00  0.00    +0.000 A 
ATOM     11  C   UNL     1       2.355   3.593  18.152  0.00  0.00    +0.000 A 
ENDBRANCH   4   6
ENDBRANCH   1   2
BRANCH   1  12
ATOM     12  C   UNL     1       6.496   5.768  16.727  0.00  0.00    +0.000 C 
BRANCH  12  13
ATOM     13  C   UNL     1       7.036   4.439  16.205  0.00  0.00    +0.000 C 
BRANCH  13  14
ATOM     14  C   UNL     1       5.973   3.700  15.392  0.00  0.00    +0.000 C 
BRANCH  14  15
ATOM     15  C   UNL     1       5.684   4.425  14.080  0.00  0.00    +0.000 C 
BRANCH  15  16
ATOM     16  C   UNL     1       6.441   3.798  12.910  0.00  0.00    +0.000 C 
BRANCH  16  18
ATOM     17  O   UNL     1       4.419   3.306  11.653  0.00  0.00    +0.000 OA
ATOM     18  C   UNL     1       5.530   2.969  12.036  0.00  0.00    +0.000 C 
BRANCH  18  19
ATOM     19  O   UNL     1       6.077   1.779  11.703  0.00  0.00    +0.000 OA
ATOM     20  H   UNL     1       6.316   1.226  12.470  0.00  0.00    +0.000 HD
ENDBRANCH  18  19
ENDBRANCH  16  18
ENDBRANCH  15  16
ENDBRANCH  14  15
ENDBRANCH  13  14
ENDBRANCH  12  13
ENDBRANCH   1  12
TORSDOF 9
ENDMDL
MODEL 2
REMARK VINA RESULT:      -6.6      2.815      4.486
REMARK  Name = 
REMARK  9 active torsions:
REMARK  status: ('A' for Active; 'I' for Inactive)
REMARK    1  A    between atoms: C_2  and  O_3
REMARK    2  A    between atoms: C_2  and  C_4
REMARK    3  A    between atoms: C_4  and  C_5
REMARK    4  A    between atoms: C_5  and  C_6
REMARK    5  A    between atoms: C_6  and  C_7
REMARK    6  A    between atoms: C_7  and  C_8
REMARK    7  A    between atoms: C_8  and  C_9
REMARK    8  A    between atoms: C_9  and  C_10
REMARK    9  A    between atoms: N_12  and  C_13
REMARK                            x       y       z     vdW  Elec       q    Type
REMARK                         _______ _______ _______ _____ _____    ______ ____
ROOT
ATOM      1  C   UNL     1       4.557   3.924  15.778  0.00  0.00    +0.000 C 
ENDROOT
BRANCH   1   2
ATOM      2  C   UNL     1       3.903   4.208  17.112  0.00  0.00    +0.000 C 
ATOM      3  O   UNL     1       3.758   5.369  17.483  0.00  0.00    +0.000 OA
ATOM      4  N   UNL     1       3.545   3.068  17.815  0.00  0.00    +0.000 N 
ATOM      5  H   UNL     1       3.911   2.185  17.487  0.00  0.00    +0.000 HD
BRANCH   4   6
ATOM      6  C   UNL     1       2.843   3.048  19.040  0.00  0.00    +0.000 A 
ATOM      7  C   UNL     1       3.453   2.710  20.252  0.00  0.00    +0.000 A 
ATOM      8  C   UNL     1       2.713   2.651  21.433  0.00  0.00    +0.000 A 
ATOM      9  C   UNL     1       1.355   2.943  21.420  0.00  0.00    +0.000 A 
ATOM     10  C   UNL     1       0.741   3.321  20.223  0.00  0.00    +0.000 A 
ATOM     11  C   UNL     1       1.486   3.381  19.041  0.00  0.00    +0.000 A 
ENDBRANCH   4   6
ENDBRANCH   1   2
BRANCH   1  12
ATOM     12  C   UNL     1       5.548   5.019  15.402  0.00  0.00    +0.000 C 
BRANCH  12  13
ATOM     13  C   UNL     1       6.984   4.502  15.443  0.00  0.00    +0.000 C 
BRANCH  13  14
ATOM     14  C   UNL     1       7.634   4.804  16.793  0.00  0.00    +0.000 C 
BRANCH  14  15
ATOM     15  C   UNL     1       7.243   6.194  17.291  0.00  0.00    +0.000 C 
BRANCH  15  16
ATOM     16  C   UNL     1       7.887   6.511  18.640  0.00  0.00    +0.000 C 
BRANCH  16  18
ATOM     17  O   UNL     1       6.262   5.114  19.789  0.00  0.00    +0.000 OA
ATOM     18  C   UNL     1       7.386   5.589  19.727  0.00  0.00    +0.000 C 
BRANCH  18  19
ATOM     19  O   UNL     1       8.332   5.327  20.657  0.00  0.00    +0.000 OA
ATOM     20  H   UNL     1       7.970   5.052  21.520  0.00  0.00    +0.000 HD
ENDBRANCH  18  19
ENDBRANCH  16  18
ENDBRANCH  15  16
ENDBRANCH  14  15
ENDBRANCH  13  14
ENDBRANCH  12  13
ENDBRANCH   1  12
TORSDOF 9
ENDMDL
MODEL 3
REMARK VINA RESULT:      -6.4      2.894      4.351
REMARK  Name = 
REMARK  9 active torsions:
REMARK  status: ('A' for Active; 'I' for Inactive)
REMARK    1  A    between atoms: C_2  and  O_3
REMARK    2  A    between atoms: C_2  and  C_4
REMARK    3  A    between atoms: C_4  and  C_5
REMARK    4  A    between atoms: C_5  and  C_6
REMARK    5  A    between atoms: C_6  and  C_7
REMARK    6  A    between atoms: C_7  and  C_8
REMARK    7  A    between atoms: C_8  and  C_9
REMARK    8  A    between atoms: C_9  and  C_10
REMARK    9  A    between atoms: N_12  and  C_13
REMARK                            x       y       z     vdW  Elec       q    Type
REMARK                         _______ _______ _______ _____ _____    ______ ____
ROOT
ATOM      1  C   UNL     1       5.134   3.775  16.049  0.00  0.00    +0.000 C 
ENDROOT
BRANCH   1   2
ATOM      2  C   UNL     1       4.734   3.676  17.504  0.00  0.00    +0.000 C 
ATOM      3  O   UNL     1       5.587   3.794  18.379  0.00  0.00    +0.000 OA
ATOM      4  N   UNL     1       3.384   3.423  17.699  0.00  0.00    +0.000 N 
ATOM      5  H   UNL     1       2.843   3.142  16.893  0.00  0.00    +0.000 HD
BRANCH   4   6
ATOM      6  C   UNL     1       2.734   3.370  18.950  0.00  0.00    +0.000 A 
ATOM      7  C   UNL     1       3.177   2.555  19.997  0.00  0.00    +0.000 A 
ATOM      8  C   UNL     1       2.475   2.492  21.200  0.00  0.00    +0.000 A 
ATOM      9  C   UNL     1       1.328   3.254  21.379  0.00  0.00    +0.000 A 
ATOM     10  C   UNL     1       0.896   4.104  20.357  0.00  0.00    +0.000 A 
ATOM     11  C   UNL     1       1.603   4.167  19.152  0.00  0.00    +0.000 A 
ENDBRANCH   4   6
ENDBRANCH   1   2
BRANCH   1  12
ATOM     12  C   UNL     1       5.945   5.037  15.782  0.00  0.00    +0.000 C 
BRANCH  12  13
ATOM     13  C   UNL     1       5.144   6.291  16.123  0.00  0.00    +0.000 C 
BRANCH  13  14
ATOM     14  C   UNL     1       5.886   7.150  17.146  0.00  0.00    +0.000 C 
BRANCH  14  15
ATOM     15  C   UNL     1       7.382   6.844  17.138  0.00  0.00    +0.000 C 
BRANCH  15  16
ATOM     16  C   UNL     1       7.983   6.934  18.540  0.00  0.00    +0.000 C 
BRANCH  16  18
ATOM     17  O   UNL     1       7.754   5.433  20.439  0.00  0.00    +0.000 OA
ATOM     18  C   UNL     1       7.955   5.598  19.245  0.00  0.00    +0.000 C 
BRANCH  18  19
ATOM     19  O   UNL     1       8.179   4.565  18.402  0.00  0.00    +0.000 OA
ATOM     20  H   UNL     1       8.976   4.672  17.851  0.00  0.00    +0.000 HD
ENDBRANCH  18  19
ENDBRANCH  16  18
ENDBRANCH  15  16
ENDBRANCH  14  15
ENDBRANCH  13  14
ENDBRANCH  12  13
ENDBRANCH   1  12
TORSDOF 9
ENDMDL
MODEL 4
REMARK VINA RESULT:      -6.4      0.590      1.267
REMARK  Name = 
REMARK  9 active torsions:
REMARK  status: ('A' for Active; 'I' for Inactive)
REMARK    1  A    between atoms: C_2  and  O_3
REMARK    2  A    between atoms: C_2  and  C_4
REMARK    3  A    between atoms: C_4  and  C_5
REMARK    4  A    between atoms: C_5  and  C_6
REMARK    5  A    between atoms: C_6  and  C_7
REMARK    6  A    between atoms: C_7  and  C_8
REMARK    7  A    between atoms: C_8  and  C_9
REMARK    8  A    between atoms: C_9  and  C_10
REMARK    9  A    between atoms: N_12  and  C_13
REMARK                            x       y       z     vdW  Elec       q    Type
REMARK                         _______ _______ _______ _____ _____    ______ ____
ROOT
ATOM      1  C   UNL     1       6.203   5.889  17.737  0.00  0.00    +0.000 C 
ENDROOT
BRANCH   1   2
ATOM      2  C   UNL     1       5.299   4.938  18.489  0.00  0.00    +0.000 C 
ATOM      3  O   UNL     1       5.776   4.191  19.339  0.00  0.00    +0.000 OA
ATOM      4  N   UNL     1       3.970   5.000  18.099  0.00  0.00    +0.000 N 
ATOM      5  H   UNL     1       3.758   5.505  17.250  0.00  0.00    +0.000 HD
BRANCH   4   6
ATOM      6  C   UNL     1       2.907   4.287  18.696  0.00  0.00    +0.000 A 
ATOM      7  C   UNL     1       2.364   3.130  18.130  0.00  0.00    +0.000 A 
ATOM      8  C   UNL     1       1.280   2.484  18.724  0.00  0.00    +0.000 A 
ATOM      9  C   UNL     1       0.732   2.980  19.900  0.00  0.00    +0.000 A 
ATOM     10  C   UNL     1       1.290   4.114  20.498  0.00  0.00    +0.000 A 
ATOM     11  C   UNL     1       2.379   4.757  19.902  0.00  0.00    +0.000 A 
ENDBRANCH   4   6
ENDBRANCH   1   2
BRANCH   1  12
ATOM     12  C   UNL     1       5.766   6.037  16.285  0.00  0.00    +0.000 C 
BRANCH  12  13
ATOM     13  C   UNL     1       6.706   5.283  15.346  0.00  0.00    +0.000 C 
BRANCH  13  14
ATOM     14  C   UNL     1       6.140   3.905  15.001  0.00  0.00    +0.000 C 
BRANCH  14  15
ATOM     15  C   UNL     1       5.338   3.952  13.703  0.00  0.00    +0.000 C 
BRANCH  15  16
ATOM     16  C   UNL     1       6.144   3.412  12.522  0.00  0.00    +0.000 C 
BRANCH  16  18
ATOM     17  O   UNL     1       4.234   2.822  11.139  0.00  0.00    +0.000 OA
ATOM     18  C   UNL     1       5.307   2.518  11.638  0.00  0.00    +0.000 C 
BRANCH  18  19
ATOM     19  O   UNL     1       5.877   1.308  11.440  0.00  0.00    +0.000 OA
ATOM     20  H   UNL     1       6.212   1.173  10.534  0.00  0.00    +0.000 HD
ENDBRANCH  18  19
ENDBRANCH  16  18
ENDBRANCH  15  16
ENDBRANCH  14  15
ENDBRANCH  13  14
ENDBRANCH  12  13
ENDBRANCH   1  12
TORSDOF 9
ENDMDL
MODEL 5
REMARK VINA RESULT:      -6.4      2.774      5.990
REMARK  Name = 
REMARK  9 active torsions:
REMARK  status: ('A' for Active; 'I' for Inactive)
REMARK    1  A    between atoms: C_2  and  O_3
REMARK    2  A    between atoms: C_2  and  C_4
REMARK    3  A    between atoms: C_4  and  C_5
REMARK    4  A    between atoms: C_5  and  C_6
REMARK    5  A    between atoms: C_6  and  C_7
REMARK    6  A    between atoms: C_7  and  C_8
REMARK    7  A    between atoms: C_8  and  C_9
REMARK    8  A    between atoms: C_9  and  C_10
REMARK    9  A    between atoms: N_12  and  C_13
REMARK                            x       y       z     vdW  Elec       q    Type
REMARK                         _______ _______ _______ _____ _____    ______ ____
ROOT
ATOM      1  C   UNL     1       2.080   6.331  19.565  0.00  0.00    +0.000 C 
ENDROOT
BRANCH   1   2
ATOM      2  C   UNL     1       3.100   6.444  18.454  0.00  0.00    +0.000 C 
ATOM      3  O   UNL     1       3.213   7.499  17.837  0.00  0.00    +0.000 OA
ATOM      4  N   UNL     1       3.814   5.277  18.227  0.00  0.00    +0.000 N 
ATOM      5  H   UNL     1       3.474   4.431  18.663  0.00  0.00    +0.000 HD
BRANCH   4   6
ATOM      6  C   UNL     1       4.881   5.134  17.313  0.00  0.00    +0.000 A 
ATOM      7  C   UNL     1       4.828   4.260  16.223  0.00  0.00    +0.000 A 
ATOM      8  C   UNL     1       5.925   4.110  15.374  0.00  0.00    +0.000 A 
ATOM      9  C   UNL     1       7.084   4.843  15.595  0.00  0.00    +0.000 A 
ATOM     10  C   UNL     1       7.136   5.750  16.657  0.00  0.00    +0.000 A 
ATOM     11  C   UNL     1       6.035   5.900  17.506  0.00  0.00    +0.000 A 
ENDBRANCH   4   6
ENDBRANCH   1   2
BRANCH   1  12
ATOM     12  C   UNL     1       2.431   5.203  20.528  0.00  0.00    +0.000 C 
BRANCH  12  13
ATOM     13  C   UNL     1       1.276   4.213  20.663  0.00  0.00    +0.000 C 
BRANCH  13  14
ATOM     14  C   UNL     1       0.882   3.646  19.300  0.00  0.00    +0.000 C 
BRANCH  14  15
ATOM     15  C   UNL     1       1.317   2.189  19.165  0.00  0.00    +0.000 C 
BRANCH  15  16
ATOM     16  C   UNL     1       2.449   2.030  18.151  0.00  0.00    +0.000 C 
BRANCH  16  18
ATOM     17  O   UNL     1       4.285   2.466  19.685  0.00  0.00    +0.000 OA
ATOM     18  C   UNL     1       3.771   1.759  18.830  0.00  0.00    +0.000 C 
BRANCH  18  19
ATOM     19  O   UNL     1       4.353   0.620  18.392  0.00  0.00    +0.000 OA
ATOM     20  H   UNL     1       4.137  -0.164  18.930  0.00  0.00    +0.000 HD
ENDBRANCH  18  19
ENDBRANCH  16  18
ENDBRANCH  15  16
ENDBRANCH  14  15
ENDBRANCH  13  14
ENDBRANCH  12  13
ENDBRANCH   1  12
TORSDOF 9
ENDMDL
MODEL 6
REMARK VINA RESULT:      -6.3      1.232      1.946
REMARK  Name = 
REMARK  9 active torsions:
REMARK  status: ('A' for Active; 'I' for Inactive)
REMARK    1  A    between atoms: C_2  and  O_3
REMARK    2  A    between atoms: C_2  and  C_4
REMARK    3  A    between atoms: C_4  and  C_5
REMARK    4  A    between atoms: C_5  and  C_6
REMARK    5  A    between atoms: C_6  and  C_7
REMARK    6  A    between atoms: C_7  and  C_8
REMARK    7  A    between atoms: C_8  and  C_9
REMARK    8  A    between atoms: C_9  and  C_10
REMARK    9  A    between atoms: N_12  and  C_13
REMARK                            x       y       z     vdW  Elec       q    Type
REMARK                         _______ _______ _______ _____ _____    ______ ____
ROOT
ATOM      1  C   UNL     1       5.940   5.838  16.382  0.00  0.00    +0.000 C 
ENDROOT
BRANCH   1   2
ATOM      2  C   UNL     1       5.172   5.077  17.439  0.00  0.00    +0.000 C 
ATOM      3  O   UNL     1       5.777   4.361  18.233  0.00  0.00    +0.000 OA
ATOM      4  N   UNL     1       3.799   5.261  17.377  0.00  0.00    +0.000 N 
ATOM      5  H   UNL     1       3.427   5.706  16.549  0.00  0.00    +0.000 HD
BRANCH   4   6
ATOM      6  C   UNL     1       2.861   4.740  18.294  0.00  0.00    +0.000 A 
ATOM      7  C   UNL     1       2.152   3.558  18.058  0.00  0.00    +0.000 A 
ATOM      8  C   UNL     1       1.195   3.105  18.965  0.00  0.00    +0.000 A 
ATOM      9  C   UNL     1       0.943   3.820  20.129  0.00  0.00    +0.000 A 
ATOM     10  C   UNL     1       1.672   4.983  20.397  0.00  0.00    +0.000 A 
ATOM     11  C   UNL     1       2.633   5.434  19.486  0.00  0.00    +0.000 A 
ENDBRANCH   4   6
ENDBRANCH   1   2
BRANCH   1  12
ATOM     12  C   UNL     1       6.849   4.912  15.582  0.00  0.00    +0.000 C 
BRANCH  12  13
ATOM     13  C   UNL     1       6.068   3.730  15.013  0.00  0.00    +0.000 C 
BRANCH  13  14
ATOM     14  C   UNL     1       5.438   4.090  13.668  0.00  0.00    +0.000 C 
BRANCH  14  15
ATOM     15  C   UNL     1       6.256   3.525  12.510  0.00  0.00    +0.000 C 
BRANCH  15  16
ATOM     16  C   UNL     1       5.457   2.506  11.699  0.00  0.00    +0.000 C 
BRANCH  16  18
ATOM     17  O   UNL     1       5.904   0.183  11.138  0.00  0.00    +0.000 OA
ATOM     18  C   UNL     1       6.308   1.326  11.293  0.00  0.00    +0.000 C 
BRANCH  18  19
ATOM     19  O   UNL     1       7.604   1.664  11.107  0.00  0.00    +0.000 OA
ATOM     20  H   UNL     1       8.170   1.496  11.883  0.00  0.00    +0.000 HD
ENDBRANCH  18  19
ENDBRANCH  16  18
ENDBRANCH  15  16
ENDBRANCH  14  15
ENDBRANCH  13  14
ENDBRANCH  12  13
ENDBRANCH   1  12
TORSDOF 9
ENDMDL
MODEL 7
REMARK VINA RESULT:      -6.2      3.703      6.252
REMARK  Name = 
REMARK  9 active torsions:
REMARK  status: ('A' for Active; 'I' for Inactive)
REMARK    1  A    between atoms: C_2  and  O_3
REMARK    2  A    between atoms: C_2  and  C_4
REMARK    3  A    between atoms: C_4  and  C_5
REMARK    4  A    between atoms: C_5  and  C_6
REMARK    5  A    between atoms: C_6  and  C_7
REMARK    6  A    between atoms: C_7  and  C_8
REMARK    7  A    between atoms: C_8  and  C_9
REMARK    8  A    between atoms: C_9  and  C_10
REMARK    9  A    between atoms: N_12  and  C_13
REMARK                            x       y       z     vdW  Elec       q    Type
REMARK                         _______ _______ _______ _____ _____    ______ ____
ROOT
ATOM      1  C   UNL     1       4.426   4.367  17.709  0.00  0.00    +0.000 C 
ENDROOT
BRANCH   1   2
ATOM      2  C   UNL     1       4.156   5.817  18.045  0.00  0.00    +0.000 C 
ATOM      3  O   UNL     1       5.066   6.637  17.975  0.00  0.00    +0.000 OA
ATOM      4  N   UNL     1       2.850   6.067  18.439  0.00  0.00    +0.000 N 
ATOM      5  H   UNL     1       2.268   5.269  18.652  0.00  0.00    +0.000 HD
BRANCH   4   6
ATOM      6  C   UNL     1       2.310   7.341  18.723  0.00  0.00    +0.000 A 
ATOM      7  C   UNL     1       1.883   7.711  20.002  0.00  0.00    +0.000 A 
ATOM      8  C   UNL     1       1.307   8.961  20.229  0.00  0.00    +0.000 A 
ATOM      9  C   UNL     1       1.162   9.863  19.183  0.00  0.00    +0.000 A 
ATOM     10  C   UNL     1       1.621   9.521  17.908  0.00  0.00    +0.000 A 
ATOM     11  C   UNL     1       2.200   8.268  17.683  0.00  0.00    +0.000 A 
ENDBRANCH   4   6
ENDBRANCH   1   2
BRANCH   1  12
ATOM     12  C   UNL     1       3.137   3.623  17.383  0.00  0.00    +0.000 C 
BRANCH  12  13
ATOM     13  C   UNL     1       3.144   2.219  17.982  0.00  0.00    +0.000 C 
BRANCH  13  14
ATOM     14  C   UNL     1       1.817   1.918  18.680  0.00  0.00    +0.000 C 
BRANCH  14  15
ATOM     15  C   UNL     1       1.103   3.207  19.078  0.00  0.00    +0.000 C 
BRANCH  15  16
ATOM     16  C   UNL     1       0.880   3.284  20.588  0.00  0.00    +0.000 C 
BRANCH  16  18
ATOM     17  O   UNL     1       2.753   2.603  21.982  0.00  0.00    +0.000 OA
ATOM     18  C   UNL     1       2.181   3.467  21.334  0.00  0.00    +0.000 C 
BRANCH  18  19
ATOM     19  O   UNL     1       2.674   4.720  21.212  0.00  0.00    +0.000 OA
ATOM     20  H   UNL     1       2.110   5.407  21.614  0.00  0.00    +0.000 HD
ENDBRANCH  18  19
ENDBRANCH  16  18
ENDBRANCH  15  16
ENDBRANCH  14  15
ENDBRANCH  13  14
ENDBRANCH  12  13
ENDBRANCH   1  12
TORSDOF 9
ENDMDL
MODEL 8
REMARK VINA RESULT:      -6.2      1.020      1.255
REMARK  Name = 
REMARK  9 active torsions:
REMARK  status: ('A' for Active; 'I' for Inactive)
REMARK    1  A    between atoms: C_2  and  O_3
REMARK    2  A    between atoms: C_2  and  C_4
REMARK    3  A    between atoms: C_4  and  C_5
REMARK    4  A    between atoms: C_5  and  C_6
REMARK    5  A    between atoms: C_6  and  C_7
REMARK    6  A    between atoms: C_7  and  C_8
REMARK    7  A    between atoms: C_8  and  C_9
REMARK    8  A    between atoms: C_9  and  C_10
REMARK    9  A    between atoms: N_12  and  C_13
REMARK                            x       y       z     vdW  Elec       q    Type
REMARK                         _______ _______ _______ _____ _____    ______ ____
ROOT
ATOM      1  C   UNL     1       6.575   5.693  18.923  0.00  0.00    +0.000 C 
ENDROOT
BRANCH   1   2
ATOM      2  C   UNL     1       5.456   4.695  19.117  0.00  0.00    +0.000 C 
ATOM      3  O   UNL     1       5.715   3.497  19.188  0.00  0.00    +0.000 OA
ATOM      4  N   UNL     1       4.195   5.269  19.170  0.00  0.00    +0.000 N 
ATOM      5  H   UNL     1       4.112   6.236  18.890  0.00  0.00    +0.000 HD
BRANCH   4   6
ATOM      6  C   UNL     1       2.991   4.578  19.430  0.00  0.00    +0.000 A 
ATOM      7  C   UNL     1       2.472   4.426  20.720  0.00  0.00    +0.000 A 
ATOM      8  C   UNL     1       1.307   3.691  20.940  0.00  0.00    +0.000 A 
ATOM      9  C   UNL     1       0.637   3.110  19.871  0.00  0.00    +0.000 A 
ATOM     10  C   UNL     1       1.122   3.287  18.572  0.00  0.00    +0.000 A 
ATOM     11  C   UNL     1       2.289   4.026  18.354  0.00  0.00    +0.000 A 
ENDBRANCH   4   6
ENDBRANCH   1   2
BRANCH   1  12
ATOM     12  C   UNL     1       7.026   5.745  17.469  0.00  0.00    +0.000 C 
BRANCH  12  13
ATOM     13  C   UNL     1       6.105   6.633  16.636  0.00  0.00    +0.000 C 
BRANCH  13  14
ATOM     14  C   UNL     1       5.475   5.842  15.490  0.00  0.00    +0.000 C 
BRANCH  14  15
ATOM     15  C   UNL     1       6.540   5.109  14.678  0.00  0.00    +0.000 C 
BRANCH  15  16
ATOM     16  C   UNL     1       6.044   3.746  14.198  0.00  0.00    +0.000 C 
BRANCH  16  18
ATOM     17  O   UNL     1       5.547   2.861  11.989  0.00  0.00    +0.000 OA
ATOM     18  C   UNL     1       6.224   3.581  12.708  0.00  0.00    +0.000 C 
BRANCH  18  19
ATOM     19  O   UNL     1       7.239   4.332  12.224  0.00  0.00    +0.000 OA
ATOM     20  H   UNL     1       7.879   3.831  11.685  0.00  0.00    +0.000 HD
ENDBRANCH  18  19
ENDBRANCH  16  18
ENDBRANCH  15  16
ENDBRANCH  14  15
ENDBRANCH  13  14
ENDBRANCH  12  13
ENDBRANCH   1  12
TORSDOF 9
ENDMDL
MODEL 9
REMARK VINA RESULT:      -6.1      4.668      6.746
REMARK  Name = 
REMARK  9 active torsions:
REMARK  status: ('A' for Active; 'I' for Inactive)
REMARK    1  A    between atoms: C_2  and  O_3
REMARK    2  A    between atoms: C_2  and  C_4
REMARK    3  A    between atoms: C_4  and  C_5
REMARK    4  A    between atoms: C_5  and  C_6
REMARK    5  A    between atoms: C_6  and  C_7
REMARK    6  A    between atoms: C_7  and  C_8
REMARK    7  A    between atoms: C_8  and  C_9
REMARK    8  A    between atoms: C_9  and  C_10
REMARK    9  A    between atoms: N_12  and  C_13
REMARK                            x       y       z     vdW  Elec       q    Type
REMARK                         _______ _______ _______ _____ _____    ______ ____
ROOT
ATOM      1  C   UNL     1       6.204   7.059  17.234  0.00  0.00    +0.000 C 
ENDROOT
BRANCH   1   2
ATOM      2  C   UNL     1       5.461   5.910  17.877  0.00  0.00    +0.000 C 
ATOM      3  O   UNL     1       5.817   5.495  18.976  0.00  0.00    +0.000 OA
ATOM      4  N   UNL     1       4.423   5.410  17.105  0.00  0.00    +0.000 N 
ATOM      5  H   UNL     1       4.377   5.707  16.140  0.00  0.00    +0.000 HD
BRANCH   4   6
ATOM      6  C   UNL     1       3.519   4.402  17.503  0.00  0.00    +0.000 A 
ATOM      7  C   UNL     1       2.222   4.684  17.945  0.00  0.00    +0.000 A 
ATOM      8  C   UNL     1       1.377   3.662  18.379  0.00  0.00    +0.000 A 
ATOM      9  C   UNL     1       1.813   2.343  18.364  0.00  0.00    +0.000 A 
ATOM     10  C   UNL     1       3.092   2.043  17.887  0.00  0.00    +0.000 A 
ATOM     11  C   UNL     1       3.936   3.069  17.450  0.00  0.00    +0.000 A 
ENDBRANCH   4   6
ENDBRANCH   1   2
BRANCH   1  12
ATOM     12  C   UNL     1       7.508   7.355  17.964  0.00  0.00    +0.000 C 
BRANCH  12  13
ATOM     13  C   UNL     1       8.122   8.670  17.488  0.00  0.00    +0.000 C 
BRANCH  13  14
ATOM     14  C   UNL     1       8.755   9.429  18.653  0.00  0.00    +0.000 C 
BRANCH  14  15
ATOM     15  C   UNL     1       9.266  10.796  18.204  0.00  0.00    +0.000 C 
BRANCH  15  16
ATOM     16  C   UNL     1       9.995  11.524  19.333  0.00  0.00    +0.000 C 
BRANCH  16  18
ATOM     17  O   UNL     1      12.326  11.535  20.025  0.00  0.00    +0.000 OA
ATOM     18  C   UNL     1      11.492  11.503  19.132  0.00  0.00    +0.000 C 
BRANCH  18  19
ATOM     19  O   UNL     1      11.837  11.442  17.826  0.00  0.00    +0.000 OA
ATOM     20  H   UNL     1      12.209  10.582  17.557  0.00  0.00    +0.000 HD
ENDBRANCH  18  19
ENDBRANCH  16  18
ENDBRANCH  15  16
ENDBRANCH  14  15
ENDBRANCH  13  14
ENDBRANCH  12  13
ENDBRANCH   1  12
TORSDOF 9
ENDMDL
