MODEL 1
REMARK VINA RESULT:      -8.4      0.000      0.000
REMARK  Name = 
REMARK  4 active torsions:
REMARK  status: ('A' for Active; 'I' for Inactive)
REMARK    1  A    between atoms: C_1  and  C_2
REMARK    2  A    between atoms: C_4  and  C_5
REMARK    3  A    between atoms: C_11  and  C_12
REMARK    4  A    between atoms: N_16  and  C_17
REMARK                            x       y       z     vdW  Elec       q    Type
REMARK                         _______ _______ _______ _____ _____    ______ ____
ROOT
ATOM      1  C   UNL     1       2.034   8.409  19.023  0.00  0.00    +0.000 A 
ATOM      2  C   UNL     1       2.695   9.092  18.000  0.00  0.00    +0.000 A 
ATOM      3  C   UNL     1       3.619   8.428  17.199  0.00  0.00    +0.000 A 
ATOM      4  C   UNL     1       3.905   7.073  17.427  0.00  0.00    +0.000 A 
ATOM      5  C   UNL     1       4.871   6.410  16.522  0.00  0.00    +0.000 A 
ATOM      6  O   UNL     1       5.438   7.044  15.639  0.00  0.00    +0.000 OA
ATOM      7  C   UNL     1       5.110   4.966  16.721  0.00  0.00    +0.000 A 
ATOM      8  C   UNL     1       4.472   4.372  17.743  0.00  0.00    +0.000 A 
ATOM      9  N   UNL     1       3.564   4.942  18.643  0.00  0.00    +0.000 N 
ATOM     10  C   UNL     1       3.264   6.343  18.449  0.00  0.00    +0.000 A 
ATOM     11  C   UNL     1       2.301   7.039  19.204  0.00  0.00    +0.000 A 
ENDROOT
BRANCH   9  12
ATOM     12  C   UNL     1       2.913   4.080  19.604  0.00  0.00    +0.000 A 
ATOM     13  C   UNL     1       3.639   3.256  20.486  0.00  0.00    +0.000 A 
ATOM     14  C   UNL     1       2.999   2.515  21.486  0.00  0.00    +0.000 A 
ATOM     15  C   UNL     1       1.614   2.524  21.567  0.00  0.00    +0.000 A 
ATOM     16  F   UNL     1       0.999   1.813  22.521  0.00  0.00    +0.000 F 
ATOM     17  C   UNL     1       0.859   3.260  20.667  0.00  0.00    +0.000 A 
ATOM     18  C   UNL     1       1.505   4.041  19.702  0.00  0.00    +0.000 A 
ENDBRANCH   9  12
BRANCH   1  22
ATOM     19  C   UNL     1      -0.772  10.018  23.004  0.00  0.00    +0.000 C 
ATOM     20  C   UNL     1      -0.252   9.872  21.617  0.00  0.00    +0.000 A 
ATOM     21  C   UNL     1       0.801   8.993  21.214  0.00  0.00    +0.000 A 
ATOM     22  C   UNL     1       1.060   9.110  19.862  0.00  0.00    +0.000 A 
ATOM     23  S   UNL     1      -0.045  10.258  19.220  0.00  0.00    +0.000 S 
ATOM     24  N   UNL     1      -0.795  10.610  20.653  0.00  0.00    +0.000 NA
ENDBRANCH   1  22
BRANCH   7  25
ATOM     25  C   UNL     1       5.988   4.137  15.855  0.00  0.00    +0.000 C 
ATOM     26  N   UNL     1       7.206   4.663  15.560  0.00  0.00    +0.000 N 
ATOM     27  O   UNL     1       5.645   3.049  15.404  0.00  0.00    +0.000 OA
ATOM     28  H   UNL     1       7.494   5.572  15.915  0.00  0.00    +0.000 HD
ATOM     29  H   UNL     1       7.830   4.153  14.951  0.00  0.00    +0.000 HD
ENDBRANCH   7  25
TORSDOF 3
ENDMDL
MODEL 2
REMARK VINA RESULT:      -8.1      0.914      1.041
REMARK  Name = 
REMARK  4 active torsions:
REMARK  status: ('A' for Active; 'I' for Inactive)
REMARK    1  A    between atoms: C_1  and  C_2
REMARK    2  A    between atoms: C_4  and  C_5
REMARK    3  A    between atoms: C_11  and  C_12
REMARK    4  A    between atoms: N_16  and  C_17
REMARK                            x       y       z     vdW  Elec       q    Type
REMARK                         _______ _______ _______ _____ _____    ______ ____
ROOT
ATOM      1  C   UNL     1       2.058   8.416  18.842  0.00  0.00    +0.000 A 
ATOM      2  C   UNL     1       2.783   9.063  17.839  0.00  0.00    +0.000 A 
ATOM      3  C   UNL     1       3.756   8.371  17.123  0.00  0.00    +0.000 A 
ATOM      4  C   UNL     1       4.027   7.026  17.417  0.00  0.00    +0.000 A 
ATOM      5  C   UNL     1       5.048   6.333  16.600  0.00  0.00    +0.000 A 
ATOM      6  O   UNL     1       5.670   6.936  15.733  0.00  0.00    +0.000 OA
ATOM      7  C   UNL     1       5.272   4.897  16.866  0.00  0.00    +0.000 A 
ATOM      8  C   UNL     1       4.570   4.340  17.866  0.00  0.00    +0.000 A 
ATOM      9  N   UNL     1       3.607   4.940  18.685  0.00  0.00    +0.000 N 
ATOM     10  C   UNL     1       3.321   6.332  18.422  0.00  0.00    +0.000 A 
ATOM     11  C   UNL     1       2.312   7.053  19.089  0.00  0.00    +0.000 A 
ENDROOT
BRANCH   9  12
ATOM     12  C   UNL     1       2.896   4.112  19.633  0.00  0.00    +0.000 A 
ATOM     13  C   UNL     1       3.565   3.303  20.573  0.00  0.00    +0.000 A 
ATOM     14  C   UNL     1       2.863   2.597  21.557  0.00  0.00    +0.000 A 
ATOM     15  C   UNL     1       1.477   2.625  21.566  0.00  0.00    +0.000 A 
ATOM     16  F   UNL     1       0.804   1.947  22.505  0.00  0.00    +0.000 F 
ATOM     17  C   UNL     1       0.779   3.345  20.609  0.00  0.00    +0.000 A 
ATOM     18  C   UNL     1       1.485   4.093  19.659  0.00  0.00    +0.000 A 
ENDBRANCH   9  12
BRANCH   1  22
ATOM     19  C   UNL     1      -1.613  11.726  20.210  0.00  0.00    +0.000 C 
ATOM     20  C   UNL     1      -0.622  10.618  20.278  0.00  0.00    +0.000 A 
ATOM     21  C   UNL     1       0.247  10.217  19.216  0.00  0.00    +0.000 A 
ATOM     22  C   UNL     1       1.033   9.144  19.592  0.00  0.00    +0.000 A 
ATOM     23  S   UNL     1       0.648   8.766  21.223  0.00  0.00    +0.000 S 
ATOM     24  N   UNL     1      -0.517   9.926  21.409  0.00  0.00    +0.000 NA
ENDBRANCH   1  22
BRANCH   7  25
ATOM     25  C   UNL     1       6.203   4.039  16.087  0.00  0.00    +0.000 C 
ATOM     26  N   UNL     1       7.526   4.192  16.358  0.00  0.00    +0.000 N 
ATOM     27  O   UNL     1       5.822   3.248  15.231  0.00  0.00    +0.000 OA
ATOM     28  H   UNL     1       7.854   4.858  17.056  0.00  0.00    +0.000 HD
ATOM     29  H   UNL     1       8.203   3.654  15.837  0.00  0.00    +0.000 HD
ENDBRANCH   7  25
TORSDOF 3
ENDMDL
MODEL 3
REMARK VINA RESULT:      -8.0      3.389      5.089
REMARK  Name = 
REMARK  4 active torsions:
REMARK  status: ('A' for Active; 'I' for Inactive)
REMARK    1  A    between atoms: C_1  and  C_2
REMARK    2  A    between atoms: C_4  and  C_5
REMARK    3  A    between atoms: C_11  and  C_12
REMARK    4  A    between atoms: N_16  and  C_17
REMARK                            x       y       z     vdW  Elec       q    Type
REMARK                         _______ _______ _______ _____ _____    ______ ____
ROOT
ATOM      1  C   UNL     1       1.769   7.160  20.090  0.00  0.00    +0.000 A 
ATOM      2  C   UNL     1       0.917   6.206  20.651  0.00  0.00    +0.000 A 
ATOM      3  C   UNL     1       1.297   4.868  20.692  0.00  0.00    +0.000 A 
ATOM      4  C   UNL     1       2.530   4.467  20.154  0.00  0.00    +0.000 A 
ATOM      5  C   UNL     1       2.896   3.037  20.257  0.00  0.00    +0.000 A 
ATOM      6  O   UNL     1       2.119   2.226  20.749  0.00  0.00    +0.000 OA
ATOM      7  C   UNL     1       4.227   2.637  19.756  0.00  0.00    +0.000 A 
ATOM      8  C   UNL     1       4.986   3.592  19.197  0.00  0.00    +0.000 A 
ATOM      9  N   UNL     1       4.694   4.954  19.052  0.00  0.00    +0.000 N 
ATOM     10  C   UNL     1       3.422   5.395  19.577  0.00  0.00    +0.000 A 
ATOM     11  C   UNL     1       3.020   6.744  19.599  0.00  0.00    +0.000 A 
ENDROOT
BRANCH   9  12
ATOM     12  C   UNL     1       5.715   5.823  18.510  0.00  0.00    +0.000 A 
ATOM     13  C   UNL     1       5.474   6.668  17.409  0.00  0.00    +0.000 A 
ATOM     14  C   UNL     1       6.436   7.586  16.971  0.00  0.00    +0.000 A 
ATOM     15  C   UNL     1       7.683   7.615  17.576  0.00  0.00    +0.000 A 
ATOM     16  F   UNL     1       8.606   8.490  17.155  0.00  0.00    +0.000 F 
ATOM     17  C   UNL     1       7.987   6.744  18.611  0.00  0.00    +0.000 A 
ATOM     18  C   UNL     1       7.005   5.865  19.082  0.00  0.00    +0.000 A 
ENDBRANCH   9  12
BRANCH   1  22
ATOM     19  C   UNL     1       0.072  11.828  21.370  0.00  0.00    +0.000 C 
ATOM     20  C   UNL     1       0.600  10.697  20.561  0.00  0.00    +0.000 A 
ATOM     21  C   UNL     1       0.864   9.380  21.049  0.00  0.00    +0.000 A 
ATOM     22  C   UNL     1       1.368   8.568  20.051  0.00  0.00    +0.000 A 
ATOM     23  S   UNL     1       1.427   9.498  18.607  0.00  0.00    +0.000 S 
ATOM     24  N   UNL     1       0.858  10.902  19.272  0.00  0.00    +0.000 NA
ENDBRANCH   1  22
BRANCH   7  25
ATOM     25  C   UNL     1       4.776   1.259  19.854  0.00  0.00    +0.000 C 
ATOM     26  N   UNL     1       4.453   0.413  18.841  0.00  0.00    +0.000 N 
ATOM     27  O   UNL     1       5.466   0.882  20.795  0.00  0.00    +0.000 OA
ATOM     28  H   UNL     1       3.868   0.711  18.064  0.00  0.00    +0.000 HD
ATOM     29  H   UNL     1       4.777  -0.543  18.873  0.00  0.00    +0.000 HD
ENDBRANCH   7  25
TORSDOF 3
ENDMDL
MODEL 4
REMARK VINA RESULT:      -7.7      3.550      5.261
REMARK  Name = 
REMARK  4 active torsions:
REMARK  status: ('A' for Active; 'I' for Inactive)
REMARK    1  A    between atoms: C_1  and  C_2
REMARK    2  A    between atoms: C_4  and  C_5
REMARK    3  A    between atoms: C_11  and  C_12
REMARK    4  A    between atoms: N_16  and  C_17
REMARK                            x       y       z     vdW  Elec       q    Type
REMARK                         _______ _______ _______ _____ _____    ______ ____
ROOT
ATOM      1  C   UNL     1       2.224   6.836  19.644  0.00  0.00    +0.000 A 
ATOM      2  C   UNL     1       1.671   6.269  20.794  0.00  0.00    +0.000 A 
ATOM      3  C   UNL     1       2.077   5.005  21.214  0.00  0.00    +0.000 A 
ATOM      4  C   UNL     1       3.030   4.288  20.475  0.00  0.00    +0.000 A 
ATOM      5  C   UNL     1       3.448   2.964  20.988  0.00  0.00    +0.000 A 
ATOM      6  O   UNL     1       2.935   2.494  21.997  0.00  0.00    +0.000 OA
ATOM      7  C   UNL     1       4.506   2.249  20.246  0.00  0.00    +0.000 A 
ATOM      8  C   UNL     1       4.973   2.829  19.129  0.00  0.00    +0.000 A 
ATOM      9  N   UNL     1       4.610   4.065  18.580  0.00  0.00    +0.000 N 
ATOM     10  C   UNL     1       3.614   4.820  19.307  0.00  0.00    +0.000 A 
ATOM     11  C   UNL     1       3.212   6.119  18.944  0.00  0.00    +0.000 A 
ENDROOT
BRANCH   9  12
ATOM     12  C   UNL     1       5.328   4.542  17.419  0.00  0.00    +0.000 A 
ATOM     13  C   UNL     1       6.462   5.371  17.526  0.00  0.00    +0.000 A 
ATOM     14  C   UNL     1       7.212   5.729  16.400  0.00  0.00    +0.000 A 
ATOM     15  C   UNL     1       6.793   5.329  15.140  0.00  0.00    +0.000 A 
ATOM     16  F   UNL     1       7.507   5.674  14.061  0.00  0.00    +0.000 F 
ATOM     17  C   UNL     1       5.637   4.579  14.985  0.00  0.00    +0.000 A 
ATOM     18  C   UNL     1       4.919   4.178  16.118  0.00  0.00    +0.000 A 
ENDBRANCH   9  12
BRANCH   1  22
ATOM     19  C   UNL     1       0.024  11.463  19.398  0.00  0.00    +0.000 C 
ATOM     20  C   UNL     1       0.823  10.265  19.026  0.00  0.00    +0.000 A 
ATOM     21  C   UNL     1       0.976   9.089  19.825  0.00  0.00    +0.000 A 
ATOM     22  C   UNL     1       1.798   8.167  19.205  0.00  0.00    +0.000 A 
ATOM     23  S   UNL     1       2.263   8.825  17.688  0.00  0.00    +0.000 S 
ATOM     24  N   UNL     1       1.459  10.261  17.858  0.00  0.00    +0.000 NA
ENDBRANCH   1  22
BRANCH   7  25
ATOM     25  C   UNL     1       5.091   0.950  20.669  0.00  0.00    +0.000 C 
ATOM     26  N   UNL     1       5.103  -0.035  19.732  0.00  0.00    +0.000 N 
ATOM     27  O   UNL     1       5.524   0.750  21.799  0.00  0.00    +0.000 OA
ATOM     28  H   UNL     1       4.731   0.115  18.796  0.00  0.00    +0.000 HD
ATOM     29  H   UNL     1       5.464  -0.945  19.976  0.00  0.00    +0.000 HD
ENDBRANCH   7  25
TORSDOF 3
ENDMDL
MODEL 5
REMARK VINA RESULT:      -7.6      3.434      5.062
REMARK  Name = 
REMARK  4 active torsions:
REMARK  status: ('A' for Active; 'I' for Inactive)
REMARK    1  A    between atoms: C_1  and  C_2
REMARK    2  A    between atoms: C_4  and  C_5
REMARK    3  A    between atoms: C_11  and  C_12
REMARK    4  A    between atoms: N_16  and  C_17
REMARK                            x       y       z     vdW  Elec       q    Type
REMARK                         _______ _______ _______ _____ _____    ______ ____
ROOT
ATOM      1  C   UNL     1       1.724   7.121  20.325  0.00  0.00    +0.000 A 
ATOM      2  C   UNL     1       0.856   6.139  20.807  0.00  0.00    +0.000 A 
ATOM      3  C   UNL     1       1.208   4.795  20.726  0.00  0.00    +0.000 A 
ATOM      4  C   UNL     1       2.429   4.418  20.144  0.00  0.00    +0.000 A 
ATOM      5  C   UNL     1       2.765   2.977  20.116  0.00  0.00    +0.000 A 
ATOM      6  O   UNL     1       1.975   2.143  20.541  0.00  0.00    +0.000 OA
ATOM      7  C   UNL     1       4.084   2.596  19.571  0.00  0.00    +0.000 A 
ATOM      8  C   UNL     1       4.859   3.582  19.091  0.00  0.00    +0.000 A 
ATOM      9  N   UNL     1       4.595   4.957  19.070  0.00  0.00    +0.000 N 
ATOM     10  C   UNL     1       3.336   5.375  19.643  0.00  0.00    +0.000 A 
ATOM     11  C   UNL     1       2.963   6.725  19.788  0.00  0.00    +0.000 A 
ENDROOT
BRANCH   9  12
ATOM     12  C   UNL     1       5.630   5.850  18.599  0.00  0.00    +0.000 A 
ATOM     13  C   UNL     1       6.922   5.865  19.160  0.00  0.00    +0.000 A 
ATOM     14  C   UNL     1       7.943   6.654  18.617  0.00  0.00    +0.000 A 
ATOM     15  C   UNL     1       7.666   7.501  17.554  0.00  0.00    +0.000 A 
ATOM     16  F   UNL     1       8.641   8.259  17.036  0.00  0.00    +0.000 F 
ATOM     17  C   UNL     1       6.387   7.574  17.025  0.00  0.00    +0.000 A 
ATOM     18  C   UNL     1       5.381   6.745  17.536  0.00  0.00    +0.000 A 
ENDBRANCH   9  12
BRANCH   1  22
ATOM     19  C   UNL     1       0.491  11.965  19.170  0.00  0.00    +0.000 C 
ATOM     20  C   UNL     1       0.802  10.743  19.960  0.00  0.00    +0.000 A 
ATOM     21  C   UNL     1       1.142   9.466  19.414  0.00  0.00    +0.000 A 
ATOM     22  C   UNL     1       1.353   8.535  20.414  0.00  0.00    +0.000 A 
ATOM     23  S   UNL     1       1.148   9.336  21.920  0.00  0.00    +0.000 S 
ATOM     24  N   UNL     1       0.765  10.817  21.288  0.00  0.00    +0.000 NA
ENDBRANCH   1  22
BRANCH   7  25
ATOM     25  C   UNL     1       4.605   1.205  19.541  0.00  0.00    +0.000 C 
ATOM     26  N   UNL     1       4.163   0.422  18.522  0.00  0.00    +0.000 N 
ATOM     27  O   UNL     1       5.374   0.762  20.388  0.00  0.00    +0.000 OA
ATOM     28  H   UNL     1       3.512   0.774  17.823  0.00  0.00    +0.000 HD
ATOM     29  H   UNL     1       4.464  -0.541  18.472  0.00  0.00    +0.000 HD
ENDBRANCH   7  25
TORSDOF 3
ENDMDL
MODEL 6
REMARK VINA RESULT:      -7.5      1.259      1.521
REMARK  Name = 
REMARK  4 active torsions:
REMARK  status: ('A' for Active; 'I' for Inactive)
REMARK    1  A    between atoms: C_1  and  C_2
REMARK    2  A    between atoms: C_4  and  C_5
REMARK    3  A    between atoms: C_11  and  C_12
REMARK    4  A    between atoms: N_16  and  C_17
REMARK                            x       y       z     vdW  Elec       q    Type
REMARK                         _______ _______ _______ _____ _____    ______ ____
ROOT
ATOM      1  C   UNL     1       1.994   8.522  18.649  0.00  0.00    +0.000 A 
ATOM      2  C   UNL     1       2.773   9.142  17.671  0.00  0.00    +0.000 A 
ATOM      3  C   UNL     1       3.797   8.438  17.042  0.00  0.00    +0.000 A 
ATOM      4  C   UNL     1       4.062   7.108  17.401  0.00  0.00    +0.000 A 
ATOM      5  C   UNL     1       5.139   6.399  16.674  0.00  0.00    +0.000 A 
ATOM      6  O   UNL     1       5.808   6.979  15.827  0.00  0.00    +0.000 OA
ATOM      7  C   UNL     1       5.361   4.976  17.005  0.00  0.00    +0.000 A 
ATOM      8  C   UNL     1       4.603   4.446  17.979  0.00  0.00    +0.000 A 
ATOM      9  N   UNL     1       3.585   5.063  18.714  0.00  0.00    +0.000 N 
ATOM     10  C   UNL     1       3.302   6.441  18.384  0.00  0.00    +0.000 A 
ATOM     11  C   UNL     1       2.246   7.173  18.960  0.00  0.00    +0.000 A 
ENDROOT
BRANCH   9  12
ATOM     12  C   UNL     1       2.824   4.260  19.646  0.00  0.00    +0.000 A 
ATOM     13  C   UNL     1       1.943   3.246  19.219  0.00  0.00    +0.000 A 
ATOM     14  C   UNL     1       1.303   2.403  20.135  0.00  0.00    +0.000 A 
ATOM     15  C   UNL     1       1.471   2.614  21.496  0.00  0.00    +0.000 A 
ATOM     16  F   UNL     1       0.856   1.811  22.373  0.00  0.00    +0.000 F 
ATOM     17  C   UNL     1       2.266   3.651  21.957  0.00  0.00    +0.000 A 
ATOM     18  C   UNL     1       2.947   4.459  21.038  0.00  0.00    +0.000 A 
ENDBRANCH   9  12
BRANCH   1  22
ATOM     19  C   UNL     1      -1.915  11.702  19.608  0.00  0.00    +0.000 C 
ATOM     20  C   UNL     1      -0.845  10.689  19.810  0.00  0.00    +0.000 A 
ATOM     21  C   UNL     1       0.054  10.219  18.802  0.00  0.00    +0.000 A 
ATOM     22  C   UNL     1       0.916   9.264  19.307  0.00  0.00    +0.000 A 
ATOM     23  S   UNL     1       0.558   9.073  20.976  0.00  0.00    +0.000 S 
ATOM     24  N   UNL     1      -0.690  10.158  21.021  0.00  0.00    +0.000 NA
ENDBRANCH   1  22
BRANCH   7  25
ATOM     25  C   UNL     1       6.348   4.103  16.318  0.00  0.00    +0.000 C 
ATOM     26  N   UNL     1       5.836   3.053  15.622  0.00  0.00    +0.000 N 
ATOM     27  O   UNL     1       7.559   4.289  16.378  0.00  0.00    +0.000 OA
ATOM     28  H   UNL     1       4.833   2.881  15.580  0.00  0.00    +0.000 HD
ATOM     29  H   UNL     1       6.464   2.413  15.160  0.00  0.00    +0.000 HD
ENDBRANCH   7  25
TORSDOF 3
ENDMDL
MODEL 7
REMARK VINA RESULT:      -7.1      5.419      9.518
REMARK  Name = 
REMARK  4 active torsions:
REMARK  status: ('A' for Active; 'I' for Inactive)
REMARK    1  A    between atoms: C_1  and  C_2
REMARK    2  A    between atoms: C_4  and  C_5
REMARK    3  A    between atoms: C_11  and  C_12
REMARK    4  A    between atoms: N_16  and  C_17
REMARK                            x       y       z     vdW  Elec       q    Type
REMARK                         _______ _______ _______ _____ _____    ______ ____
ROOT
ATOM      1  C   UNL     1       0.821   9.348  20.258  0.00  0.00    +0.000 A 
ATOM      2  C   UNL     1       1.109   9.733  21.569  0.00  0.00    +0.000 A 
ATOM      3  C   UNL     1       0.335  10.703  22.199  0.00  0.00    +0.000 A 
ATOM      4  C   UNL     1      -0.727  11.313  21.513  0.00  0.00    +0.000 A 
ATOM      5  C   UNL     1      -1.536  12.313  22.245  0.00  0.00    +0.000 A 
ATOM      6  O   UNL     1      -1.248  12.632  23.393  0.00  0.00    +0.000 OA
ATOM      7  C   UNL     1      -2.699  12.894  21.542  0.00  0.00    +0.000 A 
ATOM      8  C   UNL     1      -2.904  12.510  20.272  0.00  0.00    +0.000 A 
ATOM      9  N   UNL     1      -2.170  11.587  19.519  0.00  0.00    +0.000 N 
ATOM     10  C   UNL     1      -1.055  10.957  20.189  0.00  0.00    +0.000 A 
ATOM     11  C   UNL     1      -0.279   9.937  19.606  0.00  0.00    +0.000 A 
ENDROOT
BRANCH   9  12
ATOM     12  C   UNL     1      -2.642  11.246  18.195  0.00  0.00    +0.000 A 
ATOM     13  C   UNL     1      -1.869  10.488  17.294  0.00  0.00    +0.000 A 
ATOM     14  C   UNL     1      -2.386  10.071  16.062  0.00  0.00    +0.000 A 
ATOM     15  C   UNL     1      -3.656  10.475  15.678  0.00  0.00    +0.000 A 
ATOM     16  F   UNL     1      -4.151  10.080  14.498  0.00  0.00    +0.000 F 
ATOM     17  C   UNL     1      -4.418  11.288  16.502  0.00  0.00    +0.000 A 
ATOM     18  C   UNL     1      -3.919  11.659  17.756  0.00  0.00    +0.000 A 
ENDBRANCH   9  12
BRANCH   1  22
ATOM     19  C   UNL     1       3.526   5.106  19.259  0.00  0.00    +0.000 C 
ATOM     20  C   UNL     1       2.880   6.435  19.086  0.00  0.00    +0.000 A 
ATOM     21  C   UNL     1       2.115   7.121  20.080  0.00  0.00    +0.000 A 
ATOM     22  C   UNL     1       1.634   8.324  19.599  0.00  0.00    +0.000 A 
ATOM     23  S   UNL     1       2.205   8.504  17.988  0.00  0.00    +0.000 S 
ATOM     24  N   UNL     1       3.008   7.058  17.917  0.00  0.00    +0.000 NA
ENDBRANCH   1  22
BRANCH   7  25
ATOM     25  C   UNL     1      -3.654  13.851  22.158  0.00  0.00    +0.000 C 
ATOM     26  N   UNL     1      -3.117  14.996  22.657  0.00  0.00    +0.000 N 
ATOM     27  O   UNL     1      -4.858  13.632  22.241  0.00  0.00    +0.000 OA
ATOM     28  H   UNL     1      -2.117  15.181  22.609  0.00  0.00    +0.000 HD
ATOM     29  H   UNL     1      -3.719  15.667  23.112  0.00  0.00    +0.000 HD
ENDBRANCH   7  25
TORSDOF 3
ENDMDL
MODEL 8
REMARK VINA RESULT:      -7.1      5.526      9.671
REMARK  Name = 
REMARK  4 active torsions:
REMARK  status: ('A' for Active; 'I' for Inactive)
REMARK    1  A    between atoms: C_1  and  C_2
REMARK    2  A    between atoms: C_4  and  C_5
REMARK    3  A    between atoms: C_11  and  C_12
REMARK    4  A    between atoms: N_16  and  C_17
REMARK                            x       y       z     vdW  Elec       q    Type
REMARK                         _______ _______ _______ _____ _____    ______ ____
ROOT
ATOM      1  C   UNL     1       0.656   9.516  20.260  0.00  0.00    +0.000 A 
ATOM      2  C   UNL     1       0.924   9.974  21.551  0.00  0.00    +0.000 A 
ATOM      3  C   UNL     1       0.121  10.956  22.125  0.00  0.00    +0.000 A 
ATOM      4  C   UNL     1      -0.950  11.504  21.402  0.00  0.00    +0.000 A 
ATOM      5  C   UNL     1      -1.790  12.520  22.076  0.00  0.00    +0.000 A 
ATOM      6  O   UNL     1      -1.519  12.903  23.208  0.00  0.00    +0.000 OA
ATOM      7  C   UNL     1      -2.959  13.035  21.336  0.00  0.00    +0.000 A 
ATOM      8  C   UNL     1      -3.144  12.582  20.085  0.00  0.00    +0.000 A 
ATOM      9  N   UNL     1      -2.382  11.640  19.386  0.00  0.00    +0.000 N 
ATOM     10  C   UNL     1      -1.257  11.073  20.095  0.00  0.00    +0.000 A 
ATOM     11  C   UNL     1      -0.451  10.045  19.571  0.00  0.00    +0.000 A 
ENDROOT
BRANCH   9  12
ATOM     12  C   UNL     1      -2.834  11.222  18.077  0.00  0.00    +0.000 A 
ATOM     13  C   UNL     1      -4.101  11.573  17.573  0.00  0.00    +0.000 A 
ATOM     14  C   UNL     1      -4.478  11.257  16.262  0.00  0.00    +0.000 A 
ATOM     15  C   UNL     1      -3.623  10.513  15.463  0.00  0.00    +0.000 A 
ATOM     16  F   UNL     1      -3.983  10.207  14.210  0.00  0.00    +0.000 F 
ATOM     17  C   UNL     1      -2.399  10.080  15.950  0.00  0.00    +0.000 A 
ATOM     18  C   UNL     1      -2.004  10.443  17.242  0.00  0.00    +0.000 A 
ENDBRANCH   9  12
BRANCH   1  22
ATOM     19  C   UNL     1       3.479   5.301  19.500  0.00  0.00    +0.000 C 
ATOM     20  C   UNL     1       2.798   6.601  19.253  0.00  0.00    +0.000 A 
ATOM     21  C   UNL     1       2.010   7.319  20.206  0.00  0.00    +0.000 A 
ATOM     22  C   UNL     1       1.500   8.481  19.660  0.00  0.00    +0.000 A 
ATOM     23  S   UNL     1       2.075   8.590  18.044  0.00  0.00    +0.000 S 
ATOM     24  N   UNL     1       2.916   7.165  18.054  0.00  0.00    +0.000 NA
ENDBRANCH   1  22
BRANCH   7  25
ATOM     25  C   UNL     1      -3.944  13.998  21.895  0.00  0.00    +0.000 C 
ATOM     26  N   UNL     1      -4.451  13.693  23.119  0.00  0.00    +0.000 N 
ATOM     27  O   UNL     1      -4.306  15.005  21.296  0.00  0.00    +0.000 OA
ATOM     28  H   UNL     1      -4.169  12.851  23.617  0.00  0.00    +0.000 HD
ATOM     29  H   UNL     1      -5.144  14.299  23.532  0.00  0.00    +0.000 HD
ENDBRANCH   7  25
TORSDOF 3
ENDMDL
MODEL 9
REMARK VINA RESULT:      -7.1      9.437     10.719
REMARK  Name = 
REMARK  4 active torsions:
REMARK  status: ('A' for Active; 'I' for Inactive)
REMARK    1  A    between atoms: C_1  and  C_2
REMARK    2  A    between atoms: C_4  and  C_5
REMARK    3  A    between atoms: C_11  and  C_12
REMARK    4  A    between atoms: N_16  and  C_17
REMARK                            x       y       z     vdW  Elec       q    Type
REMARK                         _______ _______ _______ _____ _____    ______ ____
ROOT
ATOM      1  C   UNL     1       8.001  12.900  22.354  0.00  0.00    +0.000 A 
ATOM      2  C   UNL     1       9.290  12.369  22.424  0.00  0.00    +0.000 A 
ATOM      3  C   UNL     1      10.177  12.544  21.366  0.00  0.00    +0.000 A 
ATOM      4  C   UNL     1       9.774  13.241  20.216  0.00  0.00    +0.000 A 
ATOM      5  C   UNL     1      10.771  13.426  19.137  0.00  0.00    +0.000 A 
ATOM      6  O   UNL     1      11.891  12.937  19.230  0.00  0.00    +0.000 OA
ATOM      7  C   UNL     1      10.362  14.224  17.963  0.00  0.00    +0.000 A 
ATOM      8  C   UNL     1       9.100  14.679  17.938  0.00  0.00    +0.000 A 
ATOM      9  N   UNL     1       8.106  14.525  18.912  0.00  0.00    +0.000 N 
ATOM     10  C   UNL     1       8.482  13.794  20.100  0.00  0.00    +0.000 A 
ATOM     11  C   UNL     1       7.633  13.636  21.212  0.00  0.00    +0.000 A 
ENDROOT
BRANCH   9  12
ATOM     12  C   UNL     1       6.841  15.198  18.718  0.00  0.00    +0.000 A 
ATOM     13  C   UNL     1       5.801  14.635  17.952  0.00  0.00    +0.000 A 
ATOM     14  C   UNL     1       4.544  15.246  17.869  0.00  0.00    +0.000 A 
ATOM     15  C   UNL     1       4.333  16.471  18.485  0.00  0.00    +0.000 A 
ATOM     16  F   UNL     1       3.133  17.058  18.403  0.00  0.00    +0.000 F 
ATOM     17  C   UNL     1       5.356  17.096  19.181  0.00  0.00    +0.000 A 
ATOM     18  C   UNL     1       6.596  16.458  19.307  0.00  0.00    +0.000 A 
ENDBRANCH   9  12
BRANCH   1  22
ATOM     19  C   UNL     1       5.492  11.000  26.404  0.00  0.00    +0.000 C 
ATOM     20  C   UNL     1       5.887  11.909  25.295  0.00  0.00    +0.000 A 
ATOM     21  C   UNL     1       6.946  11.671  24.365  0.00  0.00    +0.000 A 
ATOM     22  C   UNL     1       7.071  12.717  23.470  0.00  0.00    +0.000 A 
ATOM     23  S   UNL     1       5.848  13.865  23.842  0.00  0.00    +0.000 S 
ATOM     24  N   UNL     1       5.216  13.047  25.134  0.00  0.00    +0.000 NA
ENDBRANCH   1  22
BRANCH   7  25
ATOM     25  C   UNL     1      11.264  14.567  16.832  0.00  0.00    +0.000 C 
ATOM     26  N   UNL     1      11.569  13.552  15.981  0.00  0.00    +0.000 N 
ATOM     27  O   UNL     1      11.732  15.689  16.668  0.00  0.00    +0.000 OA
ATOM     28  H   UNL     1      11.199  12.613  16.117  0.00  0.00    +0.000 HD
ATOM     29  H   UNL     1      12.200  13.724  15.212  0.00  0.00    +0.000 HD
ENDBRANCH   7  25
TORSDOF 3
ENDMDL
