MODEL 1
REMARK VINA RESULT:      -6.6      0.000      0.000
REMARK  Name = 
REMARK  6 active torsions:
REMARK  status: ('A' for Active; 'I' for Inactive)
REMARK    1  A    between atoms: O_1  and  C_2
REMARK    2  A    between atoms: C_2  and  C_3
REMARK    3  A    between atoms: C_2  and  C_17
REMARK    4  A    between atoms: C_3  and  N_4
REMARK    5  A    between atoms: N_7  and  C_8
REMARK    6  A    between atoms: C_8  and  C_9
REMARK                            x       y       z     vdW  Elec       q    Type
REMARK                         _______ _______ _______ _____ _____    ______ ____
ROOT
ATOM      1  N   UNL     1       5.397   5.207  15.418  0.00  0.00    +0.000 NA
ATOM      2  C   UNL     1       4.737   4.181  16.271  0.00  0.00    +0.000 C 
ATOM      3  C   UNL     1       4.898   4.402  17.801  0.00  0.00    +0.000 C 
ATOM      4  N   UNL     1       4.578   5.761  18.294  0.00  0.00    +0.000 NA
ATOM      5  C   UNL     1       5.181   6.775  17.406  0.00  0.00    +0.000 C 
ATOM      6  C   UNL     1       4.958   6.532  15.894  0.00  0.00    +0.000 C 
ENDROOT
BRANCH   1   7
ATOM      7  C   UNL     1       6.869   5.017  15.465  0.00  0.00    +0.000 C 
BRANCH   7   8
ATOM      8  C   UNL     1       7.574   4.711  14.117  0.00  0.00    +0.000 C 
BRANCH   8   9
ATOM      9  C   UNL     1       6.560   4.518  13.023  0.00  0.00    +0.000 C 
ATOM     10  C   UNL     1       6.982   3.975  11.680  0.00  0.00    +0.000 C 
ATOM     11  C   UNL     1       6.142   3.131  12.597  0.00  0.00    +0.000 C 
ENDBRANCH   8   9
BRANCH   8  12
ATOM     12  O   UNL     1       8.426   5.792  13.736  0.00  0.00    +0.000 OA
ATOM     13  H   UNL     1       9.246   5.373  13.414  0.00  0.00    +0.000 HD
ENDBRANCH   8  12
ENDBRANCH   7   8
ENDBRANCH   1   7
BRANCH   4  14
ATOM     14  C   UNL     1       3.130   5.984  18.435  0.00  0.00    +0.000 C 
BRANCH  14  15
ATOM     15  C   UNL     1       2.423   4.916  19.246  0.00  0.00    +0.000 A 
ATOM     16  C   UNL     1       2.623   4.814  20.630  0.00  0.00    +0.000 A 
ATOM     17  C   UNL     1       1.954   3.840  21.376  0.00  0.00    +0.000 A 
ATOM     18  C   UNL     1       1.077   2.961  20.744  0.00  0.00    +0.000 A 
ATOM     19  C   UNL     1       0.868   3.051  19.370  0.00  0.00    +0.000 A 
ATOM     20  C   UNL     1       1.536   4.025  18.624  0.00  0.00    +0.000 A 
ENDBRANCH  14  15
ENDBRANCH   4  14
TORSDOF 6
ENDMDL
MODEL 2
REMARK VINA RESULT:      -6.6      0.234      1.131
REMARK  Name = 
REMARK  6 active torsions:
REMARK  status: ('A' for Active; 'I' for Inactive)
REMARK    1  A    between atoms: O_1  and  C_2
REMARK    2  A    between atoms: C_2  and  C_3
REMARK    3  A    between atoms: C_2  and  C_17
REMARK    4  A    between atoms: C_3  and  N_4
REMARK    5  A    between atoms: N_7  and  C_8
REMARK    6  A    between atoms: C_8  and  C_9
REMARK                            x       y       z     vdW  Elec       q    Type
REMARK                         _______ _______ _______ _____ _____    ______ ____
ROOT
ATOM      1  N   UNL     1       5.320   5.022  15.643  0.00  0.00    +0.000 NA
ATOM      2  C   UNL     1       4.667   4.039  16.551  0.00  0.00    +0.000 C 
ATOM      3  C   UNL     1       4.863   4.319  18.067  0.00  0.00    +0.000 C 
ATOM      4  N   UNL     1       4.571   5.700  18.512  0.00  0.00    +0.000 NA
ATOM      5  C   UNL     1       5.166   6.670  17.571  0.00  0.00    +0.000 C 
ATOM      6  C   UNL     1       4.908   6.370  16.075  0.00  0.00    +0.000 C 
ENDROOT
BRANCH   1   7
ATOM      7  C   UNL     1       6.791   4.816  15.667  0.00  0.00    +0.000 C 
BRANCH   7   8
ATOM      8  C   UNL     1       7.483   4.594  14.296  0.00  0.00    +0.000 C 
BRANCH   8   9
ATOM      9  C   UNL     1       6.459   4.418  13.209  0.00  0.00    +0.000 C 
ATOM     10  C   UNL     1       6.893   4.182  11.783  0.00  0.00    +0.000 C 
ATOM     11  C   UNL     1       6.246   3.071  12.561  0.00  0.00    +0.000 C 
ENDBRANCH   8   9
BRANCH   8  12
ATOM     12  O   UNL     1       8.295   5.718  13.953  0.00  0.00    +0.000 OA
ATOM     13  H   UNL     1       8.488   5.615  13.002  0.00  0.00    +0.000 HD
ENDBRANCH   8  12
ENDBRANCH   7   8
ENDBRANCH   1   7
BRANCH   4  14
ATOM     14  C   UNL     1       3.129   5.947  18.675  0.00  0.00    +0.000 C 
BRANCH  14  15
ATOM     15  C   UNL     1       2.401   4.845  19.419  0.00  0.00    +0.000 A 
ATOM     16  C   UNL     1       1.511   3.992  18.752  0.00  0.00    +0.000 A 
ATOM     17  C   UNL     1       0.857   2.966  19.439  0.00  0.00    +0.000 A 
ATOM     18  C   UNL     1       1.091   2.783  20.801  0.00  0.00    +0.000 A 
ATOM     19  C   UNL     1       1.973   3.622  21.477  0.00  0.00    +0.000 A 
ATOM     20  C   UNL     1       2.627   4.648  20.790  0.00  0.00    +0.000 A 
ENDBRANCH  14  15
ENDBRANCH   4  14
TORSDOF 6
ENDMDL
MODEL 3
REMARK VINA RESULT:      -6.4      1.178      1.667
REMARK  Name = 
REMARK  6 active torsions:
REMARK  status: ('A' for Active; 'I' for Inactive)
REMARK    1  A    between atoms: O_1  and  C_2
REMARK    2  A    between atoms: C_2  and  C_3
REMARK    3  A    between atoms: C_2  and  C_17
REMARK    4  A    between atoms: C_3  and  N_4
REMARK    5  A    between atoms: N_7  and  C_8
REMARK    6  A    between atoms: C_8  and  C_9
REMARK                            x       y       z     vdW  Elec       q    Type
REMARK                         _______ _______ _______ _____ _____    ______ ____
ROOT
ATOM      1  N   UNL     1       6.323   4.075  15.972  0.00  0.00    +0.000 NA
ATOM      2  C   UNL     1       7.055   4.898  16.973  0.00  0.00    +0.000 C 
ATOM      3  C   UNL     1       6.250   6.095  17.549  0.00  0.00    +0.000 C 
ATOM      4  N   UNL     1       4.889   5.782  18.041  0.00  0.00    +0.000 NA
ATOM      5  C   UNL     1       4.192   4.911  17.074  0.00  0.00    +0.000 C 
ATOM      6  C   UNL     1       5.021   3.710  16.561  0.00  0.00    +0.000 C 
ENDROOT
BRANCH   1   7
ATOM      7  C   UNL     1       6.207   4.832  14.699  0.00  0.00    +0.000 C 
BRANCH   7   8
ATOM      8  C   UNL     1       7.303   4.569  13.633  0.00  0.00    +0.000 C 
BRANCH   8   9
ATOM      9  C   UNL     1       6.680   4.243  12.303  0.00  0.00    +0.000 C 
ATOM     10  C   UNL     1       6.984   2.932  11.620  0.00  0.00    +0.000 C 
ATOM     11  C   UNL     1       5.616   3.177  12.193  0.00  0.00    +0.000 C 
ENDBRANCH   8   9
BRANCH   8  12
ATOM     12  O   UNL     1       8.125   5.724  13.457  0.00  0.00    +0.000 OA
ATOM     13  H   UNL     1       7.642   6.452  13.891  0.00  0.00    +0.000 HD
ENDBRANCH   8  12
ENDBRANCH   7   8
ENDBRANCH   1   7
BRANCH   4  14
ATOM     14  C   UNL     1       4.900   5.172  19.380  0.00  0.00    +0.000 C 
BRANCH  14  15
ATOM     15  C   UNL     1       3.565   4.586  19.795  0.00  0.00    +0.000 A 
ATOM     16  C   UNL     1       3.405   3.203  19.961  0.00  0.00    +0.000 A 
ATOM     17  C   UNL     1       2.178   2.671  20.362  0.00  0.00    +0.000 A 
ATOM     18  C   UNL     1       1.099   3.519  20.605  0.00  0.00    +0.000 A 
ATOM     19  C   UNL     1       1.242   4.894  20.446  0.00  0.00    +0.000 A 
ATOM     20  C   UNL     1       2.470   5.427  20.045  0.00  0.00    +0.000 A 
ENDBRANCH  14  15
ENDBRANCH   4  14
TORSDOF 6
ENDMDL
MODEL 4
REMARK VINA RESULT:      -6.3      2.496      7.250
REMARK  Name = 
REMARK  6 active torsions:
REMARK  status: ('A' for Active; 'I' for Inactive)
REMARK    1  A    between atoms: O_1  and  C_2
REMARK    2  A    between atoms: C_2  and  C_3
REMARK    3  A    between atoms: C_2  and  C_17
REMARK    4  A    between atoms: C_3  and  N_4
REMARK    5  A    between atoms: N_7  and  C_8
REMARK    6  A    between atoms: C_8  and  C_9
REMARK                            x       y       z     vdW  Elec       q    Type
REMARK                         _______ _______ _______ _____ _____    ______ ____
ROOT
ATOM      1  N   UNL     1       4.528   4.561  18.966  0.00  0.00    +0.000 NA
ATOM      2  C   UNL     1       4.273   4.146  17.559  0.00  0.00    +0.000 C 
ATOM      3  C   UNL     1       4.702   5.183  16.484  0.00  0.00    +0.000 C 
ATOM      4  N   UNL     1       6.073   5.723  16.618  0.00  0.00    +0.000 NA
ATOM      5  C   UNL     1       6.342   6.072  18.028  0.00  0.00    +0.000 C 
ATOM      6  C   UNL     1       5.935   4.990  19.056  0.00  0.00    +0.000 C 
ENDROOT
BRANCH   1   7
ATOM      7  C   UNL     1       3.559   5.619  19.351  0.00  0.00    +0.000 C 
BRANCH   7   8
ATOM      8  C   UNL     1       2.237   5.143  20.011  0.00  0.00    +0.000 C 
BRANCH   8   9
ATOM      9  C   UNL     1       2.374   3.732  20.511  0.00  0.00    +0.000 C 
ATOM     10  C   UNL     1       1.267   3.097  21.315  0.00  0.00    +0.000 C 
ATOM     11  C   UNL     1       1.543   2.620  19.916  0.00  0.00    +0.000 C 
ENDBRANCH   8   9
BRANCH   8  12
ATOM     12  O   UNL     1       1.904   5.971  21.127  0.00  0.00    +0.000 OA
ATOM     13  H   UNL     1       0.930   5.948  21.183  0.00  0.00    +0.000 HD
ENDBRANCH   8  12
ENDBRANCH   7   8
ENDBRANCH   1   7
BRANCH   4  14
ATOM     14  C   UNL     1       7.097   4.798  16.104  0.00  0.00    +0.000 C 
BRANCH  14  15
ATOM     15  C   UNL     1       7.035   4.590  14.604  0.00  0.00    +0.000 A 
ATOM     16  C   UNL     1       6.188   3.622  14.045  0.00  0.00    +0.000 A 
ATOM     17  C   UNL     1       6.120   3.448  12.661  0.00  0.00    +0.000 A 
ATOM     18  C   UNL     1       6.898   4.245  11.822  0.00  0.00    +0.000 A 
ATOM     19  C   UNL     1       7.742   5.211  12.362  0.00  0.00    +0.000 A 
ATOM     20  C   UNL     1       7.810   5.386  13.746  0.00  0.00    +0.000 A 
ENDBRANCH  14  15
ENDBRANCH   4  14
TORSDOF 6
ENDMDL
MODEL 5
REMARK VINA RESULT:      -6.3      2.451      7.196
REMARK  Name = 
REMARK  6 active torsions:
REMARK  status: ('A' for Active; 'I' for Inactive)
REMARK    1  A    between atoms: O_1  and  C_2
REMARK    2  A    between atoms: C_2  and  C_3
REMARK    3  A    between atoms: C_2  and  C_17
REMARK    4  A    between atoms: C_3  and  N_4
REMARK    5  A    between atoms: N_7  and  C_8
REMARK    6  A    between atoms: C_8  and  C_9
REMARK                            x       y       z     vdW  Elec       q    Type
REMARK                         _______ _______ _______ _____ _____    ______ ____
ROOT
ATOM      1  N   UNL     1       4.068   4.308  18.454  0.00  0.00    +0.000 NA
ATOM      2  C   UNL     1       4.030   4.250  16.967  0.00  0.00    +0.000 C 
ATOM      3  C   UNL     1       4.763   5.417  16.249  0.00  0.00    +0.000 C 
ATOM      4  N   UNL     1       6.138   5.701  16.715  0.00  0.00    +0.000 NA
ATOM      5  C   UNL     1       6.182   5.692  18.191  0.00  0.00    +0.000 C 
ATOM      6  C   UNL     1       5.474   4.488  18.858  0.00  0.00    +0.000 C 
ENDROOT
BRANCH   1   7
ATOM      7  C   UNL     1       3.171   5.393  18.929  0.00  0.00    +0.000 C 
BRANCH   7   8
ATOM      8  C   UNL     1       2.113   5.001  19.995  0.00  0.00    +0.000 C 
BRANCH   8   9
ATOM      9  C   UNL     1       2.093   3.512  20.199  0.00  0.00    +0.000 C 
ATOM     10  C   UNL     1       1.244   2.902  21.287  0.00  0.00    +0.000 C 
ATOM     11  C   UNL     1       0.868   2.702  19.845  0.00  0.00    +0.000 C 
ENDBRANCH   8   9
BRANCH   8  12
ATOM     12  O   UNL     1       2.413   5.610  21.252  0.00  0.00    +0.000 OA
ATOM     13  H   UNL     1       1.604   5.509  21.787  0.00  0.00    +0.000 HD
ENDBRANCH   8  12
ENDBRANCH   7   8
ENDBRANCH   1   7
BRANCH   4  14
ATOM     14  C   UNL     1       7.128   4.764  16.158  0.00  0.00    +0.000 C 
BRANCH  14  15
ATOM     15  C   UNL     1       7.042   4.609  14.652  0.00  0.00    +0.000 A 
ATOM     16  C   UNL     1       7.829   5.397  13.801  0.00  0.00    +0.000 A 
ATOM     17  C   UNL     1       7.761   5.238  12.415  0.00  0.00    +0.000 A 
ATOM     18  C   UNL     1       6.904   4.284  11.868  0.00  0.00    +0.000 A 
ATOM     19  C   UNL     1       6.116   3.493  12.700  0.00  0.00    +0.000 A 
ATOM     20  C   UNL     1       6.185   3.653  14.086  0.00  0.00    +0.000 A 
ENDBRANCH  14  15
ENDBRANCH   4  14
TORSDOF 6
ENDMDL
MODEL 6
REMARK VINA RESULT:      -6.3      1.294      1.897
REMARK  Name = 
REMARK  6 active torsions:
REMARK  status: ('A' for Active; 'I' for Inactive)
REMARK    1  A    between atoms: O_1  and  C_2
REMARK    2  A    between atoms: C_2  and  C_3
REMARK    3  A    between atoms: C_2  and  C_17
REMARK    4  A    between atoms: C_3  and  N_4
REMARK    5  A    between atoms: N_7  and  C_8
REMARK    6  A    between atoms: C_8  and  C_9
REMARK                            x       y       z     vdW  Elec       q    Type
REMARK                         _______ _______ _______ _____ _____    ______ ____
ROOT
ATOM      1  N   UNL     1       6.672   4.501  15.848  0.00  0.00    +0.000 NA
ATOM      2  C   UNL     1       6.885   5.696  16.709  0.00  0.00    +0.000 C 
ATOM      3  C   UNL     1       5.589   6.459  17.102  0.00  0.00    +0.000 C 
ATOM      4  N   UNL     1       4.490   5.628  17.642  0.00  0.00    +0.000 NA
ATOM      5  C   UNL     1       4.327   4.411  16.821  0.00  0.00    +0.000 C 
ATOM      6  C   UNL     1       5.642   3.666  16.492  0.00  0.00    +0.000 C 
ENDROOT
BRANCH   1   7
ATOM      7  C   UNL     1       6.307   4.939  14.475  0.00  0.00    +0.000 C 
BRANCH   7   8
ATOM      8  C   UNL     1       6.632   3.952  13.323  0.00  0.00    +0.000 C 
BRANCH   8   9
ATOM      9  C   UNL     1       5.381   3.274  12.838  0.00  0.00    +0.000 C 
ATOM     10  C   UNL     1       4.768   3.660  11.515  0.00  0.00    +0.000 C 
ATOM     11  C   UNL     1       5.426   2.318  11.670  0.00  0.00    +0.000 C 
ENDBRANCH   8   9
BRANCH   8  12
ATOM     12  O   UNL     1       7.211   4.644  12.215  0.00  0.00    +0.000 OA
ATOM     13  H   UNL     1       8.139   4.805  12.468  0.00  0.00    +0.000 HD
ENDBRANCH   8  12
ENDBRANCH   7   8
ENDBRANCH   1   7
BRANCH   4  14
ATOM     14  C   UNL     1       4.690   5.280  19.058  0.00  0.00    +0.000 C 
BRANCH  14  15
ATOM     15  C   UNL     1       3.485   4.621  19.701  0.00  0.00    +0.000 A 
ATOM     16  C   UNL     1       2.291   5.332  19.890  0.00  0.00    +0.000 A 
ATOM     17  C   UNL     1       1.178   4.715  20.465  0.00  0.00    +0.000 A 
ATOM     18  C   UNL     1       1.248   3.379  20.854  0.00  0.00    +0.000 A 
ATOM     19  C   UNL     1       2.427   2.660  20.672  0.00  0.00    +0.000 A 
ATOM     20  C   UNL     1       3.540   3.277  20.097  0.00  0.00    +0.000 A 
ENDBRANCH  14  15
ENDBRANCH   4  14
TORSDOF 6
ENDMDL
MODEL 7
REMARK VINA RESULT:      -6.2      2.777      7.039
REMARK  Name = 
REMARK  6 active torsions:
REMARK  status: ('A' for Active; 'I' for Inactive)
REMARK    1  A    between atoms: O_1  and  C_2
REMARK    2  A    between atoms: C_2  and  C_3
REMARK    3  A    between atoms: C_2  and  C_17
REMARK    4  A    between atoms: C_3  and  N_4
REMARK    5  A    between atoms: N_7  and  C_8
REMARK    6  A    between atoms: C_8  and  C_9
REMARK                            x       y       z     vdW  Elec       q    Type
REMARK                         _______ _______ _______ _____ _____    ______ ____
ROOT
ATOM      1  N   UNL     1       4.137   5.013  19.211  0.00  0.00    +0.000 NA
ATOM      2  C   UNL     1       4.111   3.654  18.605  0.00  0.00    +0.000 C 
ATOM      3  C   UNL     1       3.814   3.623  17.080  0.00  0.00    +0.000 C 
ATOM      4  N   UNL     1       4.623   4.540  16.246  0.00  0.00    +0.000 NA
ATOM      5  C   UNL     1       4.699   5.869  16.885  0.00  0.00    +0.000 C 
ATOM      6  C   UNL     1       5.038   5.848  18.395  0.00  0.00    +0.000 C 
ENDROOT
BRANCH   1   7
ATOM      7  C   UNL     1       2.751   5.543  19.294  0.00  0.00    +0.000 C 
BRANCH   7   8
ATOM      8  C   UNL     1       2.605   7.057  19.604  0.00  0.00    +0.000 C 
BRANCH   8   9
ATOM      9  C   UNL     1       1.857   7.752  18.500  0.00  0.00    +0.000 C 
ATOM     10  C   UNL     1       1.419   9.187  18.661  0.00  0.00    +0.000 C 
ATOM     11  C   UNL     1       2.517   8.845  17.693  0.00  0.00    +0.000 C 
ENDBRANCH   8   9
BRANCH   8  12
ATOM     12  O   UNL     1       1.877   7.256  20.816  0.00  0.00    +0.000 OA
ATOM     13  H   UNL     1       2.164   8.127  21.149  0.00  0.00    +0.000 HD
ENDBRANCH   8  12
ENDBRANCH   7   8
ENDBRANCH   1   7
BRANCH   4  14
ATOM     14  C   UNL     1       5.970   4.014  15.973  0.00  0.00    +0.000 C 
BRANCH  14  15
ATOM     15  C   UNL     1       6.409   4.176  14.530  0.00  0.00    +0.000 A 
ATOM     16  C   UNL     1       7.429   5.072  14.184  0.00  0.00    +0.000 A 
ATOM     17  C   UNL     1       7.842   5.203  12.856  0.00  0.00    +0.000 A 
ATOM     18  C   UNL     1       7.239   4.434  11.862  0.00  0.00    +0.000 A 
ATOM     19  C   UNL     1       6.225   3.538  12.191  0.00  0.00    +0.000 A 
ATOM     20  C   UNL     1       5.812   3.407  13.519  0.00  0.00    +0.000 A 
ENDBRANCH  14  15
ENDBRANCH   4  14
TORSDOF 6
ENDMDL
MODEL 8
REMARK VINA RESULT:      -6.2      2.799      4.306
REMARK  Name = 
REMARK  6 active torsions:
REMARK  status: ('A' for Active; 'I' for Inactive)
REMARK    1  A    between atoms: O_1  and  C_2
REMARK    2  A    between atoms: C_2  and  C_3
REMARK    3  A    between atoms: C_2  and  C_17
REMARK    4  A    between atoms: C_3  and  N_4
REMARK    5  A    between atoms: N_7  and  C_8
REMARK    6  A    between atoms: C_8  and  C_9
REMARK                            x       y       z     vdW  Elec       q    Type
REMARK                         _______ _______ _______ _____ _____    ______ ____
ROOT
ATOM      1  N   UNL     1       6.881   5.818  17.624  0.00  0.00    +0.000 NA
ATOM      2  C   UNL     1       6.049   5.556  18.831  0.00  0.00    +0.000 C 
ATOM      3  C   UNL     1       4.531   5.837  18.652  0.00  0.00    +0.000 C 
ATOM      4  N   UNL     1       3.900   5.237  17.455  0.00  0.00    +0.000 NA
ATOM      5  C   UNL     1       4.761   5.444  16.274  0.00  0.00    +0.000 C 
ATOM      6  C   UNL     1       6.256   5.111  16.491  0.00  0.00    +0.000 C 
ENDROOT
BRANCH   1   7
ATOM      7  C   UNL     1       7.000   7.284  17.416  0.00  0.00    +0.000 C 
BRANCH   7   8
ATOM      8  C   UNL     1       8.308   7.952  17.919  0.00  0.00    +0.000 C 
BRANCH   8   9
ATOM      9  C   UNL     1       8.087   9.417  18.178  0.00  0.00    +0.000 C 
ATOM     10  C   UNL     1       8.916  10.142  19.209  0.00  0.00    +0.000 C 
ATOM     11  C   UNL     1       9.114  10.437  17.749  0.00  0.00    +0.000 C 
ENDBRANCH   8   9
BRANCH   8  12
ATOM     12  O   UNL     1       8.742   7.353  19.141  0.00  0.00    +0.000 OA
ATOM     13  H   UNL     1       7.945   6.940  19.523  0.00  0.00    +0.000 HD
ENDBRANCH   8  12
ENDBRANCH   7   8
ENDBRANCH   1   7
BRANCH   4  14
ATOM     14  C   UNL     1       3.593   3.809  17.635  0.00  0.00    +0.000 C 
BRANCH  14  15
ATOM     15  C   UNL     1       2.827   3.504  18.907  0.00  0.00    +0.000 A 
ATOM     16  C   UNL     1       3.443   2.843  19.978  0.00  0.00    +0.000 A 
ATOM     17  C   UNL     1       2.739   2.581  21.155  0.00  0.00    +0.000 A 
ATOM     18  C   UNL     1       1.409   2.983  21.273  0.00  0.00    +0.000 A 
ATOM     19  C   UNL     1       0.784   3.642  20.218  0.00  0.00    +0.000 A 
ATOM     20  C   UNL     1       1.488   3.904  19.040  0.00  0.00    +0.000 A 
ENDBRANCH  14  15
ENDBRANCH   4  14
TORSDOF 6
ENDMDL
MODEL 9
REMARK VINA RESULT:      -6.2      2.158      7.226
REMARK  Name = 
REMARK  6 active torsions:
REMARK  status: ('A' for Active; 'I' for Inactive)
REMARK    1  A    between atoms: O_1  and  C_2
REMARK    2  A    between atoms: C_2  and  C_3
REMARK    3  A    between atoms: C_2  and  C_17
REMARK    4  A    between atoms: C_3  and  N_4
REMARK    5  A    between atoms: N_7  and  C_8
REMARK    6  A    between atoms: C_8  and  C_9
REMARK                            x       y       z     vdW  Elec       q    Type
REMARK                         _______ _______ _______ _____ _____    ______ ____
ROOT
ATOM      1  N   UNL     1       5.316   4.810  19.201  0.00  0.00    +0.000 NA
ATOM      2  C   UNL     1       5.187   3.812  18.103  0.00  0.00    +0.000 C 
ATOM      3  C   UNL     1       4.826   4.411  16.715  0.00  0.00    +0.000 C 
ATOM      4  N   UNL     1       5.651   5.557  16.271  0.00  0.00    +0.000 NA
ATOM      5  C   UNL     1       5.830   6.511  17.384  0.00  0.00    +0.000 C 
ATOM      6  C   UNL     1       6.229   5.870  18.735  0.00  0.00    +0.000 C 
ENDROOT
BRANCH   1   7
ATOM      7  C   UNL     1       3.968   5.310  19.574  0.00  0.00    +0.000 C 
BRANCH   7   8
ATOM      8  C   UNL     1       2.802   4.290  19.493  0.00  0.00    +0.000 C 
BRANCH   8   9
ATOM      9  C   UNL     1       2.187   4.080  20.850  0.00  0.00    +0.000 C 
ATOM     10  C   UNL     1       1.072   3.081  21.035  0.00  0.00    +0.000 C 
ATOM     11  C   UNL     1       2.430   2.802  21.616  0.00  0.00    +0.000 C 
ENDBRANCH   8   9
BRANCH   8  12
ATOM     12  O   UNL     1       1.777   4.763  18.618  0.00  0.00    +0.000 OA
ATOM     13  H   UNL     1       0.956   4.734  19.144  0.00  0.00    +0.000 HD
ENDBRANCH   8  12
ENDBRANCH   7   8
ENDBRANCH   1   7
BRANCH   4  14
ATOM     14  C   UNL     1       6.953   5.137  15.728  0.00  0.00    +0.000 C 
BRANCH  14  15
ATOM     15  C   UNL     1       6.900   4.710  14.274  0.00  0.00    +0.000 A 
ATOM     16  C   UNL     1       5.981   3.744  13.841  0.00  0.00    +0.000 A 
ATOM     17  C   UNL     1       5.923   3.368  12.497  0.00  0.00    +0.000 A 
ATOM     18  C   UNL     1       6.783   3.959  11.573  0.00  0.00    +0.000 A 
ATOM     19  C   UNL     1       7.701   4.921  11.989  0.00  0.00    +0.000 A 
ATOM     20  C   UNL     1       7.759   5.297  13.333  0.00  0.00    +0.000 A 
ENDBRANCH  14  15
ENDBRANCH   4  14
TORSDOF 6
ENDMDL
