MODEL 1
REMARK VINA RESULT:      -7.2      0.000      0.000
REMARK  Name = 
REMARK  7 active torsions:
REMARK  status: ('A' for Active; 'I' for Inactive)
REMARK    1  A    between atoms: C_1  and  C_2
REMARK    2  A    between atoms: C_2  and  C_3
REMARK    3  A    between atoms: C_2  and  C_4
REMARK    4  A    between atoms: C_2  and  N_5
REMARK    5  A    between atoms: C_7  and  N_8
REMARK    6  A    between atoms: C_9  and  C_11
REMARK    7  A    between atoms: N_16  and  C_17
REMARK                            x       y       z     vdW  Elec       q    Type
REMARK                         _______ _______ _______ _____ _____    ______ ____
ROOT
ATOM      1  N   UNL     1       1.611   7.253  21.010  0.00  0.00    +0.000 N 
ATOM      2  C   UNL     1       1.540   8.426  20.270  0.00  0.00    +0.000 C 
ATOM      3  O   UNL     1       1.797   8.533  19.075  0.00  0.00    +0.000 OA
ATOM      4  H   UNL     1       1.600   7.358  22.021  0.00  0.00    +0.000 HD
ENDROOT
BRANCH   2   5
ATOM      5  C   UNL     1       1.014   9.607  21.087  0.00  0.00    +0.000 C 
ATOM      6  C   UNL     1       0.131   9.158  22.260  0.00  0.00    +0.000 C 
ATOM      7  O   UNL     1      -0.073  10.248  23.175  0.00  0.00    +0.000 OA
ATOM      8  C   UNL     1      -0.639  11.386  22.516  0.00  0.00    +0.000 C 
ATOM      9  C   UNL     1       0.187  11.819  21.282  0.00  0.00    +0.000 C 
ATOM     10  N   UNL     1       0.418  10.731  20.276  0.00  0.00    +0.000 NA
BRANCH  10  11
ATOM     11  C   UNL     1      -0.847  10.425  19.559  0.00  0.00    +0.000 C 
ATOM     12  C   UNL     1      -1.763  11.661  19.470  0.00  0.00    +0.000 C 
ATOM     13  C   UNL     1      -2.788  11.287  18.411  0.00  0.00    +0.000 C 
ATOM     14  C   UNL     1      -1.986  10.533  17.367  0.00  0.00    +0.000 C 
ATOM     15  C   UNL     1      -0.742  10.003  18.081  0.00  0.00    +0.000 C 
ENDBRANCH  10  11
ENDBRANCH   2   5
BRANCH   1  18
ATOM     16  N   UNL     1       2.916   4.335  19.456  0.00  0.00    +0.000 N 
ATOM     17  C   UNL     1       3.076   5.641  19.839  0.00  0.00    +0.000 A 
ATOM     18  C   UNL     1       1.920   6.018  20.478  0.00  0.00    +0.000 A 
ATOM     19  C   UNL     1       1.113   4.861  20.433  0.00  0.00    +0.000 A 
ATOM     20  N   UNL     1       1.712   3.836  19.818  0.00  0.00    +0.000 NA
BRANCH  16  22
ATOM     21  C   UNL     1       3.908   2.085  19.178  0.00  0.00    +0.000 C 
ATOM     22  C   UNL     1       3.868   3.535  18.660  0.00  0.00    +0.000 C 
ATOM     23  C   UNL     1       5.273   4.163  18.779  0.00  0.00    +0.000 C 
ATOM     24  C   UNL     1       3.483   3.492  17.166  0.00  0.00    +0.000 C 
ENDBRANCH  16  22
ENDBRANCH   1  18
TORSDOF 4
ENDMDL
MODEL 2
REMARK VINA RESULT:      -7.2      1.044      1.464
REMARK  Name = 
REMARK  7 active torsions:
REMARK  status: ('A' for Active; 'I' for Inactive)
REMARK    1  A    between atoms: C_1  and  C_2
REMARK    2  A    between atoms: C_2  and  C_3
REMARK    3  A    between atoms: C_2  and  C_4
REMARK    4  A    between atoms: C_2  and  N_5
REMARK    5  A    between atoms: C_7  and  N_8
REMARK    6  A    between atoms: C_9  and  C_11
REMARK    7  A    between atoms: N_16  and  C_17
REMARK                            x       y       z     vdW  Elec       q    Type
REMARK                         _______ _______ _______ _____ _____    ______ ____
ROOT
ATOM      1  N   UNL     1       1.611   7.740  20.910  0.00  0.00    +0.000 N 
ATOM      2  C   UNL     1       1.412   8.913  20.193  0.00  0.00    +0.000 C 
ATOM      3  O   UNL     1       1.595   9.052  18.988  0.00  0.00    +0.000 OA
ATOM      4  H   UNL     1       1.647   7.833  21.922  0.00  0.00    +0.000 HD
ENDROOT
BRANCH   2   5
ATOM      5  C   UNL     1       0.842  10.040  21.054  0.00  0.00    +0.000 C 
ATOM      6  C   UNL     1       0.033   9.512  22.247  0.00  0.00    +0.000 C 
ATOM      7  O   UNL     1      -0.207  10.568  23.192  0.00  0.00    +0.000 OA
ATOM      8  C   UNL     1      -0.867  11.681  22.579  0.00  0.00    +0.000 C 
ATOM      9  C   UNL     1      -0.116  12.191  21.327  0.00  0.00    +0.000 C 
ATOM     10  N   UNL     1       0.146  11.140  20.289  0.00  0.00    +0.000 NA
BRANCH  10  11
ATOM     11  C   UNL     1      -1.122  10.768  19.611  0.00  0.00    +0.000 C 
ATOM     12  C   UNL     1      -2.082  11.968  19.503  0.00  0.00    +0.000 C 
ATOM     13  C   UNL     1      -3.115  11.525  18.480  0.00  0.00    +0.000 C 
ATOM     14  C   UNL     1      -2.310  10.767  17.442  0.00  0.00    +0.000 C 
ATOM     15  C   UNL     1      -1.033  10.303  18.144  0.00  0.00    +0.000 C 
ENDBRANCH  10  11
ENDBRANCH   2   5
BRANCH   1  18
ATOM     16  N   UNL     1       2.207   4.397  19.861  0.00  0.00    +0.000 N 
ATOM     17  C   UNL     1       1.530   5.281  20.659  0.00  0.00    +0.000 A 
ATOM     18  C   UNL     1       1.984   6.538  20.344  0.00  0.00    +0.000 A 
ATOM     19  C   UNL     1       2.942   6.311  19.332  0.00  0.00    +0.000 A 
ATOM     20  N   UNL     1       3.080   5.016  19.032  0.00  0.00    +0.000 NA
BRANCH  16  22
ATOM     21  C   UNL     1       1.630   2.467  21.300  0.00  0.00    +0.000 C 
ATOM     22  C   UNL     1       2.111   2.925  19.909  0.00  0.00    +0.000 C 
ATOM     23  C   UNL     1       3.503   2.322  19.623  0.00  0.00    +0.000 C 
ATOM     24  C   UNL     1       1.122   2.372  18.862  0.00  0.00    +0.000 C 
ENDBRANCH  16  22
ENDBRANCH   1  18
TORSDOF 4
ENDMDL
MODEL 3
REMARK VINA RESULT:      -7.2      1.416      1.871
REMARK  Name = 
REMARK  7 active torsions:
REMARK  status: ('A' for Active; 'I' for Inactive)
REMARK    1  A    between atoms: C_1  and  C_2
REMARK    2  A    between atoms: C_2  and  C_3
REMARK    3  A    between atoms: C_2  and  C_4
REMARK    4  A    between atoms: C_2  and  N_5
REMARK    5  A    between atoms: C_7  and  N_8
REMARK    6  A    between atoms: C_9  and  C_11
REMARK    7  A    between atoms: N_16  and  C_17
REMARK                            x       y       z     vdW  Elec       q    Type
REMARK                         _______ _______ _______ _____ _____    ______ ____
ROOT
ATOM      1  N   UNL     1       1.858   8.163  19.999  0.00  0.00    +0.000 N 
ATOM      2  C   UNL     1       1.525   9.111  19.040  0.00  0.00    +0.000 C 
ATOM      3  O   UNL     1       1.564   8.941  17.826  0.00  0.00    +0.000 OA
ATOM      4  H   UNL     1       2.005   8.512  20.943  0.00  0.00    +0.000 HD
ENDROOT
BRANCH   2   5
ATOM      5  C   UNL     1       1.007  10.412  19.653  0.00  0.00    +0.000 C 
ATOM      6  C   UNL     1       0.559  10.233  21.110  0.00  0.00    +0.000 C 
ATOM      7  O   UNL     1       0.388  11.515  21.739  0.00  0.00    +0.000 OA
ATOM      8  C   UNL     1      -0.538  12.334  21.017  0.00  0.00    +0.000 C 
ATOM      9  C   UNL     1      -0.156  12.473  19.525  0.00  0.00    +0.000 C 
ATOM     10  N   UNL     1       0.016  11.169  18.803  0.00  0.00    +0.000 NA
BRANCH  10  11
ATOM     11  C   UNL     1      -1.306  10.522  18.601  0.00  0.00    +0.000 C 
ATOM     12  C   UNL     1      -2.448  11.556  18.583  0.00  0.00    +0.000 C 
ATOM     13  C   UNL     1      -3.627  10.795  17.999  0.00  0.00    +0.000 C 
ATOM     14  C   UNL     1      -3.013   9.935  16.911  0.00  0.00    +0.000 C 
ATOM     15  C   UNL     1      -1.535   9.776  17.272  0.00  0.00    +0.000 C 
ENDBRANCH  10  11
ENDBRANCH   2   5
BRANCH   1  18
ATOM     16  N   UNL     1       2.438   4.667  19.729  0.00  0.00    +0.000 N 
ATOM     17  C   UNL     1       1.786   5.713  20.327  0.00  0.00    +0.000 A 
ATOM     18  C   UNL     1       2.219   6.862  19.712  0.00  0.00    +0.000 A 
ATOM     19  C   UNL     1       3.139   6.406  18.745  0.00  0.00    +0.000 A 
ATOM     20  N   UNL     1       3.275   5.076  18.747  0.00  0.00    +0.000 NA
BRANCH  16  22
ATOM     21  C   UNL     1       1.971   3.124  21.607  0.00  0.00    +0.000 C 
ATOM     22  C   UNL     1       2.355   3.246  20.120  0.00  0.00    +0.000 C 
ATOM     23  C   UNL     1       3.729   2.581  19.888  0.00  0.00    +0.000 C 
ATOM     24  C   UNL     1       1.302   2.478  19.294  0.00  0.00    +0.000 C 
ENDBRANCH  16  22
ENDBRANCH   1  18
TORSDOF 4
ENDMDL
MODEL 4
REMARK VINA RESULT:      -6.9      1.963      7.622
REMARK  Name = 
REMARK  7 active torsions:
REMARK  status: ('A' for Active; 'I' for Inactive)
REMARK    1  A    between atoms: C_1  and  C_2
REMARK    2  A    between atoms: C_2  and  C_3
REMARK    3  A    between atoms: C_2  and  C_4
REMARK    4  A    between atoms: C_2  and  N_5
REMARK    5  A    between atoms: C_7  and  N_8
REMARK    6  A    between atoms: C_9  and  C_11
REMARK    7  A    between atoms: N_16  and  C_17
REMARK                            x       y       z     vdW  Elec       q    Type
REMARK                         _______ _______ _______ _____ _____    ______ ____
ROOT
ATOM      1  N   UNL     1       2.274   7.495  20.238  0.00  0.00    +0.000 N 
ATOM      2  C   UNL     1       2.544   7.254  18.897  0.00  0.00    +0.000 C 
ATOM      3  O   UNL     1       1.915   7.713  17.949  0.00  0.00    +0.000 OA
ATOM      4  H   UNL     1       2.720   6.871  20.906  0.00  0.00    +0.000 HD
ENDROOT
BRANCH   2   5
ATOM      5  C   UNL     1       3.794   6.398  18.693  0.00  0.00    +0.000 C 
ATOM      6  C   UNL     1       4.230   6.344  17.222  0.00  0.00    +0.000 C 
ATOM      7  O   UNL     1       5.561   5.810  17.117  0.00  0.00    +0.000 OA
ATOM      8  C   UNL     1       5.658   4.519  17.727  0.00  0.00    +0.000 C 
ATOM      9  C   UNL     1       5.155   4.522  19.190  0.00  0.00    +0.000 C 
ATOM     10  N   UNL     1       3.761   5.047  19.365  0.00  0.00    +0.000 NA
BRANCH  10  11
ATOM     11  C   UNL     1       2.778   4.070  18.829  0.00  0.00    +0.000 C 
ATOM     12  C   UNL     1       3.172   2.621  19.174  0.00  0.00    +0.000 C 
ATOM     13  C   UNL     1       1.910   1.819  18.902  0.00  0.00    +0.000 C 
ATOM     14  C   UNL     1       0.787   2.715  19.391  0.00  0.00    +0.000 C 
ATOM     15  C   UNL     1       1.337   4.142  19.371  0.00  0.00    +0.000 C 
ENDBRANCH  10  11
ENDBRANCH   2   5
BRANCH   1  18
ATOM     16  N   UNL     1       0.012  10.110  21.062  0.00  0.00    +0.000 N 
ATOM     17  C   UNL     1       1.083   9.661  20.336  0.00  0.00    +0.000 A 
ATOM     18  C   UNL     1       1.288   8.350  20.690  0.00  0.00    +0.000 A 
ATOM     19  C   UNL     1       0.280   8.092  21.643  0.00  0.00    +0.000 A 
ATOM     20  N   UNL     1      -0.499   9.154  21.871  0.00  0.00    +0.000 NA
BRANCH  16  22
ATOM     21  C   UNL     1      -1.502  11.693  19.908  0.00  0.00    +0.000 C 
ATOM     22  C   UNL     1      -0.519  11.487  21.077  0.00  0.00    +0.000 C 
ATOM     23  C   UNL     1       0.656  12.479  20.940  0.00  0.00    +0.000 C 
ATOM     24  C   UNL     1      -1.269  11.807  22.387  0.00  0.00    +0.000 C 
ENDBRANCH  16  22
ENDBRANCH   1  18
TORSDOF 4
ENDMDL
MODEL 5
REMARK VINA RESULT:      -6.9      1.330      1.587
REMARK  Name = 
REMARK  7 active torsions:
REMARK  status: ('A' for Active; 'I' for Inactive)
REMARK    1  A    between atoms: C_1  and  C_2
REMARK    2  A    between atoms: C_2  and  C_3
REMARK    3  A    between atoms: C_2  and  C_4
REMARK    4  A    between atoms: C_2  and  N_5
REMARK    5  A    between atoms: C_7  and  N_8
REMARK    6  A    between atoms: C_9  and  C_11
REMARK    7  A    between atoms: N_16  and  C_17
REMARK                            x       y       z     vdW  Elec       q    Type
REMARK                         _______ _______ _______ _____ _____    ______ ____
ROOT
ATOM      1  N   UNL     1       1.757   8.376  20.009  0.00  0.00    +0.000 N 
ATOM      2  C   UNL     1       1.457   9.284  19.002  0.00  0.00    +0.000 C 
ATOM      3  O   UNL     1       1.513   9.058  17.798  0.00  0.00    +0.000 OA
ATOM      4  H   UNL     1       1.895   8.764  20.938  0.00  0.00    +0.000 HD
ENDROOT
BRANCH   2   5
ATOM      5  C   UNL     1       0.952  10.621  19.546  0.00  0.00    +0.000 C 
ATOM      6  C   UNL     1       0.550  10.535  21.025  0.00  0.00    +0.000 C 
ATOM      7  O   UNL     1       0.392  11.854  21.576  0.00  0.00    +0.000 OA
ATOM      8  C   UNL     1      -0.558  12.623  20.831  0.00  0.00    +0.000 C 
ATOM      9  C   UNL     1      -0.222  12.668  19.323  0.00  0.00    +0.000 C 
ATOM     10  N   UNL     1      -0.067  11.320  18.681  0.00  0.00    +0.000 NA
BRANCH  10  11
ATOM     11  C   UNL     1      -1.391  10.659  18.560  0.00  0.00    +0.000 C 
ATOM     12  C   UNL     1      -2.537  11.688  18.499  0.00  0.00    +0.000 C 
ATOM     13  C   UNL     1      -3.729  10.886  18.003  0.00  0.00    +0.000 C 
ATOM     14  C   UNL     1      -3.141   9.951  16.963  0.00  0.00    +0.000 C 
ATOM     15  C   UNL     1      -1.654   9.820  17.295  0.00  0.00    +0.000 C 
ENDBRANCH  10  11
ENDBRANCH   2   5
BRANCH   1  18
ATOM     16  N   UNL     1       2.923   5.189  18.952  0.00  0.00    +0.000 N 
ATOM     17  C   UNL     1       2.899   6.549  18.794  0.00  0.00    +0.000 A 
ATOM     18  C   UNL     1       2.098   7.057  19.787  0.00  0.00    +0.000 A 
ATOM     19  C   UNL     1       1.682   5.916  20.506  0.00  0.00    +0.000 A 
ATOM     20  N   UNL     1       2.180   4.780  20.007  0.00  0.00    +0.000 NA
BRANCH  16  22
ATOM     21  C   UNL     1       2.534   3.362  17.329  0.00  0.00    +0.000 C 
ATOM     22  C   UNL     1       3.586   4.216  18.062  0.00  0.00    +0.000 C 
ATOM     23  C   UNL     1       4.494   3.299  18.909  0.00  0.00    +0.000 C 
ATOM     24  C   UNL     1       4.460   4.908  16.994  0.00  0.00    +0.000 C 
ENDBRANCH  16  22
ENDBRANCH   1  18
TORSDOF 4
ENDMDL
MODEL 6
REMARK VINA RESULT:      -6.8      2.009      7.767
REMARK  Name = 
REMARK  7 active torsions:
REMARK  status: ('A' for Active; 'I' for Inactive)
REMARK    1  A    between atoms: C_1  and  C_2
REMARK    2  A    between atoms: C_2  and  C_3
REMARK    3  A    between atoms: C_2  and  C_4
REMARK    4  A    between atoms: C_2  and  N_5
REMARK    5  A    between atoms: C_7  and  N_8
REMARK    6  A    between atoms: C_9  and  C_11
REMARK    7  A    between atoms: N_16  and  C_17
REMARK                            x       y       z     vdW  Elec       q    Type
REMARK                         _______ _______ _______ _____ _____    ______ ____
ROOT
ATOM      1  N   UNL     1       1.792   7.080  20.352  0.00  0.00    +0.000 N 
ATOM      2  C   UNL     1       2.307   6.802  19.092  0.00  0.00    +0.000 C 
ATOM      3  O   UNL     1       2.434   7.612  18.179  0.00  0.00    +0.000 OA
ATOM      4  H   UNL     1       1.529   6.277  20.917  0.00  0.00    +0.000 HD
ENDROOT
BRANCH   2   5
ATOM      5  C   UNL     1       2.797   5.360  18.961  0.00  0.00    +0.000 C 
ATOM      6  C   UNL     1       3.048   4.703  20.326  0.00  0.00    +0.000 C 
ATOM      7  O   UNL     1       3.191   3.280  20.174  0.00  0.00    +0.000 OA
ATOM      8  C   UNL     1       4.235   2.954  19.249  0.00  0.00    +0.000 C 
ATOM      9  C   UNL     1       4.052   3.661  17.886  0.00  0.00    +0.000 C 
ATOM     10  N   UNL     1       3.919   5.153  17.973  0.00  0.00    +0.000 NA
BRANCH  10  11
ATOM     11  C   UNL     1       5.227   5.761  18.328  0.00  0.00    +0.000 C 
ATOM     12  C   UNL     1       6.377   4.742  18.210  0.00  0.00    +0.000 C 
ATOM     13  C   UNL     1       7.633   5.598  18.227  0.00  0.00    +0.000 C 
ATOM     14  C   UNL     1       7.263   6.818  17.405  0.00  0.00    +0.000 C 
ATOM     15  C   UNL     1       5.737   6.915  17.444  0.00  0.00    +0.000 C 
ENDBRANCH  10  11
ENDBRANCH   2   5
BRANCH   1  18
ATOM     16  N   UNL     1       0.716  10.430  20.856  0.00  0.00    +0.000 N 
ATOM     17  C   UNL     1       0.923   9.371  20.012  0.00  0.00    +0.000 A 
ATOM     18  C   UNL     1       1.412   8.338  20.775  0.00  0.00    +0.000 A 
ATOM     19  C   UNL     1       1.463   8.872  22.080  0.00  0.00    +0.000 A 
ATOM     20  N   UNL     1       1.041  10.139  22.137  0.00  0.00    +0.000 NA
BRANCH  16  22
ATOM     21  C   UNL     1      -0.177  12.575  21.709  0.00  0.00    +0.000 C 
ATOM     22  C   UNL     1       0.280  11.785  20.467  0.00  0.00    +0.000 C 
ATOM     23  C   UNL     1      -0.895  11.668  19.472  0.00  0.00    +0.000 C 
ATOM     24  C   UNL     1       1.410  12.587  19.787  0.00  0.00    +0.000 C 
ENDBRANCH  16  22
ENDBRANCH   1  18
TORSDOF 4
ENDMDL
MODEL 7
REMARK VINA RESULT:      -6.8      0.922      1.359
REMARK  Name = 
REMARK  7 active torsions:
REMARK  status: ('A' for Active; 'I' for Inactive)
REMARK    1  A    between atoms: C_1  and  C_2
REMARK    2  A    between atoms: C_2  and  C_3
REMARK    3  A    between atoms: C_2  and  C_4
REMARK    4  A    between atoms: C_2  and  N_5
REMARK    5  A    between atoms: C_7  and  N_8
REMARK    6  A    between atoms: C_9  and  C_11
REMARK    7  A    between atoms: N_16  and  C_17
REMARK                            x       y       z     vdW  Elec       q    Type
REMARK                         _______ _______ _______ _____ _____    ______ ____
ROOT
ATOM      1  N   UNL     1       1.858   7.924  20.349  0.00  0.00    +0.000 N 
ATOM      2  C   UNL     1       1.559   8.851  19.358  0.00  0.00    +0.000 C 
ATOM      3  O   UNL     1       1.602   8.642  18.150  0.00  0.00    +0.000 OA
ATOM      4  H   UNL     1       2.008   8.298  21.283  0.00  0.00    +0.000 HD
ENDROOT
BRANCH   2   5
ATOM      5  C   UNL     1       1.074  10.185  19.926  0.00  0.00    +0.000 C 
ATOM      6  C   UNL     1       0.518  10.044  21.351  0.00  0.00    +0.000 C 
ATOM      7  O   UNL     1       0.376  11.340  21.958  0.00  0.00    +0.000 OA
ATOM      8  C   UNL     1      -0.451  12.202  21.169  0.00  0.00    +0.000 C 
ATOM      9  C   UNL     1       0.040  12.306  19.707  0.00  0.00    +0.000 C 
ATOM     10  N   UNL     1       0.188  10.987  19.006  0.00  0.00    +0.000 NA
BRANCH  10  11
ATOM     11  C   UNL     1      -1.151  10.413  18.716  0.00  0.00    +0.000 C 
ATOM     12  C   UNL     1      -2.243  11.499  18.694  0.00  0.00    +0.000 C 
ATOM     13  C   UNL     1      -3.427  10.821  18.025  0.00  0.00    +0.000 C 
ATOM     14  C   UNL     1      -2.803   9.979  16.928  0.00  0.00    +0.000 C 
ATOM     15  C   UNL     1      -1.353   9.735  17.347  0.00  0.00    +0.000 C 
ENDBRANCH  10  11
ENDBRANCH   2   5
BRANCH   1  18
ATOM     16  N   UNL     1       3.137   4.753  19.380  0.00  0.00    +0.000 N 
ATOM     17  C   UNL     1       3.239   6.119  19.373  0.00  0.00    +0.000 A 
ATOM     18  C   UNL     1       2.183   6.605  20.105  0.00  0.00    +0.000 A 
ATOM     19  C   UNL     1       1.493   5.446  20.519  0.00  0.00    +0.000 A 
ATOM     20  N   UNL     1       2.068   4.320  20.086  0.00  0.00    +0.000 NA
BRANCH  16  22
ATOM     21  C   UNL     1       5.461   4.312  18.649  0.00  0.00    +0.000 C 
ATOM     22  C   UNL     1       4.005   3.808  18.649  0.00  0.00    +0.000 C 
ATOM     23  C   UNL     1       3.503   3.690  17.193  0.00  0.00    +0.000 C 
ATOM     24  C   UNL     1       3.991   2.400  19.280  0.00  0.00    +0.000 C 
ENDBRANCH  16  22
ENDBRANCH   1  18
TORSDOF 4
ENDMDL
MODEL 8
REMARK VINA RESULT:      -6.8      1.395      1.948
REMARK  Name = 
REMARK  7 active torsions:
REMARK  status: ('A' for Active; 'I' for Inactive)
REMARK    1  A    between atoms: C_1  and  C_2
REMARK    2  A    between atoms: C_2  and  C_3
REMARK    3  A    between atoms: C_2  and  C_4
REMARK    4  A    between atoms: C_2  and  N_5
REMARK    5  A    between atoms: C_7  and  N_8
REMARK    6  A    between atoms: C_9  and  C_11
REMARK    7  A    between atoms: N_16  and  C_17
REMARK                            x       y       z     vdW  Elec       q    Type
REMARK                         _______ _______ _______ _____ _____    ______ ____
ROOT
ATOM      1  N   UNL     1       1.661   8.290  20.297  0.00  0.00    +0.000 N 
ATOM      2  C   UNL     1       0.549   8.565  21.082  0.00  0.00    +0.000 C 
ATOM      3  O   UNL     1      -0.251   7.735  21.502  0.00  0.00    +0.000 OA
ATOM      4  H   UNL     1       2.091   9.086  19.833  0.00  0.00    +0.000 HD
ENDROOT
BRANCH   2   5
ATOM      5  C   UNL     1       0.446  10.042  21.462  0.00  0.00    +0.000 C 
ATOM      6  C   UNL     1      -0.583  10.289  22.574  0.00  0.00    +0.000 C 
ATOM      7  O   UNL     1      -0.420  11.610  23.118  0.00  0.00    +0.000 OA
ATOM      8  C   UNL     1      -0.518  12.612  22.100  0.00  0.00    +0.000 C 
ATOM      9  C   UNL     1       0.455  12.351  20.927  0.00  0.00    +0.000 C 
ATOM     10  N   UNL     1       0.321  10.995  20.299  0.00  0.00    +0.000 NA
BRANCH  10  11
ATOM     11  C   UNL     1      -0.941  10.918  19.519  0.00  0.00    +0.000 C 
ATOM     12  C   UNL     1      -1.226  12.233  18.768  0.00  0.00    +0.000 C 
ATOM     13  C   UNL     1      -2.297  11.857  17.758  0.00  0.00    +0.000 C 
ATOM     14  C   UNL     1      -1.890  10.477  17.278  0.00  0.00    +0.000 C 
ATOM     15  C   UNL     1      -1.010   9.883  18.379  0.00  0.00    +0.000 C 
ENDBRANCH  10  11
ENDBRANCH   2   5
BRANCH   1  18
ATOM     16  N   UNL     1       2.409   4.842  19.867  0.00  0.00    +0.000 N 
ATOM     17  C   UNL     1       1.776   5.834  20.567  0.00  0.00    +0.000 A 
ATOM     18  C   UNL     1       2.059   7.019  19.934  0.00  0.00    +0.000 A 
ATOM     19  C   UNL     1       2.877   6.639  18.849  0.00  0.00    +0.000 A 
ATOM     20  N   UNL     1       3.091   5.320  18.800  0.00  0.00    +0.000 NA
BRANCH  16  22
ATOM     21  C   UNL     1       3.862   2.839  19.942  0.00  0.00    +0.000 C 
ATOM     22  C   UNL     1       2.460   3.412  20.228  0.00  0.00    +0.000 C 
ATOM     23  C   UNL     1       1.412   2.646  19.391  0.00  0.00    +0.000 C 
ATOM     24  C   UNL     1       2.149   3.178  21.721  0.00  0.00    +0.000 C 
ENDBRANCH  16  22
ENDBRANCH   1  18
TORSDOF 4
ENDMDL
MODEL 9
REMARK VINA RESULT:      -6.8      2.062      7.761
REMARK  Name = 
REMARK  7 active torsions:
REMARK  status: ('A' for Active; 'I' for Inactive)
REMARK    1  A    between atoms: C_1  and  C_2
REMARK    2  A    between atoms: C_2  and  C_3
REMARK    3  A    between atoms: C_2  and  C_4
REMARK    4  A    between atoms: C_2  and  N_5
REMARK    5  A    between atoms: C_7  and  N_8
REMARK    6  A    between atoms: C_9  and  C_11
REMARK    7  A    between atoms: N_16  and  C_17
REMARK                            x       y       z     vdW  Elec       q    Type
REMARK                         _______ _______ _______ _____ _____    ______ ____
ROOT
ATOM      1  N   UNL     1       1.794   7.094  20.335  0.00  0.00    +0.000 N 
ATOM      2  C   UNL     1       2.323   6.821  19.080  0.00  0.00    +0.000 C 
ATOM      3  O   UNL     1       2.480   7.638  18.179  0.00  0.00    +0.000 OA
ATOM      4  H   UNL     1       1.506   6.290  20.886  0.00  0.00    +0.000 HD
ENDROOT
BRANCH   2   5
ATOM      5  C   UNL     1       2.786   5.370  18.940  0.00  0.00    +0.000 C 
ATOM      6  C   UNL     1       3.026   4.700  20.300  0.00  0.00    +0.000 C 
ATOM      7  O   UNL     1       3.143   3.276  20.139  0.00  0.00    +0.000 OA
ATOM      8  C   UNL     1       4.180   2.937  19.212  0.00  0.00    +0.000 C 
ATOM      9  C   UNL     1       4.009   3.655  17.854  0.00  0.00    +0.000 C 
ATOM     10  N   UNL     1       3.904   5.149  17.950  0.00  0.00    +0.000 NA
BRANCH  10  11
ATOM     11  C   UNL     1       5.223   5.730  18.308  0.00  0.00    +0.000 C 
ATOM     12  C   UNL     1       6.357   4.697  18.163  0.00  0.00    +0.000 C 
ATOM     13  C   UNL     1       7.626   5.534  18.187  0.00  0.00    +0.000 C 
ATOM     14  C   UNL     1       7.269   6.776  17.392  0.00  0.00    +0.000 C 
ATOM     15  C   UNL     1       5.745   6.894  17.443  0.00  0.00    +0.000 C 
ENDBRANCH  10  11
ENDBRANCH   2   5
BRANCH   1  18
ATOM     16  N   UNL     1       0.768  10.456  20.862  0.00  0.00    +0.000 N 
ATOM     17  C   UNL     1       0.961   9.400  20.011  0.00  0.00    +0.000 A 
ATOM     18  C   UNL     1       1.431   8.354  20.766  0.00  0.00    +0.000 A 
ATOM     19  C   UNL     1       1.487   8.877  22.076  0.00  0.00    +0.000 A 
ATOM     20  N   UNL     1       1.084  10.150  22.142  0.00  0.00    +0.000 NA
BRANCH  16  22
ATOM     21  C   UNL     1      -0.218  11.826  19.052  0.00  0.00    +0.000 C 
ATOM     22  C   UNL     1       0.354  11.821  20.483  0.00  0.00    +0.000 C 
ATOM     23  C   UNL     1       1.581  12.755  20.549  0.00  0.00    +0.000 C 
ATOM     24  C   UNL     1      -0.731  12.382  21.427  0.00  0.00    +0.000 C 
ENDBRANCH  16  22
ENDBRANCH   1  18
TORSDOF 4
ENDMDL
