MODEL 1
REMARK VINA RESULT:      -7.4      0.000      0.000
REMARK  Name = 
REMARK  5 active torsions:
REMARK  status: ('A' for Active; 'I' for Inactive)
REMARK    1  A    between atoms: C_2  and  OXT_3
REMARK    2  A    between atoms: C_2  and  CA_4
REMARK    3  A    between atoms: C_6  and  C_7
REMARK    4  A    between atoms: C_12  and  O_13
REMARK    5  A    between atoms: O_13  and  C_14
REMARK                            x       y       z     vdW  Elec       q    Type
REMARK                         _______ _______ _______ _____ _____    ______ ____
ROOT
ATOM      1  C   UNL     1       4.340   5.871  18.258  0.00  0.00    +0.000 A 
ATOM      2  C   UNL     1       3.704   7.094  17.984  0.00  0.00    +0.000 A 
ATOM      3  C   UNL     1       2.608   7.522  18.735  0.00  0.00    +0.000 A 
ATOM      4  C   UNL     1       2.137   6.735  19.783  0.00  0.00    +0.000 A 
ATOM      5 CL   UNL     1       0.809   7.332  20.716  0.00  0.00    +0.000 Cl
ATOM      6  C   UNL     1       2.737   5.502  20.075  0.00  0.00    +0.000 A 
ATOM      7  C   UNL     1       3.826   5.075  19.307  0.00  0.00    +0.000 A 
ENDROOT
BRANCH   1  10
ATOM      8  CA  UNL     1       6.756   4.916  15.602  0.00  0.00    +0.000 A 
ATOM      9  C   UNL     1       5.603   5.439  16.141  0.00  0.00    +0.000 A 
ATOM     10  C   UNL     1       5.553   5.473  17.516  0.00  0.00    +0.000 A 
ATOM     11  N   UNL     1       6.602   5.075  18.274  0.00  0.00    +0.000 NA
ATOM     12  C   UNL     1       7.682   4.598  17.640  0.00  0.00    +0.000 A 
ATOM     13  N   UNL     1       7.823   4.477  16.316  0.00  0.00    +0.000 NA
BRANCH   8  15
ATOM     14  O   UNL     1       6.161   4.009  13.465  0.00  0.00    +0.000 OA
ATOM     15  C   UNL     1       6.855   4.756  14.125  0.00  0.00    +0.000 C 
BRANCH  15  16
ATOM     16  OXT UNL     1       7.842   5.539  13.619  0.00  0.00    +0.000 OA
ATOM     17  HXT UNL     1       7.619   5.781  12.690  0.00  0.00    +0.000 HD
ENDBRANCH  15  16
ENDBRANCH   8  15
ENDBRANCH   1  10
BRANCH   6  18
ATOM     18  O   UNL     1       2.237   4.821  21.155  0.00  0.00    +0.000 OA
BRANCH  18  19
ATOM     19  C   UNL     1       2.444   3.406  21.269  0.00  0.00    +0.000 C 
ATOM     20  C   UNL     1       1.224   2.716  21.839  0.00  0.00    +0.000 C 
ATOM     21  C   UNL     1       1.624   2.477  20.414  0.00  0.00    +0.000 C 
ENDBRANCH  18  19
ENDBRANCH   6  18
TORSDOF 5
ENDMDL
MODEL 2
REMARK VINA RESULT:      -7.3      2.430      3.211
REMARK  Name = 
REMARK  5 active torsions:
REMARK  status: ('A' for Active; 'I' for Inactive)
REMARK    1  A    between atoms: C_2  and  OXT_3
REMARK    2  A    between atoms: C_2  and  CA_4
REMARK    3  A    between atoms: C_6  and  C_7
REMARK    4  A    between atoms: C_12  and  O_13
REMARK    5  A    between atoms: O_13  and  C_14
REMARK                            x       y       z     vdW  Elec       q    Type
REMARK                         _______ _______ _______ _____ _____    ______ ____
ROOT
ATOM      1  C   UNL     1       5.168   4.949  15.841  0.00  0.00    +0.000 A 
ATOM      2  C   UNL     1       5.009   6.256  16.332  0.00  0.00    +0.000 A 
ATOM      3  C   UNL     1       4.432   6.493  17.581  0.00  0.00    +0.000 A 
ATOM      4  C   UNL     1       4.014   5.421  18.366  0.00  0.00    +0.000 A 
ATOM      5 CL   UNL     1       3.352   5.763  19.925  0.00  0.00    +0.000 Cl
ATOM      6  C   UNL     1       4.144   4.104  17.901  0.00  0.00    +0.000 A 
ATOM      7  C   UNL     1       4.710   3.877  16.642  0.00  0.00    +0.000 A 
ENDROOT
BRANCH   1  10
ATOM      8  CA  UNL     1       6.301   3.536  12.597  0.00  0.00    +0.000 A 
ATOM      9  C   UNL     1       5.472   3.727  13.678  0.00  0.00    +0.000 A 
ATOM     10  C   UNL     1       5.863   4.708  14.561  0.00  0.00    +0.000 A 
ATOM     11  N   UNL     1       6.959   5.469  14.334  0.00  0.00    +0.000 NA
ATOM     12  C   UNL     1       7.685   5.205  13.238  0.00  0.00    +0.000 A 
ATOM     13  N   UNL     1       7.425   4.251  12.339  0.00  0.00    +0.000 NA
BRANCH   8  15
ATOM     14  O   UNL     1       4.902   2.200  11.182  0.00  0.00    +0.000 OA
ATOM     15  C   UNL     1       6.002   2.433  11.643  0.00  0.00    +0.000 C 
BRANCH  15  16
ATOM     16  OXT UNL     1       7.117   1.706  11.378  0.00  0.00    +0.000 OA
ATOM     17  HXT UNL     1       7.842   1.993  11.981  0.00  0.00    +0.000 HD
ENDBRANCH  15  16
ENDBRANCH   8  15
ENDBRANCH   1  10
BRANCH   6  18
ATOM     18  O   UNL     1       3.751   3.112  18.762  0.00  0.00    +0.000 OA
BRANCH  18  19
ATOM     19  C   UNL     1       2.588   2.324  18.467  0.00  0.00    +0.000 C 
ATOM     20  C   UNL     1       1.662   2.245  19.660  0.00  0.00    +0.000 C 
ATOM     21  C   UNL     1       1.241   2.996  18.434  0.00  0.00    +0.000 C 
ENDBRANCH  18  19
ENDBRANCH   6  18
TORSDOF 5
ENDMDL
MODEL 3
REMARK VINA RESULT:      -7.1      4.175      6.089
REMARK  Name = 
REMARK  5 active torsions:
REMARK  status: ('A' for Active; 'I' for Inactive)
REMARK    1  A    between atoms: C_2  and  OXT_3
REMARK    2  A    between atoms: C_2  and  CA_4
REMARK    3  A    between atoms: C_6  and  C_7
REMARK    4  A    between atoms: C_12  and  O_13
REMARK    5  A    between atoms: O_13  and  C_14
REMARK                            x       y       z     vdW  Elec       q    Type
REMARK                         _______ _______ _______ _____ _____    ______ ____
ROOT
ATOM      1  C   UNL     1       2.075   7.558  19.264  0.00  0.00    +0.000 A 
ATOM      2  C   UNL     1       2.152   8.200  18.015  0.00  0.00    +0.000 A 
ATOM      3  C   UNL     1       1.745   9.525  17.859  0.00  0.00    +0.000 A 
ATOM      4  C   UNL     1       1.263  10.236  18.955  0.00  0.00    +0.000 A 
ATOM      5 CL   UNL     1       0.818  11.890  18.721  0.00  0.00    +0.000 Cl
ATOM      6  C   UNL     1       1.157   9.623  20.211  0.00  0.00    +0.000 A 
ATOM      7  C   UNL     1       1.554   8.290  20.356  0.00  0.00    +0.000 A 
ENDROOT
BRANCH   1  10
ATOM      8  CA  UNL     1       2.642   4.064  20.390  0.00  0.00    +0.000 A 
ATOM      9  C   UNL     1       1.963   5.248  20.221  0.00  0.00    +0.000 A 
ATOM     10  C   UNL     1       2.594   6.187  19.436  0.00  0.00    +0.000 A 
ATOM     11  N   UNL     1       3.774   5.923  18.826  0.00  0.00    +0.000 NA
ATOM     12  C   UNL     1       4.337   4.728  19.050  0.00  0.00    +0.000 A 
ATOM     13  N   UNL     1       3.838   3.761  19.826  0.00  0.00    +0.000 NA
BRANCH   8  15
ATOM     14  O   UNL     1       2.719   2.399  22.114  0.00  0.00    +0.000 OA
ATOM     15  C   UNL     1       2.074   3.030  21.300  0.00  0.00    +0.000 C 
BRANCH  15  16
ATOM     16  OXT UNL     1       0.745   2.869  21.078  0.00  0.00    +0.000 OA
ATOM     17  HXT UNL     1       0.278   2.805  21.944  0.00  0.00    +0.000 HD
ENDBRANCH  15  16
ENDBRANCH   8  15
ENDBRANCH   1  10
BRANCH   6  18
ATOM     18  O   UNL     1       0.719  10.415  21.241  0.00  0.00    +0.000 OA
BRANCH  18  19
ATOM     19  C   UNL     1      -0.590  10.216  21.793  0.00  0.00    +0.000 C 
ATOM     20  C   UNL     1      -0.520   9.871  23.264  0.00  0.00    +0.000 C 
ATOM     21  C   UNL     1      -1.101  11.182  22.829  0.00  0.00    +0.000 C 
ENDBRANCH  18  19
ENDBRANCH   6  18
TORSDOF 5
ENDMDL
MODEL 4
REMARK VINA RESULT:      -7.0      4.495      7.628
REMARK  Name = 
REMARK  5 active torsions:
REMARK  status: ('A' for Active; 'I' for Inactive)
REMARK    1  A    between atoms: C_2  and  OXT_3
REMARK    2  A    between atoms: C_2  and  CA_4
REMARK    3  A    between atoms: C_6  and  C_7
REMARK    4  A    between atoms: C_12  and  O_13
REMARK    5  A    between atoms: O_13  and  C_14
REMARK                            x       y       z     vdW  Elec       q    Type
REMARK                         _______ _______ _______ _____ _____    ______ ____
ROOT
ATOM      1  C   UNL     1       1.874   8.243  19.408  0.00  0.00    +0.000 A 
ATOM      2  C   UNL     1       2.452   8.380  18.134  0.00  0.00    +0.000 A 
ATOM      3  C   UNL     1       3.205   7.349  17.569  0.00  0.00    +0.000 A 
ATOM      4  C   UNL     1       3.383   6.158  18.268  0.00  0.00    +0.000 A 
ATOM      5 CL   UNL     1       4.282   4.893  17.506  0.00  0.00    +0.000 Cl
ATOM      6  C   UNL     1       2.834   5.993  19.548  0.00  0.00    +0.000 A 
ATOM      7  C   UNL     1       2.092   7.037  20.112  0.00  0.00    +0.000 A 
ENDROOT
BRANCH   1  10
ATOM      8  CA  UNL     1      -0.290  10.317  21.605  0.00  0.00    +0.000 A 
ATOM      9  C   UNL     1       0.633   9.350  21.280  0.00  0.00    +0.000 A 
ATOM     10  C   UNL     1       1.004   9.304  19.955  0.00  0.00    +0.000 A 
ATOM     11  N   UNL     1       0.530  10.198  19.055  0.00  0.00    +0.000 NA
ATOM     12  C   UNL     1      -0.353  11.108  19.488  0.00  0.00    +0.000 A 
ATOM     13  N   UNL     1      -0.816  11.218  20.737  0.00  0.00    +0.000 NA
BRANCH   8  15
ATOM     14  O   UNL     1      -1.731  11.086  23.359  0.00  0.00    +0.000 OA
ATOM     15  C   UNL     1      -0.814  10.376  22.997  0.00  0.00    +0.000 C 
BRANCH  15  16
ATOM     16  OXT UNL     1      -0.113   9.549  23.813  0.00  0.00    +0.000 OA
ATOM     17  HXT UNL     1       0.519  10.082  24.350  0.00  0.00    +0.000 HD
ENDBRANCH  15  16
ENDBRANCH   8  15
ENDBRANCH   1  10
BRANCH   6  18
ATOM     18  O   UNL     1       3.019   4.769  20.138  0.00  0.00    +0.000 OA
BRANCH  18  19
ATOM     19  C   UNL     1       2.085   4.296  21.119  0.00  0.00    +0.000 C 
ATOM     20  C   UNL     1       1.171   3.238  20.542  0.00  0.00    +0.000 C 
ATOM     21  C   UNL     1       2.179   2.869  21.588  0.00  0.00    +0.000 C 
ENDBRANCH  18  19
ENDBRANCH   6  18
TORSDOF 5
ENDMDL
MODEL 5
REMARK VINA RESULT:      -7.0      2.741      3.318
REMARK  Name = 
REMARK  5 active torsions:
REMARK  status: ('A' for Active; 'I' for Inactive)
REMARK    1  A    between atoms: C_2  and  OXT_3
REMARK    2  A    between atoms: C_2  and  CA_4
REMARK    3  A    between atoms: C_6  and  C_7
REMARK    4  A    between atoms: C_12  and  O_13
REMARK    5  A    between atoms: O_13  and  C_14
REMARK                            x       y       z     vdW  Elec       q    Type
REMARK                         _______ _______ _______ _____ _____    ______ ____
ROOT
ATOM      1  C   UNL     1       4.292   4.283  17.602  0.00  0.00    +0.000 A 
ATOM      2  C   UNL     1       3.656   3.341  16.774  0.00  0.00    +0.000 A 
ATOM      3  C   UNL     1       2.442   2.760  17.141  0.00  0.00    +0.000 A 
ATOM      4  C   UNL     1       1.836   3.122  18.342  0.00  0.00    +0.000 A 
ATOM      5 CL   UNL     1       0.308   2.413  18.729  0.00  0.00    +0.000 Cl
ATOM      6  C   UNL     1       2.448   4.047  19.199  0.00  0.00    +0.000 A 
ATOM      7  C   UNL     1       3.673   4.614  18.830  0.00  0.00    +0.000 A 
ENDROOT
BRANCH   1  10
ATOM      8  CA  UNL     1       7.185   6.590  17.270  0.00  0.00    +0.000 A 
ATOM      9  C   UNL     1       6.119   5.971  17.880  0.00  0.00    +0.000 A 
ATOM     10  C   UNL     1       5.528   4.958  17.160  0.00  0.00    +0.000 A 
ATOM     11  N   UNL     1       6.015   4.565  15.959  0.00  0.00    +0.000 NA
ATOM     12  C   UNL     1       7.070   5.230  15.468  0.00  0.00    +0.000 A 
ATOM     13  N   UNL     1       7.693   6.255  16.057  0.00  0.00    +0.000 NA
BRANCH   8  15
ATOM     14  O   UNL     1       7.712   8.910  17.568  0.00  0.00    +0.000 OA
ATOM     15  C   UNL     1       7.822   7.758  17.939  0.00  0.00    +0.000 C 
BRANCH  15  16
ATOM     16  OXT UNL     1       8.564   7.359  19.004  0.00  0.00    +0.000 OA
ATOM     17  HXT UNL     1       7.987   6.872  19.637  0.00  0.00    +0.000 HD
ENDBRANCH  15  16
ENDBRANCH   8  15
ENDBRANCH   1  10
BRANCH   6  18
ATOM     18  O   UNL     1       1.754   4.379  20.334  0.00  0.00    +0.000 OA
BRANCH  18  19
ATOM     19  C   UNL     1       2.159   3.849  21.605  0.00  0.00    +0.000 C 
ATOM     20  C   UNL     1       1.306   2.664  22.002  0.00  0.00    +0.000 C 
ATOM     21  C   UNL     1       2.753   2.466  21.663  0.00  0.00    +0.000 C 
ENDBRANCH  18  19
ENDBRANCH   6  18
TORSDOF 5
ENDMDL
MODEL 6
REMARK VINA RESULT:      -7.0      1.639      2.931
REMARK  Name = 
REMARK  5 active torsions:
REMARK  status: ('A' for Active; 'I' for Inactive)
REMARK    1  A    between atoms: C_2  and  OXT_3
REMARK    2  A    between atoms: C_2  and  CA_4
REMARK    3  A    between atoms: C_6  and  C_7
REMARK    4  A    between atoms: C_12  and  O_13
REMARK    5  A    between atoms: O_13  and  C_14
REMARK                            x       y       z     vdW  Elec       q    Type
REMARK                         _______ _______ _______ _____ _____    ______ ____
ROOT
ATOM      1  C   UNL     1       4.473   4.811  18.747  0.00  0.00    +0.000 A 
ATOM      2  C   UNL     1       4.347   3.433  18.995  0.00  0.00    +0.000 A 
ATOM      3  C   UNL     1       3.355   2.940  19.843  0.00  0.00    +0.000 A 
ATOM      4  C   UNL     1       2.462   3.820  20.450  0.00  0.00    +0.000 A 
ATOM      5 CL   UNL     1       1.220   3.158  21.453  0.00  0.00    +0.000 Cl
ATOM      6  C   UNL     1       2.569   5.202  20.238  0.00  0.00    +0.000 A 
ATOM      7  C   UNL     1       3.576   5.688  19.397  0.00  0.00    +0.000 A 
ENDROOT
BRANCH   1  10
ATOM      8  CA  UNL     1       6.632   5.285  15.760  0.00  0.00    +0.000 A 
ATOM      9  C   UNL     1       5.568   4.816  16.496  0.00  0.00    +0.000 A 
ATOM     10  C   UNL     1       5.468   5.310  17.777  0.00  0.00    +0.000 A 
ATOM     11  N   UNL     1       6.330   6.243  18.246  0.00  0.00    +0.000 NA
ATOM     12  C   UNL     1       7.320   6.640  17.434  0.00  0.00    +0.000 A 
ATOM     13  N   UNL     1       7.539   6.196  16.192  0.00  0.00    +0.000 NA
BRANCH   8  15
ATOM     14  O   UNL     1       7.458   5.314  13.510  0.00  0.00    +0.000 OA
ATOM     15  C   UNL     1       6.867   4.732  14.398  0.00  0.00    +0.000 C 
BRANCH  15  16
ATOM     16  OXT UNL     1       6.309   3.501  14.273  0.00  0.00    +0.000 OA
ATOM     17  HXT UNL     1       6.060   3.165  15.165  0.00  0.00    +0.000 HD
ENDBRANCH  15  16
ENDBRANCH   8  15
ENDBRANCH   1  10
BRANCH   6  18
ATOM     18  O   UNL     1       1.616   5.986  20.837  0.00  0.00    +0.000 OA
BRANCH  18  19
ATOM     19  C   UNL     1       1.528   7.382  20.514  0.00  0.00    +0.000 C 
ATOM     20  C   UNL     1       0.298   8.011  21.128  0.00  0.00    +0.000 C 
ATOM     21  C   UNL     1       1.660   8.396  21.619  0.00  0.00    +0.000 C 
ENDBRANCH  18  19
ENDBRANCH   6  18
TORSDOF 5
ENDMDL
MODEL 7
REMARK VINA RESULT:      -6.9      3.319      6.871
REMARK  Name = 
REMARK  5 active torsions:
REMARK  status: ('A' for Active; 'I' for Inactive)
REMARK    1  A    between atoms: C_2  and  OXT_3
REMARK    2  A    between atoms: C_2  and  CA_4
REMARK    3  A    between atoms: C_6  and  C_7
REMARK    4  A    between atoms: C_12  and  O_13
REMARK    5  A    between atoms: O_13  and  C_14
REMARK                            x       y       z     vdW  Elec       q    Type
REMARK                         _______ _______ _______ _____ _____    ______ ____
ROOT
ATOM      1  C   UNL     1       4.848   4.062  16.817  0.00  0.00    +0.000 A 
ATOM      2  C   UNL     1       5.018   3.416  15.580  0.00  0.00    +0.000 A 
ATOM      3  C   UNL     1       5.960   3.866  14.655  0.00  0.00    +0.000 A 
ATOM      4  C   UNL     1       6.758   4.966  14.957  0.00  0.00    +0.000 A 
ATOM      5 CL   UNL     1       7.945   5.454  13.799  0.00  0.00    +0.000 Cl
ATOM      6  C   UNL     1       6.605   5.644  16.175  0.00  0.00    +0.000 A 
ATOM      7  C   UNL     1       5.648   5.195  17.091  0.00  0.00    +0.000 A 
ENDROOT
BRANCH   1  10
ATOM      8  CA  UNL     1       2.664   3.601  19.787  0.00  0.00    +0.000 A 
ATOM      9  C   UNL     1       3.412   4.283  18.856  0.00  0.00    +0.000 A 
ATOM     10  C   UNL     1       3.913   3.521  17.823  0.00  0.00    +0.000 A 
ATOM     11  N   UNL     1       3.626   2.203  17.712  0.00  0.00    +0.000 NA
ATOM     12  C   UNL     1       2.873   1.646  18.671  0.00  0.00    +0.000 A 
ATOM     13  N   UNL     1       2.372   2.277  19.738  0.00  0.00    +0.000 NA
BRANCH   8  15
ATOM     14  O   UNL     1       1.764   5.478  20.976  0.00  0.00    +0.000 OA
ATOM     15  C   UNL     1       2.163   4.330  20.985  0.00  0.00    +0.000 C 
BRANCH  15  16
ATOM     16  OXT UNL     1       2.237   3.549  22.093  0.00  0.00    +0.000 OA
ATOM     17  HXT UNL     1       1.908   4.058  22.870  0.00  0.00    +0.000 HD
ENDBRANCH  15  16
ENDBRANCH   8  15
ENDBRANCH   1  10
BRANCH   6  18
ATOM     18  O   UNL     1       7.468   6.685  16.407  0.00  0.00    +0.000 OA
BRANCH  18  19
ATOM     19  C   UNL     1       7.204   7.614  17.467  0.00  0.00    +0.000 C 
ATOM     20  C   UNL     1       8.247   7.516  18.557  0.00  0.00    +0.000 C 
ATOM     21  C   UNL     1       8.169   8.745  17.704  0.00  0.00    +0.000 C 
ENDBRANCH  18  19
ENDBRANCH   6  18
TORSDOF 5
ENDMDL
MODEL 8
REMARK VINA RESULT:      -6.9      4.204      7.089
REMARK  Name = 
REMARK  5 active torsions:
REMARK  status: ('A' for Active; 'I' for Inactive)
REMARK    1  A    between atoms: C_2  and  OXT_3
REMARK    2  A    between atoms: C_2  and  CA_4
REMARK    3  A    between atoms: C_6  and  C_7
REMARK    4  A    between atoms: C_12  and  O_13
REMARK    5  A    between atoms: O_13  and  C_14
REMARK                            x       y       z     vdW  Elec       q    Type
REMARK                         _______ _______ _______ _____ _____    ______ ____
ROOT
ATOM      1  C   UNL     1       2.394   7.265  19.318  0.00  0.00    +0.000 A 
ATOM      2  C   UNL     1       3.019   7.285  18.059  0.00  0.00    +0.000 A 
ATOM      3  C   UNL     1       3.720   6.176  17.584  0.00  0.00    +0.000 A 
ATOM      4  C   UNL     1       3.797   5.021  18.359  0.00  0.00    +0.000 A 
ATOM      5 CL   UNL     1       4.634   3.657  17.705  0.00  0.00    +0.000 Cl
ATOM      6  C   UNL     1       3.199   4.972  19.625  0.00  0.00    +0.000 A 
ATOM      7  C   UNL     1       2.511   6.093  20.100  0.00  0.00    +0.000 A 
ENDROOT
BRANCH   1  10
ATOM      8  CA  UNL     1       0.270   9.586  21.294  0.00  0.00    +0.000 A 
ATOM      9  C   UNL     1       1.131   8.538  21.064  0.00  0.00    +0.000 A 
ATOM     10  C   UNL     1       1.579   8.411  19.769  0.00  0.00    +0.000 A 
ATOM     11  N   UNL     1       1.237   9.304  18.810  0.00  0.00    +0.000 NA
ATOM     12  C   UNL     1       0.404  10.296  19.152  0.00  0.00    +0.000 A 
ATOM     13  N   UNL     1      -0.127  10.490  20.364  0.00  0.00    +0.000 NA
BRANCH   8  15
ATOM     14  O   UNL     1      -0.280  10.754  23.314  0.00  0.00    +0.000 OA
ATOM     15  C   UNL     1      -0.335   9.741  22.646  0.00  0.00    +0.000 C 
BRANCH  15  16
ATOM     16  OXT UNL     1      -0.933   8.589  23.043  0.00  0.00    +0.000 OA
ATOM     17  HXT UNL     1      -0.767   8.451  24.004  0.00  0.00    +0.000 HD
ENDBRANCH  15  16
ENDBRANCH   8  15
ENDBRANCH   1  10
BRANCH   6  18
ATOM     18  O   UNL     1       3.285   3.777  20.294  0.00  0.00    +0.000 OA
BRANCH  18  19
ATOM     19  C   UNL     1       2.262   2.785  20.126  0.00  0.00    +0.000 C 
ATOM     20  C   UNL     1       1.421   2.646  21.376  0.00  0.00    +0.000 C 
ATOM     21  C   UNL     1       0.819   3.217  20.128  0.00  0.00    +0.000 C 
ENDBRANCH  18  19
ENDBRANCH   6  18
TORSDOF 5
ENDMDL
MODEL 9
REMARK VINA RESULT:      -6.9      3.752      5.186
REMARK  Name = 
REMARK  5 active torsions:
REMARK  status: ('A' for Active; 'I' for Inactive)
REMARK    1  A    between atoms: C_2  and  OXT_3
REMARK    2  A    between atoms: C_2  and  CA_4
REMARK    3  A    between atoms: C_6  and  C_7
REMARK    4  A    between atoms: C_12  and  O_13
REMARK    5  A    between atoms: O_13  and  C_14
REMARK                            x       y       z     vdW  Elec       q    Type
REMARK                         _______ _______ _______ _____ _____    ______ ____
ROOT
ATOM      1  C   UNL     1       2.286   7.265  18.892  0.00  0.00    +0.000 A 
ATOM      2  C   UNL     1       2.197   8.061  17.736  0.00  0.00    +0.000 A 
ATOM      3  C   UNL     1       1.725   9.373  17.798  0.00  0.00    +0.000 A 
ATOM      4  C   UNL     1       1.342   9.915  19.022  0.00  0.00    +0.000 A 
ATOM      5 CL   UNL     1       0.810  11.559  19.054  0.00  0.00    +0.000 Cl
ATOM      6  C   UNL     1       1.402   9.145  20.192  0.00  0.00    +0.000 A 
ATOM      7  C   UNL     1       1.864   7.826  20.119  0.00  0.00    +0.000 A 
ENDROOT
BRANCH   1  10
ATOM      8  CA  UNL     1       2.788   3.592  18.650  0.00  0.00    +0.000 A 
ATOM      9  C   UNL     1       2.126   4.793  18.536  0.00  0.00    +0.000 A 
ATOM     10  C   UNL     1       2.873   5.912  18.827  0.00  0.00    +0.000 A 
ATOM     11  N   UNL     1       4.187   5.825  19.142  0.00  0.00    +0.000 NA
ATOM     12  C   UNL     1       4.732   4.603  19.207  0.00  0.00    +0.000 A 
ATOM     13  N   UNL     1       4.094   3.449  18.989  0.00  0.00    +0.000 NA
BRANCH   8  15
ATOM     14  O   UNL     1       0.821   2.257  18.350  0.00  0.00    +0.000 OA
ATOM     15  C   UNL     1       2.030   2.327  18.444  0.00  0.00    +0.000 C 
BRANCH  15  16
ATOM     16  OXT UNL     1       2.869   1.262  18.401  0.00  0.00    +0.000 OA
ATOM     17  HXT UNL     1       2.611   0.675  17.652  0.00  0.00    +0.000 HD
ENDBRANCH  15  16
ENDBRANCH   8  15
ENDBRANCH   1  10
BRANCH   6  18
ATOM     18  O   UNL     1       1.053   9.778  21.358  0.00  0.00    +0.000 OA
BRANCH  18  19
ATOM     19  C   UNL     1      -0.245   9.562  21.930  0.00  0.00    +0.000 C 
ATOM     20  C   UNL     1      -0.173   9.475  23.439  0.00  0.00    +0.000 C 
ATOM     21  C   UNL     1      -0.853  10.640  22.787  0.00  0.00    +0.000 C 
ENDBRANCH  18  19
ENDBRANCH   6  18
TORSDOF 5
ENDMDL
