MODEL 1
REMARK VINA RESULT:      -8.1      0.000      0.000
REMARK  Name = 
REMARK  6 active torsions:
REMARK  status: ('A' for Active; 'I' for Inactive)
REMARK    1  A    between atoms: C_1  and  C_2
REMARK    2  A    between atoms: C_10  and  C_11
REMARK    3  A    between atoms: N_13  and  C_14
REMARK    4  A    between atoms: C_16  and  C_17
REMARK    5  A    between atoms: C_17  and  O_18
REMARK    6  A    between atoms: N_19  and  C_20
REMARK                            x       y       z     vdW  Elec       q    Type
REMARK                         _______ _______ _______ _____ _____    ______ ____
ROOT
ATOM      1  C   UNL     1       7.852   7.636  17.709  0.00  0.00    +0.000 C 
ATOM      2  C   UNL     1       6.776   6.596  17.593  0.00  0.00    +0.000 A 
ATOM      3  C   UNL     1       7.090   5.245  17.448  0.00  0.00    +0.000 A 
ATOM      4  C   UNL     1       6.073   4.295  17.402  0.00  0.00    +0.000 A 
ATOM      5  C   UNL     1       4.741   4.693  17.557  0.00  0.00    +0.000 A 
ATOM      6  N   UNL     1       3.744   3.712  17.519  0.00  0.00    +0.000 N 
ATOM      7  C   UNL     1       2.415   3.978  17.657  0.00  0.00    +0.000 A 
ATOM      8  O   UNL     1       1.564   3.099  17.606  0.00  0.00    +0.000 OA
ATOM      9  C   UNL     1       2.044   5.388  17.903  0.00  0.00    +0.000 A 
ATOM     10  C   UNL     1       2.956   6.376  17.954  0.00  0.00    +0.000 A 
ATOM     11  C   UNL     1       4.389   6.043  17.733  0.00  0.00    +0.000 A 
ATOM     12  C   UNL     1       5.428   6.985  17.681  0.00  0.00    +0.000 A 
ATOM     13  H   UNL     1       3.985   2.742  17.361  0.00  0.00    +0.000 HD
ENDROOT
BRANCH  10  14
ATOM     14  C   UNL     1       2.372   7.732  18.269  0.00  0.00    +0.000 C 
ATOM     15  O   UNL     1       2.255   8.596  17.405  0.00  0.00    +0.000 OA
ATOM     16  N   UNL     1       1.950   7.899  19.560  0.00  0.00    +0.000 N 
ATOM     17  H   UNL     1       1.817   7.055  20.099  0.00  0.00    +0.000 HD
BRANCH  16  18
ATOM     18  C   UNL     1       1.339   9.078  20.148  0.00  0.00    +0.000 C 
ATOM     19  C   UNL     1       0.702   8.789  21.502  0.00  0.00    +0.000 C 
ATOM     20  C   UNL     1      -0.503   9.739  21.590  0.00  0.00    +0.000 C 
ATOM     21  N   UNL     1      -0.259  10.711  20.496  0.00  0.00    +0.000 NA
ATOM     22  C   UNL     1      -1.466  11.428  20.098  0.00  0.00    +0.000 C 
ATOM     23  C   UNL     1       0.273   9.878  19.395  0.00  0.00    +0.000 C 
BRANCH  20  24
ATOM     24  C   UNL     1      -0.592  10.413  22.966  0.00  0.00    +0.000 C 
BRANCH  24  25
ATOM     25  O   UNL     1      -0.068   9.551  23.977  0.00  0.00    +0.000 OA
ATOM     26  H   UNL     1       0.721  10.020  24.318  0.00  0.00    +0.000 HD
ENDBRANCH  24  25
ENDBRANCH  20  24
ENDBRANCH  16  18
ENDBRANCH  10  14
TORSDOF 4
ENDMDL
MODEL 2
REMARK VINA RESULT:      -8.0      1.745      3.262
REMARK  Name = 
REMARK  6 active torsions:
REMARK  status: ('A' for Active; 'I' for Inactive)
REMARK    1  A    between atoms: C_1  and  C_2
REMARK    2  A    between atoms: C_10  and  C_11
REMARK    3  A    between atoms: N_13  and  C_14
REMARK    4  A    between atoms: C_16  and  C_17
REMARK    5  A    between atoms: C_17  and  O_18
REMARK    6  A    between atoms: N_19  and  C_20
REMARK                            x       y       z     vdW  Elec       q    Type
REMARK                         _______ _______ _______ _____ _____    ______ ____
ROOT
ATOM      1  C   UNL     1       0.562   2.894  19.477  0.00  0.00    +0.000 C 
ATOM      2  C   UNL     1       1.804   3.269  18.722  0.00  0.00    +0.000 A 
ATOM      3  C   UNL     1       2.573   2.303  18.071  0.00  0.00    +0.000 A 
ATOM      4  C   UNL     1       3.687   2.686  17.329  0.00  0.00    +0.000 A 
ATOM      5  C   UNL     1       4.000   4.042  17.190  0.00  0.00    +0.000 A 
ATOM      6  N   UNL     1       5.118   4.393  16.426  0.00  0.00    +0.000 N 
ATOM      7  C   UNL     1       5.521   5.679  16.221  0.00  0.00    +0.000 A 
ATOM      8  O   UNL     1       6.513   5.954  15.558  0.00  0.00    +0.000 OA
ATOM      9  C   UNL     1       4.682   6.739  16.818  0.00  0.00    +0.000 A 
ATOM     10  C   UNL     1       3.593   6.466  17.560  0.00  0.00    +0.000 A 
ATOM     11  C   UNL     1       3.231   5.044  17.808  0.00  0.00    +0.000 A 
ATOM     12  C   UNL     1       2.172   4.622  18.626  0.00  0.00    +0.000 A 
ATOM     13  H   UNL     1       5.695   3.678  16.004  0.00  0.00    +0.000 HD
ENDROOT
BRANCH  10  14
ATOM     14  C   UNL     1       2.849   7.693  18.030  0.00  0.00    +0.000 C 
ATOM     15  O   UNL     1       2.567   8.606  17.260  0.00  0.00    +0.000 OA
ATOM     16  N   UNL     1       2.482   7.681  19.348  0.00  0.00    +0.000 N 
ATOM     17  H   UNL     1       2.495   6.782  19.808  0.00  0.00    +0.000 HD
BRANCH  16  18
ATOM     18  C   UNL     1       1.750   8.705  20.074  0.00  0.00    +0.000 C 
ATOM     19  C   UNL     1       0.974   8.137  21.257  0.00  0.00    +0.000 C 
ATOM     20  C   UNL     1      -0.277   9.021  21.379  0.00  0.00    +0.000 C 
ATOM     21  N   UNL     1       0.046  10.197  20.533  0.00  0.00    +0.000 NA
ATOM     22  C   UNL     1      -1.140  10.949  20.136  0.00  0.00    +0.000 C 
ATOM     23  C   UNL     1       0.742   9.613  19.365  0.00  0.00    +0.000 C 
BRANCH  20  24
ATOM     24  C   UNL     1      -0.558   9.406  22.838  0.00  0.00    +0.000 C 
BRANCH  24  25
ATOM     25  O   UNL     1       0.658   9.741  23.507  0.00  0.00    +0.000 OA
ATOM     26  H   UNL     1       1.130   8.890  23.605  0.00  0.00    +0.000 HD
ENDBRANCH  24  25
ENDBRANCH  20  24
ENDBRANCH  16  18
ENDBRANCH  10  14
TORSDOF 4
ENDMDL
MODEL 3
REMARK VINA RESULT:      -7.8      1.686      2.560
REMARK  Name = 
REMARK  6 active torsions:
REMARK  status: ('A' for Active; 'I' for Inactive)
REMARK    1  A    between atoms: C_1  and  C_2
REMARK    2  A    between atoms: C_10  and  C_11
REMARK    3  A    between atoms: N_13  and  C_14
REMARK    4  A    between atoms: C_16  and  C_17
REMARK    5  A    between atoms: C_17  and  O_18
REMARK    6  A    between atoms: N_19  and  C_20
REMARK                            x       y       z     vdW  Elec       q    Type
REMARK                         _______ _______ _______ _____ _____    ______ ____
ROOT
ATOM      1  C   UNL     1       7.745   7.879  17.519  0.00  0.00    +0.000 C 
ATOM      2  C   UNL     1       6.756   6.765  17.332  0.00  0.00    +0.000 A 
ATOM      3  C   UNL     1       7.163   5.501  16.907  0.00  0.00    +0.000 A 
ATOM      4  C   UNL     1       6.233   4.470  16.799  0.00  0.00    +0.000 A 
ATOM      5  C   UNL     1       4.903   4.690  17.171  0.00  0.00    +0.000 A 
ATOM      6  N   UNL     1       3.997   3.630  17.063  0.00  0.00    +0.000 N 
ATOM      7  C   UNL     1       2.678   3.724  17.394  0.00  0.00    +0.000 A 
ATOM      8  O   UNL     1       1.906   2.781  17.276  0.00  0.00    +0.000 OA
ATOM      9  C   UNL     1       2.223   5.022  17.936  0.00  0.00    +0.000 A 
ATOM     10  C   UNL     1       3.046   6.079  18.067  0.00  0.00    +0.000 A 
ATOM     11  C   UNL     1       4.463   5.944  17.631  0.00  0.00    +0.000 A 
ATOM     12  C   UNL     1       5.402   6.986  17.639  0.00  0.00    +0.000 A 
ATOM     13  H   UNL     1       4.298   2.733  16.704  0.00  0.00    +0.000 HD
ENDROOT
BRANCH  10  14
ATOM     14  C   UNL     1       2.394   7.290  18.688  0.00  0.00    +0.000 C 
ATOM     15  O   UNL     1       2.387   7.462  19.903  0.00  0.00    +0.000 OA
ATOM     16  N   UNL     1       1.862   8.184  17.800  0.00  0.00    +0.000 N 
ATOM     17  H   UNL     1       2.173   8.104  16.843  0.00  0.00    +0.000 HD
BRANCH  16  18
ATOM     18  C   UNL     1       1.190   9.438  18.098  0.00  0.00    +0.000 C 
ATOM     19  C   UNL     1       2.113  10.642  17.952  0.00  0.00    +0.000 C 
ATOM     20  C   UNL     1       1.623  11.653  19.000  0.00  0.00    +0.000 C 
ATOM     21  N   UNL     1       0.292  11.128  19.393  0.00  0.00    +0.000 NA
ATOM     22  C   UNL     1      -0.167  11.655  20.674  0.00  0.00    +0.000 C 
ATOM     23  C   UNL     1       0.489   9.663  19.440  0.00  0.00    +0.000 C 
BRANCH  20  24
ATOM     24  C   UNL     1       1.548  13.074  18.423  0.00  0.00    +0.000 C 
BRANCH  24  25
ATOM     25  O   UNL     1       2.468  13.220  17.340  0.00  0.00    +0.000 OA
ATOM     26  H   UNL     1       2.003  12.842  16.567  0.00  0.00    +0.000 HD
ENDBRANCH  24  25
ENDBRANCH  20  24
ENDBRANCH  16  18
ENDBRANCH  10  14
TORSDOF 4
ENDMDL
MODEL 4
REMARK VINA RESULT:      -7.7      2.569      4.012
REMARK  Name = 
REMARK  6 active torsions:
REMARK  status: ('A' for Active; 'I' for Inactive)
REMARK    1  A    between atoms: C_1  and  C_2
REMARK    2  A    between atoms: C_10  and  C_11
REMARK    3  A    between atoms: N_13  and  C_14
REMARK    4  A    between atoms: C_16  and  C_17
REMARK    5  A    between atoms: C_17  and  O_18
REMARK    6  A    between atoms: N_19  and  C_20
REMARK                            x       y       z     vdW  Elec       q    Type
REMARK                         _______ _______ _______ _____ _____    ______ ____
ROOT
ATOM      1  C   UNL     1       1.558   2.755  21.549  0.00  0.00    +0.000 C 
ATOM      2  C   UNL     1       2.383   3.364  20.453  0.00  0.00    +0.000 A 
ATOM      3  C   UNL     1       3.156   2.571  19.605  0.00  0.00    +0.000 A 
ATOM      4  C   UNL     1       3.864   3.157  18.559  0.00  0.00    +0.000 A 
ATOM      5  C   UNL     1       3.755   4.532  18.327  0.00  0.00    +0.000 A 
ATOM      6  N   UNL     1       4.469   5.086  17.260  0.00  0.00    +0.000 N 
ATOM      7  C   UNL     1       4.442   6.410  16.938  0.00  0.00    +0.000 A 
ATOM      8  O   UNL     1       5.089   6.869  16.004  0.00  0.00    +0.000 OA
ATOM      9  C   UNL     1       3.564   7.273  17.756  0.00  0.00    +0.000 A 
ATOM     10  C   UNL     1       2.849   6.799  18.793  0.00  0.00    +0.000 A 
ATOM     11  C   UNL     1       2.963   5.357  19.145  0.00  0.00    +0.000 A 
ATOM     12  C   UNL     1       2.337   4.754  20.245  0.00  0.00    +0.000 A 
ATOM     13  H   UNL     1       5.066   4.506  16.686  0.00  0.00    +0.000 HD
ENDROOT
BRANCH  10  14
ATOM     14  C   UNL     1       1.978   7.835  19.460  0.00  0.00    +0.000 C 
ATOM     15  O   UNL     1       1.572   7.688  20.609  0.00  0.00    +0.000 OA
ATOM     16  N   UNL     1       1.722   8.951  18.711  0.00  0.00    +0.000 N 
ATOM     17  H   UNL     1       2.329   9.107  17.919  0.00  0.00    +0.000 HD
BRANCH  16  18
ATOM     18  C   UNL     1       0.935  10.113  19.088  0.00  0.00    +0.000 C 
ATOM     19  C   UNL     1      -0.466  10.086  18.490  0.00  0.00    +0.000 C 
ATOM     20  C   UNL     1      -0.830  11.560  18.253  0.00  0.00    +0.000 C 
ATOM     21  N   UNL     1       0.190  12.299  19.036  0.00  0.00    +0.000 NA
ATOM     22  C   UNL     1       0.326  13.690  18.616  0.00  0.00    +0.000 C 
ATOM     23  C   UNL     1       1.435  11.533  18.810  0.00  0.00    +0.000 C 
BRANCH  20  24
ATOM     24  C   UNL     1      -2.262  11.870  18.711  0.00  0.00    +0.000 C 
BRANCH  24  25
ATOM     25  O   UNL     1      -3.125  12.012  17.582  0.00  0.00    +0.000 OA
ATOM     26  H   UNL     1      -2.706  12.708  17.036  0.00  0.00    +0.000 HD
ENDBRANCH  24  25
ENDBRANCH  20  24
ENDBRANCH  16  18
ENDBRANCH  10  14
TORSDOF 4
ENDMDL
MODEL 5
REMARK VINA RESULT:      -7.5      2.321      4.149
REMARK  Name = 
REMARK  6 active torsions:
REMARK  status: ('A' for Active; 'I' for Inactive)
REMARK    1  A    between atoms: C_1  and  C_2
REMARK    2  A    between atoms: C_10  and  C_11
REMARK    3  A    between atoms: N_13  and  C_14
REMARK    4  A    between atoms: C_16  and  C_17
REMARK    5  A    between atoms: C_17  and  O_18
REMARK    6  A    between atoms: N_19  and  C_20
REMARK                            x       y       z     vdW  Elec       q    Type
REMARK                         _______ _______ _______ _____ _____    ______ ____
ROOT
ATOM      1  C   UNL     1       0.562   2.497  19.017  0.00  0.00    +0.000 C 
ATOM      2  C   UNL     1       1.822   3.079  18.446  0.00  0.00    +0.000 A 
ATOM      3  C   UNL     1       2.730   2.288  17.741  0.00  0.00    +0.000 A 
ATOM      4  C   UNL     1       3.861   2.866  17.172  0.00  0.00    +0.000 A 
ATOM      5  C   UNL     1       4.057   4.248  17.259  0.00  0.00    +0.000 A 
ATOM      6  N   UNL     1       5.197   4.798  16.665  0.00  0.00    +0.000 N 
ATOM      7  C   UNL     1       5.494   6.128  16.685  0.00  0.00    +0.000 A 
ATOM      8  O   UNL     1       6.508   6.579  16.166  0.00  0.00    +0.000 OA
ATOM      9  C   UNL     1       4.513   7.016  17.344  0.00  0.00    +0.000 A 
ATOM     10  C   UNL     1       3.396   6.548  17.931  0.00  0.00    +0.000 A 
ATOM     11  C   UNL     1       3.149   5.080  17.938  0.00  0.00    +0.000 A 
ATOM     12  C   UNL     1       2.069   4.457  18.580  0.00  0.00    +0.000 A 
ATOM     13  H   UNL     1       5.871   4.204  16.201  0.00  0.00    +0.000 HD
ENDROOT
BRANCH  10  14
ATOM     14  C   UNL     1       2.504   7.626  18.498  0.00  0.00    +0.000 C 
ATOM     15  O   UNL     1       2.094   7.578  19.654  0.00  0.00    +0.000 OA
ATOM     16  N   UNL     1       2.234   8.664  17.648  0.00  0.00    +0.000 N 
ATOM     17  H   UNL     1       2.843   8.757  16.848  0.00  0.00    +0.000 HD
BRANCH  16  18
ATOM     18  C   UNL     1       1.426   9.842  17.914  0.00  0.00    +0.000 C 
ATOM     19  C   UNL     1       2.260  11.116  17.979  0.00  0.00    +0.000 C 
ATOM     20  C   UNL     1       1.541  12.014  18.999  0.00  0.00    +0.000 C 
ATOM     21  N   UNL     1       0.215  11.368  19.156  0.00  0.00    +0.000 NA
ATOM     22  C   UNL     1      -0.466  11.770  20.383  0.00  0.00    +0.000 C 
ATOM     23  C   UNL     1       0.522   9.921  19.147  0.00  0.00    +0.000 C 
BRANCH  20  24
ATOM     24  C   UNL     1       1.435  13.463  18.502  0.00  0.00    +0.000 C 
BRANCH  24  25
ATOM     25  O   UNL     1       2.605  13.823  17.766  0.00  0.00    +0.000 OA
ATOM     26  H   UNL     1       2.869  14.692  18.129  0.00  0.00    +0.000 HD
ENDBRANCH  24  25
ENDBRANCH  20  24
ENDBRANCH  16  18
ENDBRANCH  10  14
TORSDOF 4
ENDMDL
MODEL 6
REMARK VINA RESULT:      -7.5      1.933      3.562
REMARK  Name = 
REMARK  6 active torsions:
REMARK  status: ('A' for Active; 'I' for Inactive)
REMARK    1  A    between atoms: C_1  and  C_2
REMARK    2  A    between atoms: C_10  and  C_11
REMARK    3  A    between atoms: N_13  and  C_14
REMARK    4  A    between atoms: C_16  and  C_17
REMARK    5  A    between atoms: C_17  and  O_18
REMARK    6  A    between atoms: N_19  and  C_20
REMARK                            x       y       z     vdW  Elec       q    Type
REMARK                         _______ _______ _______ _____ _____    ______ ____
ROOT
ATOM      1  C   UNL     1       0.622   2.675  18.796  0.00  0.00    +0.000 C 
ATOM      2  C   UNL     1       1.916   3.312  18.380  0.00  0.00    +0.000 A 
ATOM      3  C   UNL     1       2.975   2.546  17.893  0.00  0.00    +0.000 A 
ATOM      4  C   UNL     1       4.143   3.168  17.459  0.00  0.00    +0.000 A 
ATOM      5  C   UNL     1       4.230   4.564  17.460  0.00  0.00    +0.000 A 
ATOM      6  N   UNL     1       5.411   5.158  17.005  0.00  0.00    +0.000 N 
ATOM      7  C   UNL     1       5.612   6.506  16.959  0.00  0.00    +0.000 A 
ATOM      8  O   UNL     1       6.664   6.996  16.568  0.00  0.00    +0.000 OA
ATOM      9  C   UNL     1       4.481   7.358  17.381  0.00  0.00    +0.000 A 
ATOM     10  C   UNL     1       3.318   6.848  17.825  0.00  0.00    +0.000 A 
ATOM     11  C   UNL     1       3.171   5.369  17.917  0.00  0.00    +0.000 A 
ATOM     12  C   UNL     1       2.046   4.711  18.435  0.00  0.00    +0.000 A 
ATOM     13  H   UNL     1       6.190   4.587  16.703  0.00  0.00    +0.000 HD
ENDROOT
BRANCH  10  14
ATOM     14  C   UNL     1       2.278   7.890  18.155  0.00  0.00    +0.000 C 
ATOM     15  O   UNL     1       1.794   8.611  17.287  0.00  0.00    +0.000 OA
ATOM     16  N   UNL     1       1.892   7.934  19.467  0.00  0.00    +0.000 N 
ATOM     17  H   UNL     1       2.119   7.124  20.027  0.00  0.00    +0.000 HD
BRANCH  16  18
ATOM     18  C   UNL     1       0.907   8.813  20.074  0.00  0.00    +0.000 C 
ATOM     19  C   UNL     1       1.316  10.279  20.007  0.00  0.00    +0.000 C 
ATOM     20  C   UNL     1       0.730  10.918  21.276  0.00  0.00    +0.000 C 
ATOM     21  N   UNL     1      -0.236   9.901  21.761  0.00  0.00    +0.000 NA
ATOM     22  C   UNL     1      -0.582  10.078  23.168  0.00  0.00    +0.000 C 
ATOM     23  C   UNL     1       0.454   8.615  21.523  0.00  0.00    +0.000 C 
BRANCH  20  24
ATOM     24  C   UNL     1       0.062  12.267  20.974  0.00  0.00    +0.000 C 
BRANCH  24  25
ATOM     25  O   UNL     1       0.490  13.255  21.912  0.00  0.00    +0.000 OA
ATOM     26  H   UNL     1      -0.305  13.450  22.446  0.00  0.00    +0.000 HD
ENDBRANCH  24  25
ENDBRANCH  20  24
ENDBRANCH  16  18
ENDBRANCH  10  14
TORSDOF 4
ENDMDL
MODEL 7
REMARK VINA RESULT:      -7.5      2.579      3.913
REMARK  Name = 
REMARK  6 active torsions:
REMARK  status: ('A' for Active; 'I' for Inactive)
REMARK    1  A    between atoms: C_1  and  C_2
REMARK    2  A    between atoms: C_10  and  C_11
REMARK    3  A    between atoms: N_13  and  C_14
REMARK    4  A    between atoms: C_16  and  C_17
REMARK    5  A    between atoms: C_17  and  O_18
REMARK    6  A    between atoms: N_19  and  C_20
REMARK                            x       y       z     vdW  Elec       q    Type
REMARK                         _______ _______ _______ _____ _____    ______ ____
ROOT
ATOM      1  C   UNL     1       0.532   2.651  19.615  0.00  0.00    +0.000 C 
ATOM      2  C   UNL     1       1.648   3.306  18.854  0.00  0.00    +0.000 A 
ATOM      3  C   UNL     1       2.419   2.588  17.940  0.00  0.00    +0.000 A 
ATOM      4  C   UNL     1       3.409   3.235  17.205  0.00  0.00    +0.000 A 
ATOM      5  C   UNL     1       3.591   4.615  17.344  0.00  0.00    +0.000 A 
ATOM      6  N   UNL     1       4.585   5.236  16.581  0.00  0.00    +0.000 N 
ATOM      7  C   UNL     1       4.855   6.571  16.632  0.00  0.00    +0.000 A 
ATOM      8  O   UNL     1       5.741   7.084  15.961  0.00  0.00    +0.000 OA
ATOM      9  C   UNL     1       4.000   7.385  17.521  0.00  0.00    +0.000 A 
ATOM     10  C   UNL     1       3.026   6.848  18.278  0.00  0.00    +0.000 A 
ATOM     11  C   UNL     1       2.813   5.375  18.235  0.00  0.00    +0.000 A 
ATOM     12  C   UNL     1       1.889   4.680  19.029  0.00  0.00    +0.000 A 
ATOM     13  H   UNL     1       5.170   4.691  15.961  0.00  0.00    +0.000 HD
ENDROOT
BRANCH  10  14
ATOM     14  C   UNL     1       2.238   7.861  19.072  0.00  0.00    +0.000 C 
ATOM     15  O   UNL     1       1.977   7.684  20.258  0.00  0.00    +0.000 OA
ATOM     16  N   UNL     1       1.886   8.992  18.387  0.00  0.00    +0.000 N 
ATOM     17  H   UNL     1       2.390   9.171  17.530  0.00  0.00    +0.000 HD
BRANCH  16  18
ATOM     18  C   UNL     1       1.146  10.138  18.886  0.00  0.00    +0.000 C 
ATOM     19  C   UNL     1      -0.305  10.142  18.419  0.00  0.00    +0.000 C 
ATOM     20  C   UNL     1      -0.678  11.627  18.282  0.00  0.00    +0.000 C 
ATOM     21  N   UNL     1       0.415  12.327  18.999  0.00  0.00    +0.000 NA
ATOM     22  C   UNL     1       0.522  13.735  18.630  0.00  0.00    +0.000 C 
ATOM     23  C   UNL     1       1.628  11.568  18.626  0.00  0.00    +0.000 C 
BRANCH  20  24
ATOM     24  C   UNL     1      -2.060  11.921  18.883  0.00  0.00    +0.000 C 
BRANCH  24  25
ATOM     25  O   UNL     1      -1.994  11.911  20.309  0.00  0.00    +0.000 OA
ATOM     26  H   UNL     1      -2.432  11.076  20.572  0.00  0.00    +0.000 HD
ENDBRANCH  24  25
ENDBRANCH  20  24
ENDBRANCH  16  18
ENDBRANCH  10  14
TORSDOF 4
ENDMDL
MODEL 8
REMARK VINA RESULT:      -7.5      1.934      2.347
REMARK  Name = 
REMARK  6 active torsions:
REMARK  status: ('A' for Active; 'I' for Inactive)
REMARK    1  A    between atoms: C_1  and  C_2
REMARK    2  A    between atoms: C_10  and  C_11
REMARK    3  A    between atoms: N_13  and  C_14
REMARK    4  A    between atoms: C_16  and  C_17
REMARK    5  A    between atoms: C_17  and  O_18
REMARK    6  A    between atoms: N_19  and  C_20
REMARK                            x       y       z     vdW  Elec       q    Type
REMARK                         _______ _______ _______ _____ _____    ______ ____
ROOT
ATOM      1  C   UNL     1       7.654   8.053  17.486  0.00  0.00    +0.000 C 
ATOM      2  C   UNL     1       6.661   6.952  17.255  0.00  0.00    +0.000 A 
ATOM      3  C   UNL     1       7.039   5.752  16.653  0.00  0.00    +0.000 A 
ATOM      4  C   UNL     1       6.111   4.725  16.506  0.00  0.00    +0.000 A 
ATOM      5  C   UNL     1       4.816   4.877  17.012  0.00  0.00    +0.000 A 
ATOM      6  N   UNL     1       3.912   3.821  16.859  0.00  0.00    +0.000 N 
ATOM      7  C   UNL     1       2.626   3.854  17.309  0.00  0.00    +0.000 A 
ATOM      8  O   UNL     1       1.853   2.917  17.149  0.00  0.00    +0.000 OA
ATOM      9  C   UNL     1       2.209   5.073  18.034  0.00  0.00    +0.000 A 
ATOM     10  C   UNL     1       3.032   6.122  18.217  0.00  0.00    +0.000 A 
ATOM     11  C   UNL     1       4.407   6.062  17.650  0.00  0.00    +0.000 A 
ATOM     12  C   UNL     1       5.336   7.113  17.699  0.00  0.00    +0.000 A 
ATOM     13  H   UNL     1       4.187   2.977  16.374  0.00  0.00    +0.000 HD
ENDROOT
BRANCH  10  14
ATOM     14  C   UNL     1       2.427   7.242  19.027  0.00  0.00    +0.000 C 
ATOM     15  O   UNL     1       2.308   7.159  20.246  0.00  0.00    +0.000 OA
ATOM     16  N   UNL     1       2.072   8.352  18.312  0.00  0.00    +0.000 N 
ATOM     17  H   UNL     1       2.475   8.437  17.389  0.00  0.00    +0.000 HD
BRANCH  16  18
ATOM     18  C   UNL     1       1.486   9.582  18.815  0.00  0.00    +0.000 C 
ATOM     19  C   UNL     1      -0.017   9.653  18.572  0.00  0.00    +0.000 C 
ATOM     20  C   UNL     1      -0.321  11.145  18.364  0.00  0.00    +0.000 C 
ATOM     21  N   UNL     1       0.909  11.820  18.846  0.00  0.00    +0.000 NA
ATOM     22  C   UNL     1       1.038  13.184  18.344  0.00  0.00    +0.000 C 
ATOM     23  C   UNL     1       2.003  10.950  18.362  0.00  0.00    +0.000 C 
BRANCH  20  24
ATOM     24  C   UNL     1      -1.574  11.580  19.138  0.00  0.00    +0.000 C 
BRANCH  24  25
ATOM     25  O   UNL     1      -2.452  12.319  18.288  0.00  0.00    +0.000 OA
ATOM     26  H   UNL     1      -2.945  12.909  18.893  0.00  0.00    +0.000 HD
ENDBRANCH  24  25
ENDBRANCH  20  24
ENDBRANCH  16  18
ENDBRANCH  10  14
TORSDOF 4
ENDMDL
MODEL 9
REMARK VINA RESULT:      -7.4      2.125      3.580
REMARK  Name = 
REMARK  6 active torsions:
REMARK  status: ('A' for Active; 'I' for Inactive)
REMARK    1  A    between atoms: C_1  and  C_2
REMARK    2  A    between atoms: C_10  and  C_11
REMARK    3  A    between atoms: N_13  and  C_14
REMARK    4  A    between atoms: C_16  and  C_17
REMARK    5  A    between atoms: C_17  and  O_18
REMARK    6  A    between atoms: N_19  and  C_20
REMARK                            x       y       z     vdW  Elec       q    Type
REMARK                         _______ _______ _______ _____ _____    ______ ____
ROOT
ATOM      1  C   UNL     1       0.523   2.525  18.978  0.00  0.00    +0.000 C 
ATOM      2  C   UNL     1       1.745   3.185  18.408  0.00  0.00    +0.000 A 
ATOM      3  C   UNL     1       2.658   2.469  17.634  0.00  0.00    +0.000 A 
ATOM      4  C   UNL     1       3.751   3.120  17.068  0.00  0.00    +0.000 A 
ATOM      5  C   UNL     1       3.901   4.501  17.231  0.00  0.00    +0.000 A 
ATOM      6  N   UNL     1       5.003   5.126  16.639  0.00  0.00    +0.000 N 
ATOM      7  C   UNL     1       5.254   6.463  16.729  0.00  0.00    +0.000 A 
ATOM      8  O   UNL     1       6.236   6.980  16.210  0.00  0.00    +0.000 OA
ATOM      9  C   UNL     1       4.262   7.275  17.464  0.00  0.00    +0.000 A 
ATOM     10  C   UNL     1       3.180   6.734  18.054  0.00  0.00    +0.000 A 
ATOM     11  C   UNL     1       2.985   5.260  17.981  0.00  0.00    +0.000 A 
ATOM     12  C   UNL     1       1.947   4.561  18.616  0.00  0.00    +0.000 A 
ATOM     13  H   UNL     1       5.685   4.584  16.123  0.00  0.00    +0.000 HD
ENDROOT
BRANCH  10  14
ATOM     14  C   UNL     1       2.268   7.744  18.706  0.00  0.00    +0.000 C 
ATOM     15  O   UNL     1       1.956   7.656  19.890  0.00  0.00    +0.000 OA
ATOM     16  N   UNL     1       1.864   8.771  17.898  0.00  0.00    +0.000 N 
ATOM     17  H   UNL     1       2.400   8.913  17.053  0.00  0.00    +0.000 HD
BRANCH  16  18
ATOM     18  C   UNL     1       1.006   9.890  18.246  0.00  0.00    +0.000 C 
ATOM     19  C   UNL     1       0.941  10.128  19.750  0.00  0.00    +0.000 C 
ATOM     20  C   UNL     1      -0.475  10.667  20.010  0.00  0.00    +0.000 C 
ATOM     21  N   UNL     1      -0.963  11.028  18.657  0.00  0.00    +0.000 NA
ATOM     22  C   UNL     1      -2.416  11.140  18.592  0.00  0.00    +0.000 C 
ATOM     23  C   UNL     1      -0.457   9.938  17.795  0.00  0.00    +0.000 C 
BRANCH  20  24
ATOM     24  C   UNL     1      -0.456  11.866  20.969  0.00  0.00    +0.000 C 
BRANCH  24  25
ATOM     25  O   UNL     1       0.803  11.948  21.639  0.00  0.00    +0.000 OA
ATOM     26  H   UNL     1       0.623  11.624  22.544  0.00  0.00    +0.000 HD
ENDBRANCH  24  25
ENDBRANCH  20  24
ENDBRANCH  16  18
ENDBRANCH  10  14
TORSDOF 4
ENDMDL
