MODEL 1
REMARK VINA RESULT:      -7.8      0.000      0.000
REMARK  Name = 
REMARK  5 active torsions:
REMARK  status: ('A' for Active; 'I' for Inactive)
REMARK    1  A    between atoms: C_1  and  C_2
REMARK    2  A    between atoms: C_3  and  C_4
REMARK    3  A    between atoms: N_6  and  C_7
REMARK    4  A    between atoms: C_7  and  C_8
REMARK    5  A    between atoms: C_14  and  C_15
REMARK                            x       y       z     vdW  Elec       q    Type
REMARK                         _______ _______ _______ _____ _____    ______ ____
ROOT
ATOM      1  C   UNL     1       1.533   9.339  17.966  0.00  0.00    +0.000 C 
ATOM      2  C   UNL     1       2.310   8.123  18.415  0.00  0.00    +0.000 C 
ATOM      3  C   UNL     1       2.211   7.419  19.581  0.00  0.00    +0.000 C 
ATOM      4  C   UNL     1       3.123   6.172  19.809  0.00  0.00    +0.000 C 
ATOM      5  N   UNL     1       4.033   5.929  18.679  0.00  0.00    +0.000 N 
ATOM      6  N   UNL     1       4.912   4.905  18.595  0.00  0.00    +0.000 NA
ATOM      7  C   UNL     1       5.377   5.076  17.353  0.00  0.00    +0.000 A 
ATOM      8  N   UNL     1       4.900   6.169  16.686  0.00  0.00    +0.000 NA
ATOM      9  C   UNL     1       4.045   6.673  17.538  0.00  0.00    +0.000 A 
ATOM     10  N   UNL     1       3.234   7.734  17.443  0.00  0.00    +0.000 N 
ATOM     11  H   UNL     1       3.299   8.295  16.599  0.00  0.00    +0.000 HD
ENDROOT
BRANCH   4  12
ATOM     12  C   UNL     1       2.368   4.881  20.098  0.00  0.00    +0.000 A 
ATOM     13  C   UNL     1       2.479   4.246  21.343  0.00  0.00    +0.000 A 
ATOM     14  C   UNL     1       1.836   3.033  21.564  0.00  0.00    +0.000 A 
ATOM     15  C   UNL     1       1.092   2.490  20.531  0.00  0.00    +0.000 A 
ATOM     16  N   UNL     1       0.947   3.074  19.321  0.00  0.00    +0.000 NA
ATOM     17  C   UNL     1       1.593   4.246  19.130  0.00  0.00    +0.000 A 
ENDBRANCH   4  12
BRANCH   3  18
ATOM     18  C   UNL     1       1.363   7.683  20.809  0.00  0.00    +0.000 C 
ATOM     19  O   UNL     1       0.334   7.036  20.992  0.00  0.00    +0.000 OA
ATOM     20  N   UNL     1       1.742   8.666  21.672  0.00  0.00    +0.000 N 
ATOM     21  H   UNL     1       2.666   9.036  21.677  0.00  0.00    +0.000 HD
BRANCH  20  22
ATOM     22  C   UNL     1       0.910   9.153  22.756  0.00  0.00    +0.000 C 
BRANCH  22  23
ATOM     23  C   UNL     1       0.066  10.314  22.278  0.00  0.00    +0.000 A 
ATOM     24  C   UNL     1       0.403  10.994  21.093  0.00  0.00    +0.000 A 
ATOM     25  C   UNL     1      -0.348  12.084  20.656  0.00  0.00    +0.000 A 
ATOM     26  C   UNL     1      -1.451  12.513  21.392  0.00  0.00    +0.000 A 
ATOM     27  C   UNL     1      -1.800  11.850  22.568  0.00  0.00    +0.000 A 
ATOM     28  C   UNL     1      -1.044  10.757  23.008  0.00  0.00    +0.000 A 
ENDBRANCH  22  23
ENDBRANCH  20  22
ENDBRANCH   3  18
TORSDOF 4
ENDMDL
MODEL 2
REMARK VINA RESULT:      -7.6      1.759      2.297
REMARK  Name = 
REMARK  5 active torsions:
REMARK  status: ('A' for Active; 'I' for Inactive)
REMARK    1  A    between atoms: C_1  and  C_2
REMARK    2  A    between atoms: C_3  and  C_4
REMARK    3  A    between atoms: N_6  and  C_7
REMARK    4  A    between atoms: C_7  and  C_8
REMARK    5  A    between atoms: C_14  and  C_15
REMARK                            x       y       z     vdW  Elec       q    Type
REMARK                         _______ _______ _______ _____ _____    ______ ____
ROOT
ATOM      1  C   UNL     1       2.429   8.680  17.444  0.00  0.00    +0.000 C 
ATOM      2  C   UNL     1       3.382   7.549  17.757  0.00  0.00    +0.000 C 
ATOM      3  C   UNL     1       3.291   6.589  18.724  0.00  0.00    +0.000 C 
ATOM      4  C   UNL     1       4.408   5.503  18.839  0.00  0.00    +0.000 C 
ATOM      5  N   UNL     1       5.477   5.691  17.847  0.00  0.00    +0.000 N 
ATOM      6  N   UNL     1       6.552   4.884  17.701  0.00  0.00    +0.000 NA
ATOM      7  C   UNL     1       7.117   5.416  16.611  0.00  0.00    +0.000 A 
ATOM      8  N   UNL     1       6.508   6.532  16.111  0.00  0.00    +0.000 NA
ATOM      9  C   UNL     1       5.471   6.668  16.898  0.00  0.00    +0.000 A 
ATOM     10  N   UNL     1       4.475   7.563  16.889  0.00  0.00    +0.000 N 
ATOM     11  H   UNL     1       4.523   8.306  16.199  0.00  0.00    +0.000 HD
ENDROOT
BRANCH   4  12
ATOM     12  C   UNL     1       3.907   4.069  18.734  0.00  0.00    +0.000 A 
ATOM     13  C   UNL     1       3.119   3.661  17.647  0.00  0.00    +0.000 A 
ATOM     14  C   UNL     1       2.614   2.366  17.603  0.00  0.00    +0.000 A 
ATOM     15  C   UNL     1       2.917   1.510  18.648  0.00  0.00    +0.000 A 
ATOM     16  N   UNL     1       3.681   1.857  19.706  0.00  0.00    +0.000 NA
ATOM     17  C   UNL     1       4.149   3.125  19.729  0.00  0.00    +0.000 A 
ENDBRANCH   4  12
BRANCH   3  18
ATOM     18  C   UNL     1       2.266   6.410  19.826  0.00  0.00    +0.000 C 
ATOM     19  O   UNL     1       1.684   5.335  19.950  0.00  0.00    +0.000 OA
ATOM     20  N   UNL     1       1.982   7.465  20.638  0.00  0.00    +0.000 N 
ATOM     21  H   UNL     1       2.587   8.252  20.712  0.00  0.00    +0.000 HD
BRANCH  20  22
ATOM     22  C   UNL     1       0.879   7.483  21.581  0.00  0.00    +0.000 C 
BRANCH  22  23
ATOM     23  C   UNL     1       0.296   8.877  21.666  0.00  0.00    +0.000 A 
ATOM     24  C   UNL     1      -0.244   9.346  22.877  0.00  0.00    +0.000 A 
ATOM     25  C   UNL     1      -0.811  10.617  22.963  0.00  0.00    +0.000 A 
ATOM     26  C   UNL     1      -0.845  11.444  21.841  0.00  0.00    +0.000 A 
ATOM     27  C   UNL     1      -0.313  10.995  20.634  0.00  0.00    +0.000 A 
ATOM     28  C   UNL     1       0.254   9.718  20.547  0.00  0.00    +0.000 A 
ENDBRANCH  22  23
ENDBRANCH  20  22
ENDBRANCH   3  18
TORSDOF 4
ENDMDL
MODEL 3
REMARK VINA RESULT:      -7.5      0.815      1.494
REMARK  Name = 
REMARK  5 active torsions:
REMARK  status: ('A' for Active; 'I' for Inactive)
REMARK    1  A    between atoms: C_1  and  C_2
REMARK    2  A    between atoms: C_3  and  C_4
REMARK    3  A    between atoms: N_6  and  C_7
REMARK    4  A    between atoms: C_7  and  C_8
REMARK    5  A    between atoms: C_14  and  C_15
REMARK                            x       y       z     vdW  Elec       q    Type
REMARK                         _______ _______ _______ _____ _____    ______ ____
ROOT
ATOM      1  C   UNL     1       1.874   9.173  17.843  0.00  0.00    +0.000 C 
ATOM      2  C   UNL     1       2.667   7.922  18.142  0.00  0.00    +0.000 C 
ATOM      3  C   UNL     1       2.576   7.078  19.213  0.00  0.00    +0.000 C 
ATOM      4  C   UNL     1       3.506   5.825  19.289  0.00  0.00    +0.000 C 
ATOM      5  N   UNL     1       4.421   5.736  18.141  0.00  0.00    +0.000 N 
ATOM      6  N   UNL     1       5.315   4.743  17.935  0.00  0.00    +0.000 NA
ATOM      7  C   UNL     1       5.780   5.072  16.725  0.00  0.00    +0.000 A 
ATOM      8  N   UNL     1       5.289   6.232  16.196  0.00  0.00    +0.000 NA
ATOM      9  C   UNL     1       4.425   6.615  17.100  0.00  0.00    +0.000 A 
ATOM     10  N   UNL     1       3.598   7.668  17.133  0.00  0.00    +0.000 N 
ATOM     11  H   UNL     1       3.657   8.329  16.365  0.00  0.00    +0.000 HD
ENDROOT
BRANCH   4  12
ATOM     12  C   UNL     1       2.768   4.499  19.414  0.00  0.00    +0.000 A 
ATOM     13  C   UNL     1       1.860   4.086  18.428  0.00  0.00    +0.000 A 
ATOM     14  C   UNL     1       1.145   2.904  18.593  0.00  0.00    +0.000 A 
ATOM     15  C   UNL     1       1.364   2.163  19.741  0.00  0.00    +0.000 A 
ATOM     16  N   UNL     1       2.238   2.516  20.709  0.00  0.00    +0.000 NA
ATOM     17  C   UNL     1       2.910   3.675  20.528  0.00  0.00    +0.000 A 
ENDBRANCH   4  12
BRANCH   3  18
ATOM     18  C   UNL     1       1.722   7.177  20.461  0.00  0.00    +0.000 C 
ATOM     19  O   UNL     1       0.963   6.257  20.756  0.00  0.00    +0.000 OA
ATOM     20  N   UNL     1       1.785   8.310  21.214  0.00  0.00    +0.000 N 
ATOM     21  H   UNL     1       2.541   8.954  21.134  0.00  0.00    +0.000 HD
BRANCH  20  22
ATOM     22  C   UNL     1       0.870   8.610  22.299  0.00  0.00    +0.000 C 
BRANCH  22  23
ATOM     23  C   UNL     1       0.159   9.917  22.028  0.00  0.00    +0.000 A 
ATOM     24  C   UNL     1      -0.736  10.447  22.975  0.00  0.00    +0.000 A 
ATOM     25  C   UNL     1      -1.421  11.636  22.726  0.00  0.00    +0.000 A 
ATOM     26  C   UNL     1      -1.221  12.318  21.527  0.00  0.00    +0.000 A 
ATOM     27  C   UNL     1      -0.337  11.808  20.578  0.00  0.00    +0.000 A 
ATOM     28  C   UNL     1       0.349  10.613  20.827  0.00  0.00    +0.000 A 
ENDBRANCH  22  23
ENDBRANCH  20  22
ENDBRANCH   3  18
TORSDOF 4
ENDMDL
MODEL 4
REMARK VINA RESULT:      -7.3      1.804      2.239
REMARK  Name = 
REMARK  5 active torsions:
REMARK  status: ('A' for Active; 'I' for Inactive)
REMARK    1  A    between atoms: C_1  and  C_2
REMARK    2  A    between atoms: C_3  and  C_4
REMARK    3  A    between atoms: N_6  and  C_7
REMARK    4  A    between atoms: C_7  and  C_8
REMARK    5  A    between atoms: C_14  and  C_15
REMARK                            x       y       z     vdW  Elec       q    Type
REMARK                         _______ _______ _______ _____ _____    ______ ____
ROOT
ATOM      1  C   UNL     1       2.740   8.514  17.388  0.00  0.00    +0.000 C 
ATOM      2  C   UNL     1       3.644   7.381  17.819  0.00  0.00    +0.000 C 
ATOM      3  C   UNL     1       3.449   6.447  18.795  0.00  0.00    +0.000 C 
ATOM      4  C   UNL     1       4.536   5.353  19.045  0.00  0.00    +0.000 C 
ATOM      5  N   UNL     1       5.699   5.506  18.156  0.00  0.00    +0.000 N 
ATOM      6  N   UNL     1       6.773   4.686  18.135  0.00  0.00    +0.000 NA
ATOM      7  C   UNL     1       7.447   5.185  17.093  0.00  0.00    +0.000 A 
ATOM      8  N   UNL     1       6.903   6.294  16.510  0.00  0.00    +0.000 NA
ATOM      9  C   UNL     1       5.796   6.459  17.188  0.00  0.00    +0.000 A 
ATOM     10  N   UNL     1       4.817   7.363  17.061  0.00  0.00    +0.000 N 
ATOM     11  H   UNL     1       4.941   8.088  16.361  0.00  0.00    +0.000 HD
ENDROOT
BRANCH   4  12
ATOM     12  C   UNL     1       4.030   3.921  18.925  0.00  0.00    +0.000 A 
ATOM     13  C   UNL     1       4.221   3.002  19.967  0.00  0.00    +0.000 A 
ATOM     14  C   UNL     1       3.813   1.682  19.812  0.00  0.00    +0.000 A 
ATOM     15  C   UNL     1       3.219   1.318  18.616  0.00  0.00    +0.000 A 
ATOM     16  N   UNL     1       3.004   2.173  17.592  0.00  0.00    +0.000 NA
ATOM     17  C   UNL     1       3.421   3.447  17.766  0.00  0.00    +0.000 A 
ENDBRANCH   4  12
BRANCH   3  18
ATOM     18  C   UNL     1       2.320   6.305  19.796  0.00  0.00    +0.000 C 
ATOM     19  O   UNL     1       1.613   5.299  19.782  0.00  0.00    +0.000 OA
ATOM     20  N   UNL     1       2.085   7.320  20.672  0.00  0.00    +0.000 N 
ATOM     21  H   UNL     1       2.766   8.023  20.860  0.00  0.00    +0.000 HD
BRANCH  20  22
ATOM     22  C   UNL     1       0.915   7.396  21.526  0.00  0.00    +0.000 C 
BRANCH  22  23
ATOM     23  C   UNL     1       0.432   8.827  21.614  0.00  0.00    +0.000 A 
ATOM     24  C   UNL     1      -0.240   9.278  22.765  0.00  0.00    +0.000 A 
ATOM     25  C   UNL     1      -0.717  10.586  22.848  0.00  0.00    +0.000 A 
ATOM     26  C   UNL     1      -0.528  11.467  21.784  0.00  0.00    +0.000 A 
ATOM     27  C   UNL     1       0.136  11.037  20.638  0.00  0.00    +0.000 A 
ATOM     28  C   UNL     1       0.613   9.723  20.553  0.00  0.00    +0.000 A 
ENDBRANCH  22  23
ENDBRANCH  20  22
ENDBRANCH   3  18
TORSDOF 4
ENDMDL
MODEL 5
REMARK VINA RESULT:      -7.3      2.377      4.460
REMARK  Name = 
REMARK  5 active torsions:
REMARK  status: ('A' for Active; 'I' for Inactive)
REMARK    1  A    between atoms: C_1  and  C_2
REMARK    2  A    between atoms: C_3  and  C_4
REMARK    3  A    between atoms: N_6  and  C_7
REMARK    4  A    between atoms: C_7  and  C_8
REMARK    5  A    between atoms: C_14  and  C_15
REMARK                            x       y       z     vdW  Elec       q    Type
REMARK                         _______ _______ _______ _____ _____    ______ ____
ROOT
ATOM      1  C   UNL     1       1.460   6.482  20.967  0.00  0.00    +0.000 C 
ATOM      2  C   UNL     1       2.002   5.576  19.885  0.00  0.00    +0.000 C 
ATOM      3  C   UNL     1       2.654   5.905  18.731  0.00  0.00    +0.000 C 
ATOM      4  C   UNL     1       3.137   4.774  17.769  0.00  0.00    +0.000 C 
ATOM      5  N   UNL     1       2.780   3.433  18.257  0.00  0.00    +0.000 N 
ATOM      6  N   UNL     1       3.096   2.272  17.639  0.00  0.00    +0.000 NA
ATOM      7  C   UNL     1       2.662   1.384  18.540  0.00  0.00    +0.000 A 
ATOM      8  N   UNL     1       2.040   1.908  19.638  0.00  0.00    +0.000 NA
ATOM      9  C   UNL     1       2.148   3.197  19.439  0.00  0.00    +0.000 A 
ATOM     10  N   UNL     1       1.759   4.235  20.190  0.00  0.00    +0.000 N 
ATOM     11  H   UNL     1       1.249   4.027  21.043  0.00  0.00    +0.000 HD
ENDROOT
BRANCH   4  12
ATOM     12  C   UNL     1       4.632   4.792  17.474  0.00  0.00    +0.000 A 
ATOM     13  C   UNL     1       5.103   4.886  16.157  0.00  0.00    +0.000 A 
ATOM     14  C   UNL     1       6.469   4.832  15.903  0.00  0.00    +0.000 A 
ATOM     15  C   UNL     1       7.329   4.689  16.978  0.00  0.00    +0.000 A 
ATOM     16  N   UNL     1       6.919   4.608  18.263  0.00  0.00    +0.000 NA
ATOM     17  C   UNL     1       5.585   4.651  18.480  0.00  0.00    +0.000 A 
ENDBRANCH   4  12
BRANCH   3  18
ATOM     18  C   UNL     1       2.959   7.267  18.140  0.00  0.00    +0.000 C 
ATOM     19  O   UNL     1       4.102   7.532  17.774  0.00  0.00    +0.000 OA
ATOM     20  N   UNL     1       1.961   8.189  18.060  0.00  0.00    +0.000 N 
ATOM     21  H   UNL     1       1.000   7.933  18.127  0.00  0.00    +0.000 HD
BRANCH  20  22
ATOM     22  C   UNL     1       2.174   9.582  17.716  0.00  0.00    +0.000 C 
BRANCH  22  23
ATOM     23  C   UNL     1       1.085  10.437  18.325  0.00  0.00    +0.000 A 
ATOM     24  C   UNL     1      -0.264  10.055  18.208  0.00  0.00    +0.000 A 
ATOM     25  C   UNL     1      -1.281  10.849  18.738  0.00  0.00    +0.000 A 
ATOM     26  C   UNL     1      -0.968  12.036  19.398  0.00  0.00    +0.000 A 
ATOM     27  C   UNL     1       0.363  12.428  19.525  0.00  0.00    +0.000 A 
ATOM     28  C   UNL     1       1.384  11.633  18.990  0.00  0.00    +0.000 A 
ENDBRANCH  22  23
ENDBRANCH  20  22
ENDBRANCH   3  18
TORSDOF 4
ENDMDL
MODEL 6
REMARK VINA RESULT:      -7.3      1.755      1.939
REMARK  Name = 
REMARK  5 active torsions:
REMARK  status: ('A' for Active; 'I' for Inactive)
REMARK    1  A    between atoms: C_1  and  C_2
REMARK    2  A    between atoms: C_3  and  C_4
REMARK    3  A    between atoms: N_6  and  C_7
REMARK    4  A    between atoms: C_7  and  C_8
REMARK    5  A    between atoms: C_14  and  C_15
REMARK                            x       y       z     vdW  Elec       q    Type
REMARK                         _______ _______ _______ _____ _____    ______ ____
ROOT
ATOM      1  C   UNL     1       2.405   8.654  17.522  0.00  0.00    +0.000 C 
ATOM      2  C   UNL     1       3.354   7.496  17.732  0.00  0.00    +0.000 C 
ATOM      3  C   UNL     1       3.359   6.556  18.723  0.00  0.00    +0.000 C 
ATOM      4  C   UNL     1       4.446   5.433  18.714  0.00  0.00    +0.000 C 
ATOM      5  N   UNL     1       5.381   5.568  17.587  0.00  0.00    +0.000 N 
ATOM      6  N   UNL     1       6.401   4.722  17.319  0.00  0.00    +0.000 NA
ATOM      7  C   UNL     1       6.836   5.215  16.154  0.00  0.00    +0.000 A 
ATOM      8  N   UNL     1       6.203   6.343  15.715  0.00  0.00    +0.000 NA
ATOM      9  C   UNL     1       5.283   6.528  16.626  0.00  0.00    +0.000 A 
ATOM     10  N   UNL     1       4.324   7.457  16.728  0.00  0.00    +0.000 N 
ATOM     11  H   UNL     1       4.305   8.186  16.023  0.00  0.00    +0.000 HD
ENDROOT
BRANCH   4  12
ATOM     12  C   UNL     1       3.889   4.016  18.705  0.00  0.00    +0.000 A 
ATOM     13  C   UNL     1       4.345   3.058  19.623  0.00  0.00    +0.000 A 
ATOM     14  C   UNL     1       3.875   1.752  19.554  0.00  0.00    +0.000 A 
ATOM     15  C   UNL     1       2.954   1.439  18.569  0.00  0.00    +0.000 A 
ATOM     16  N   UNL     1       2.478   2.332  17.674  0.00  0.00    +0.000 NA
ATOM     17  C   UNL     1       2.961   3.592  17.757  0.00  0.00    +0.000 A 
ENDBRANCH   4  12
BRANCH   3  18
ATOM     18  C   UNL     1       2.483   6.431  19.952  0.00  0.00    +0.000 C 
ATOM     19  O   UNL     1       2.289   5.326  20.454  0.00  0.00    +0.000 OA
ATOM     20  N   UNL     1       1.891   7.549  20.456  0.00  0.00    +0.000 N 
ATOM     21  H   UNL     1       2.207   8.463  20.221  0.00  0.00    +0.000 HD
BRANCH  20  22
ATOM     22  C   UNL     1       0.871   7.528  21.487  0.00  0.00    +0.000 C 
BRANCH  22  23
ATOM     23  C   UNL     1       0.278   8.909  21.654  0.00  0.00    +0.000 A 
ATOM     24  C   UNL     1       0.312   9.829  20.590  0.00  0.00    +0.000 A 
ATOM     25  C   UNL     1      -0.205  11.115  20.739  0.00  0.00    +0.000 A 
ATOM     26  C   UNL     1      -0.768  11.505  21.953  0.00  0.00    +0.000 A 
ATOM     27  C   UNL     1      -0.812  10.606  23.017  0.00  0.00    +0.000 A 
ATOM     28  C   UNL     1      -0.290   9.315  22.868  0.00  0.00    +0.000 A 
ENDBRANCH  22  23
ENDBRANCH  20  22
ENDBRANCH   3  18
TORSDOF 4
ENDMDL
MODEL 7
REMARK VINA RESULT:      -7.3      2.592      5.292
REMARK  Name = 
REMARK  5 active torsions:
REMARK  status: ('A' for Active; 'I' for Inactive)
REMARK    1  A    between atoms: C_1  and  C_2
REMARK    2  A    between atoms: C_3  and  C_4
REMARK    3  A    between atoms: N_6  and  C_7
REMARK    4  A    between atoms: C_7  and  C_8
REMARK    5  A    between atoms: C_14  and  C_15
REMARK                            x       y       z     vdW  Elec       q    Type
REMARK                         _______ _______ _______ _____ _____    ______ ____
ROOT
ATOM      1  C   UNL     1       3.757   2.219  18.120  0.00  0.00    +0.000 C 
ATOM      2  C   UNL     1       4.400   3.381  17.397  0.00  0.00    +0.000 C 
ATOM      3  C   UNL     1       4.470   4.694  17.767  0.00  0.00    +0.000 C 
ATOM      4  C   UNL     1       5.213   5.716  16.848  0.00  0.00    +0.000 C 
ATOM      5  N   UNL     1       5.742   5.089  15.627  0.00  0.00    +0.000 N 
ATOM      6  N   UNL     1       6.450   5.729  14.669  0.00  0.00    +0.000 NA
ATOM      7  C   UNL     1       6.784   4.704  13.878  0.00  0.00    +0.000 A 
ATOM      8  N   UNL     1       6.280   3.487  14.239  0.00  0.00    +0.000 NA
ATOM      9  C   UNL     1       5.646   3.759  15.351  0.00  0.00    +0.000 A 
ATOM     10  N   UNL     1       4.977   2.964  16.195  0.00  0.00    +0.000 N 
ATOM     11  H   UNL     1       4.883   1.986  15.939  0.00  0.00    +0.000 HD
ENDROOT
BRANCH   4  12
ATOM     12  C   UNL     1       6.349   6.468  17.529  0.00  0.00    +0.000 A 
ATOM     13  C   UNL     1       6.630   7.801  17.193  0.00  0.00    +0.000 A 
ATOM     14  C   UNL     1       7.714   8.448  17.776  0.00  0.00    +0.000 A 
ATOM     15  C   UNL     1       8.485   7.745  18.685  0.00  0.00    +0.000 A 
ATOM     16  N   UNL     1       8.242   6.466  19.046  0.00  0.00    +0.000 NA
ATOM     17  C   UNL     1       7.189   5.857  18.455  0.00  0.00    +0.000 A 
ENDBRANCH   4  12
BRANCH   3  18
ATOM     18  C   UNL     1       3.861   5.404  18.959  0.00  0.00    +0.000 C 
ATOM     19  O   UNL     1       4.221   5.106  20.097  0.00  0.00    +0.000 OA
ATOM     20  N   UNL     1       2.893   6.336  18.747  0.00  0.00    +0.000 N 
ATOM     21  H   UNL     1       2.752   6.755  17.855  0.00  0.00    +0.000 HD
BRANCH  20  22
ATOM     22  C   UNL     1       2.091   6.923  19.804  0.00  0.00    +0.000 C 
BRANCH  22  23
ATOM     23  C   UNL     1       1.748   8.355  19.458  0.00  0.00    +0.000 A 
ATOM     24  C   UNL     1       1.019   9.148  20.362  0.00  0.00    +0.000 A 
ATOM     25  C   UNL     1       0.670  10.460  20.044  0.00  0.00    +0.000 A 
ATOM     26  C   UNL     1       1.047  11.005  18.818  0.00  0.00    +0.000 A 
ATOM     27  C   UNL     1       1.771  10.234  17.910  0.00  0.00    +0.000 A 
ATOM     28  C   UNL     1       2.119   8.915  18.229  0.00  0.00    +0.000 A 
ENDBRANCH  22  23
ENDBRANCH  20  22
ENDBRANCH   3  18
TORSDOF 4
ENDMDL
MODEL 8
REMARK VINA RESULT:      -7.2      2.157      4.349
REMARK  Name = 
REMARK  5 active torsions:
REMARK  status: ('A' for Active; 'I' for Inactive)
REMARK    1  A    between atoms: C_1  and  C_2
REMARK    2  A    between atoms: C_3  and  C_4
REMARK    3  A    between atoms: N_6  and  C_7
REMARK    4  A    between atoms: C_7  and  C_8
REMARK    5  A    between atoms: C_14  and  C_15
REMARK                            x       y       z     vdW  Elec       q    Type
REMARK                         _______ _______ _______ _____ _____    ______ ____
ROOT
ATOM      1  C   UNL     1       1.479   6.366  20.953  0.00  0.00    +0.000 C 
ATOM      2  C   UNL     1       2.137   5.580  19.842  0.00  0.00    +0.000 C 
ATOM      3  C   UNL     1       2.709   6.033  18.688  0.00  0.00    +0.000 C 
ATOM      4  C   UNL     1       3.347   5.013  17.691  0.00  0.00    +0.000 C 
ATOM      5  N   UNL     1       3.213   3.622  18.151  0.00  0.00    +0.000 N 
ATOM      6  N   UNL     1       3.696   2.540  17.501  0.00  0.00    +0.000 NA
ATOM      7  C   UNL     1       3.421   1.574  18.385  0.00  0.00    +0.000 A 
ATOM      8  N   UNL     1       2.745   1.970  19.504  0.00  0.00    +0.000 NA
ATOM      9  C   UNL     1       2.646   3.263  19.336  0.00  0.00    +0.000 A 
ATOM     10  N   UNL     1       2.112   4.211  20.117  0.00  0.00    +0.000 N 
ATOM     11  H   UNL     1       1.656   3.907  20.972  0.00  0.00    +0.000 HD
ENDROOT
BRANCH   4  12
ATOM     12  C   UNL     1       4.815   5.271  17.377  0.00  0.00    +0.000 A 
ATOM     13  C   UNL     1       5.772   5.316  18.401  0.00  0.00    +0.000 A 
ATOM     14  C   UNL     1       7.095   5.621  18.102  0.00  0.00    +0.000 A 
ATOM     15  C   UNL     1       7.426   5.868  16.781  0.00  0.00    +0.000 A 
ATOM     16  N   UNL     1       6.540   5.823  15.763  0.00  0.00    +0.000 NA
ATOM     17  C   UNL     1       5.259   5.536  16.084  0.00  0.00    +0.000 A 
ENDBRANCH   4  12
BRANCH   3  18
ATOM     18  C   UNL     1       2.787   7.438  18.126  0.00  0.00    +0.000 C 
ATOM     19  O   UNL     1       3.869   7.888  17.753  0.00  0.00    +0.000 OA
ATOM     20  N   UNL     1       1.655   8.193  18.081  0.00  0.00    +0.000 N 
ATOM     21  H   UNL     1       0.748   7.788  18.154  0.00  0.00    +0.000 HD
BRANCH  20  22
ATOM     22  C   UNL     1       1.642   9.610  17.768  0.00  0.00    +0.000 C 
BRANCH  22  23
ATOM     23  C   UNL     1       0.483  10.282  18.470  0.00  0.00    +0.000 A 
ATOM     24  C   UNL     1       0.686  10.953  19.691  0.00  0.00    +0.000 A 
ATOM     25  C   UNL     1      -0.378  11.552  20.364  0.00  0.00    +0.000 A 
ATOM     26  C   UNL     1      -1.664  11.495  19.829  0.00  0.00    +0.000 A 
ATOM     27  C   UNL     1      -1.883  10.836  18.621  0.00  0.00    +0.000 A 
ATOM     28  C   UNL     1      -0.815  10.232  17.946  0.00  0.00    +0.000 A 
ENDBRANCH  22  23
ENDBRANCH  20  22
ENDBRANCH   3  18
TORSDOF 4
ENDMDL
MODEL 9
REMARK VINA RESULT:      -7.1      3.309      7.987
REMARK  Name = 
REMARK  5 active torsions:
REMARK  status: ('A' for Active; 'I' for Inactive)
REMARK    1  A    between atoms: C_1  and  C_2
REMARK    2  A    between atoms: C_3  and  C_4
REMARK    3  A    between atoms: N_6  and  C_7
REMARK    4  A    between atoms: C_7  and  C_8
REMARK    5  A    between atoms: C_14  and  C_15
REMARK                            x       y       z     vdW  Elec       q    Type
REMARK                         _______ _______ _______ _____ _____    ______ ____
ROOT
ATOM      1  C   UNL     1       1.067   9.272  22.357  0.00  0.00    +0.000 C 
ATOM      2  C   UNL     1       0.164  10.258  21.650  0.00  0.00    +0.000 C 
ATOM      3  C   UNL     1       0.187  10.665  20.347  0.00  0.00    +0.000 C 
ATOM      4  C   UNL     1      -0.875  11.694  19.843  0.00  0.00    +0.000 C 
ATOM      5  N   UNL     1      -1.790  12.125  20.911  0.00  0.00    +0.000 N 
ATOM      6  N   UNL     1      -2.819  12.986  20.752  0.00  0.00    +0.000 NA
ATOM      7  C   UNL     1      -3.382  12.930  21.964  0.00  0.00    +0.000 A 
ATOM      8  N   UNL     1      -2.738  12.148  22.882  0.00  0.00    +0.000 NA
ATOM      9  C   UNL     1      -1.754  11.642  22.184  0.00  0.00    +0.000 A 
ATOM     10  N   UNL     1      -0.795  10.772  22.525  0.00  0.00    +0.000 N 
ATOM     11  H   UNL     1      -0.766  10.466  23.493  0.00  0.00    +0.000 HD
ENDROOT
BRANCH   4  12
ATOM     12  C   UNL     1      -1.711  11.213  18.665  0.00  0.00    +0.000 A 
ATOM     13  C   UNL     1      -2.423  10.006  18.735  0.00  0.00    +0.000 A 
ATOM     14  C   UNL     1      -3.126   9.550  17.625  0.00  0.00    +0.000 A 
ATOM     15  C   UNL     1      -3.100  10.317  16.474  0.00  0.00    +0.000 A 
ATOM     16  N   UNL     1      -2.439  11.490  16.367  0.00  0.00    +0.000 NA
ATOM     17  C   UNL     1      -1.755  11.905  17.457  0.00  0.00    +0.000 A 
ENDBRANCH   4  12
BRANCH   3  18
ATOM     18  C   UNL     1       1.162  10.328  19.238  0.00  0.00    +0.000 C 
ATOM     19  O   UNL     1       1.716  11.233  18.616  0.00  0.00    +0.000 OA
ATOM     20  N   UNL     1       1.377   9.021  18.924  0.00  0.00    +0.000 N 
ATOM     21  H   UNL     1       1.132   8.283  19.546  0.00  0.00    +0.000 HD
BRANCH  20  22
ATOM     22  C   UNL     1       2.115   8.582  17.755  0.00  0.00    +0.000 C 
BRANCH  22  23
ATOM     23  C   UNL     1       2.973   7.387  18.104  0.00  0.00    +0.000 A 
ATOM     24  C   UNL     1       2.676   6.608  19.238  0.00  0.00    +0.000 A 
ATOM     25  C   UNL     1       3.476   5.521  19.589  0.00  0.00    +0.000 A 
ATOM     26  C   UNL     1       4.586   5.191  18.812  0.00  0.00    +0.000 A 
ATOM     27  C   UNL     1       4.894   5.951  17.686  0.00  0.00    +0.000 A 
ATOM     28  C   UNL     1       4.092   7.044  17.334  0.00  0.00    +0.000 A 
ENDBRANCH  22  23
ENDBRANCH  20  22
ENDBRANCH   3  18
TORSDOF 4
ENDMDL
