MODEL 1
REMARK VINA RESULT:      -9.7      0.000      0.000
REMARK  Name = 
REMARK  5 active torsions:
REMARK  status: ('A' for Active; 'I' for Inactive)
REMARK    1  A    between atoms: C_1  and  O_2
REMARK    2  A    between atoms: O_2  and  C_3
REMARK    3  A    between atoms: C_8  and  C_9
REMARK    4  A    between atoms: N_16  and  C_17
REMARK    5  A    between atoms: C_20  and  C_21
REMARK                            x       y       z     vdW  Elec       q    Type
REMARK                         _______ _______ _______ _____ _____    ______ ____
ROOT
ATOM      1  C   UNL     1       4.068   3.670  17.870  0.00  0.00    +0.000 A 
ATOM      2  C   UNL     1       3.847   2.331  17.834  0.00  0.00    +0.000 A 
ATOM      3  C   UNL     1       2.988   1.650  18.785  0.00  0.00    +0.000 A 
ATOM      4  C   UNL     1       2.436   2.366  19.775  0.00  0.00    +0.000 A 
ATOM      5  N   UNL     1       2.609   3.746  19.807  0.00  0.00    +0.000 N 
ATOM      6  N   UNL     1       2.081   4.607  20.701  0.00  0.00    +0.000 NA
ATOM      7  C   UNL     1       2.357   5.798  20.168  0.00  0.00    +0.000 A 
ATOM      8  N   UNL     1       1.821   6.925  20.688  0.00  0.00    +0.000 N 
ATOM      9  N   UNL     1       3.182   5.746  19.070  0.00  0.00    +0.000 NA
ATOM     10  C   UNL     1       3.352   4.453  18.855  0.00  0.00    +0.000 A 
ATOM     11  H   UNL     1       1.239   6.726  21.493  0.00  0.00    +0.000 HD
ENDROOT
BRANCH   1  17
ATOM     12  C   UNL     1       6.433   4.543  17.428  0.00  0.00    +0.000 A 
ATOM     13  N   UNL     1       7.387   5.055  16.603  0.00  0.00    +0.000 NA
ATOM     14  C   UNL     1       7.072   5.209  15.302  0.00  0.00    +0.000 A 
ATOM     15  C   UNL     1       5.834   4.894  14.777  0.00  0.00    +0.000 A 
ATOM     16  C   UNL     1       4.881   4.347  15.633  0.00  0.00    +0.000 A 
ATOM     17  C   UNL     1       5.170   4.134  16.993  0.00  0.00    +0.000 A 
BRANCH  12  19
ATOM     18  C   UNL     1       7.368   5.684  19.237  0.00  0.00    +0.000 C 
ATOM     19  O   UNL     1       6.715   4.498  18.780  0.00  0.00    +0.000 OA
ENDBRANCH  12  19
ENDBRANCH   1  17
BRANCH   8  20
ATOM     20  C   UNL     1       1.568   8.208  20.164  0.00  0.00    +0.000 A 
ATOM     21  C   UNL     1       1.823   8.572  18.844  0.00  0.00    +0.000 A 
ATOM     22  C   UNL     1       1.482   9.852  18.349  0.00  0.00    +0.000 A 
ATOM     23  C   UNL     1       0.875  10.814  19.163  0.00  0.00    +0.000 A 
ATOM     24  C   UNL     1       0.668  10.465  20.509  0.00  0.00    +0.000 A 
ATOM     25  C   UNL     1       1.017   9.194  21.001  0.00  0.00    +0.000 A 
BRANCH  23  26
ATOM     26  C   UNL     1       0.316  12.145  18.651  0.00  0.00    +0.000 C 
ATOM     27  C   UNL     1       0.478  13.392  19.548  0.00  0.00    +0.000 C 
ATOM     28  C   UNL     1      -0.655  13.595  20.555  0.00  0.00    +0.000 C 
ATOM     29  N   UNL     1      -1.976  13.544  19.930  0.00  0.00    +0.000 NA
ATOM     30  C   UNL     1      -2.167  12.267  19.243  0.00  0.00    +0.000 C 
ATOM     31  C   UNL     1      -1.135  12.067  18.138  0.00  0.00    +0.000 C 
ATOM     32  H   UNL     1      -2.063  14.307  19.256  0.00  0.00    +0.000 HD
ENDBRANCH  23  26
ENDBRANCH   8  20
TORSDOF 4
ENDMDL
MODEL 2
REMARK VINA RESULT:      -9.5      1.046      1.612
REMARK  Name = 
REMARK  5 active torsions:
REMARK  status: ('A' for Active; 'I' for Inactive)
REMARK    1  A    between atoms: C_1  and  O_2
REMARK    2  A    between atoms: O_2  and  C_3
REMARK    3  A    between atoms: C_8  and  C_9
REMARK    4  A    between atoms: N_16  and  C_17
REMARK    5  A    between atoms: C_20  and  C_21
REMARK                            x       y       z     vdW  Elec       q    Type
REMARK                         _______ _______ _______ _____ _____    ______ ____
ROOT
ATOM      1  C   UNL     1       3.982   3.714  17.952  0.00  0.00    +0.000 A 
ATOM      2  C   UNL     1       3.746   2.378  17.944  0.00  0.00    +0.000 A 
ATOM      3  C   UNL     1       2.869   1.729  18.902  0.00  0.00    +0.000 A 
ATOM      4  C   UNL     1       2.316   2.474  19.869  0.00  0.00    +0.000 A 
ATOM      5  N   UNL     1       2.504   3.853  19.871  0.00  0.00    +0.000 N 
ATOM      6  N   UNL     1       1.977   4.740  20.739  0.00  0.00    +0.000 NA
ATOM      7  C   UNL     1       2.274   5.916  20.181  0.00  0.00    +0.000 A 
ATOM      8  N   UNL     1       1.745   7.060  20.669  0.00  0.00    +0.000 N 
ATOM      9  N   UNL     1       3.108   5.828  19.093  0.00  0.00    +0.000 NA
ATOM     10  C   UNL     1       3.266   4.528  18.911  0.00  0.00    +0.000 A 
ATOM     11  H   UNL     1       1.153   6.887  21.472  0.00  0.00    +0.000 HD
ENDROOT
BRANCH   1  17
ATOM     12  C   UNL     1       6.369   4.529  17.513  0.00  0.00    +0.000 A 
ATOM     13  N   UNL     1       7.338   5.011  16.687  0.00  0.00    +0.000 NA
ATOM     14  C   UNL     1       7.032   5.161  15.384  0.00  0.00    +0.000 A 
ATOM     15  C   UNL     1       5.790   4.869  14.856  0.00  0.00    +0.000 A 
ATOM     16  C   UNL     1       4.821   4.351  15.712  0.00  0.00    +0.000 A 
ATOM     17  C   UNL     1       5.099   4.145  17.075  0.00  0.00    +0.000 A 
BRANCH  12  19
ATOM     18  C   UNL     1       7.332   5.660  19.313  0.00  0.00    +0.000 C 
ATOM     19  O   UNL     1       6.643   4.490  18.867  0.00  0.00    +0.000 OA
ENDBRANCH  12  19
ENDBRANCH   1  17
BRANCH   8  20
ATOM     20  C   UNL     1       1.513   8.333  20.113  0.00  0.00    +0.000 A 
ATOM     21  C   UNL     1       0.918   9.387  20.804  0.00  0.00    +0.000 A 
ATOM     22  C   UNL     1       0.776  10.668  20.223  0.00  0.00    +0.000 A 
ATOM     23  C   UNL     1       1.224  10.938  18.925  0.00  0.00    +0.000 A 
ATOM     24  C   UNL     1       1.774   9.861  18.209  0.00  0.00    +0.000 A 
ATOM     25  C   UNL     1       1.906   8.585  18.787  0.00  0.00    +0.000 A 
BRANCH  23  26
ATOM     26  C   UNL     1       1.268  12.338  18.305  0.00  0.00    +0.000 C 
ATOM     27  C   UNL     1       2.634  13.055  18.231  0.00  0.00    +0.000 C 
ATOM     28  C   UNL     1       2.983  13.873  19.475  0.00  0.00    +0.000 C 
ATOM     29  N   UNL     1       1.910  14.787  19.864  0.00  0.00    +0.000 NA
ATOM     30  C   UNL     1       0.672  14.048  20.108  0.00  0.00    +0.000 C 
ATOM     31  C   UNL     1       0.206  13.309  18.857  0.00  0.00    +0.000 C 
ATOM     32  H   UNL     1       1.757  15.468  19.118  0.00  0.00    +0.000 HD
ENDBRANCH  23  26
ENDBRANCH   8  20
TORSDOF 4
ENDMDL
MODEL 3
REMARK VINA RESULT:      -9.0      3.313      9.700
REMARK  Name = 
REMARK  5 active torsions:
REMARK  status: ('A' for Active; 'I' for Inactive)
REMARK    1  A    between atoms: C_1  and  O_2
REMARK    2  A    between atoms: O_2  and  C_3
REMARK    3  A    between atoms: C_8  and  C_9
REMARK    4  A    between atoms: N_16  and  C_17
REMARK    5  A    between atoms: C_20  and  C_21
REMARK                            x       y       z     vdW  Elec       q    Type
REMARK                         _______ _______ _______ _____ _____    ______ ____
ROOT
ATOM      1  C   UNL     1      -1.099  12.149  19.086  0.00  0.00    +0.000 A 
ATOM      2  C   UNL     1      -0.944  13.484  19.280  0.00  0.00    +0.000 A 
ATOM      3  C   UNL     1      -0.052  14.035  20.283  0.00  0.00    +0.000 A 
ATOM      4  C   UNL     1       0.603  13.188  21.090  0.00  0.00    +0.000 A 
ATOM      5  N   UNL     1       0.498  11.817  20.882  0.00  0.00    +0.000 N 
ATOM      6  N   UNL     1       1.129  10.844  21.570  0.00  0.00    +0.000 NA
ATOM      7  C   UNL     1       0.872   9.752  20.848  0.00  0.00    +0.000 A 
ATOM      8  N   UNL     1       1.497   8.585  21.121  0.00  0.00    +0.000 N 
ATOM      9  N   UNL     1      -0.031   9.949  19.832  0.00  0.00    +0.000 NA
ATOM     10  C   UNL     1      -0.278  11.248  19.866  0.00  0.00    +0.000 A 
ATOM     11  H   UNL     1       2.125   8.671  21.910  0.00  0.00    +0.000 HD
ENDROOT
BRANCH   1  17
ATOM     12  C   UNL     1      -3.585  11.810  18.580  0.00  0.00    +0.000 A 
ATOM     13  N   UNL     1      -4.596  11.375  17.780  0.00  0.00    +0.000 NA
ATOM     14  C   UNL     1      -4.267  10.855  16.582  0.00  0.00    +0.000 A 
ATOM     15  C   UNL     1      -2.966  10.726  16.140  0.00  0.00    +0.000 A 
ATOM     16  C   UNL     1      -1.946  11.202  16.963  0.00  0.00    +0.000 A 
ATOM     17  C   UNL     1      -2.238  11.784  18.209  0.00  0.00    +0.000 A 
BRANCH  12  19
ATOM     18  C   UNL     1      -5.320  12.427  20.014  0.00  0.00    +0.000 C 
ATOM     19  O   UNL     1      -3.913  12.230  19.855  0.00  0.00    +0.000 OA
ENDBRANCH  12  19
ENDBRANCH   1  17
BRANCH   8  20
ATOM     20  C   UNL     1       1.771   7.432  20.358  0.00  0.00    +0.000 A 
ATOM     21  C   UNL     1       1.548   6.132  20.806  0.00  0.00    +0.000 A 
ATOM     22  C   UNL     1       1.771   5.012  19.973  0.00  0.00    +0.000 A 
ATOM     23  C   UNL     1       2.229   5.156  18.659  0.00  0.00    +0.000 A 
ATOM     24  C   UNL     1       2.505   6.464  18.225  0.00  0.00    +0.000 A 
ATOM     25  C   UNL     1       2.291   7.577  19.060  0.00  0.00    +0.000 A 
BRANCH  23  26
ATOM     26  C   UNL     1       2.317   4.009  17.648  0.00  0.00    +0.000 C 
ATOM     27  C   UNL     1       1.850   2.607  18.099  0.00  0.00    +0.000 C 
ATOM     28  C   UNL     1       2.939   1.765  18.766  0.00  0.00    +0.000 C 
ATOM     29  N   UNL     1       4.163   1.699  17.968  0.00  0.00    +0.000 NA
ATOM     30  C   UNL     1       4.682   3.043  17.716  0.00  0.00    +0.000 C 
ATOM     31  C   UNL     1       3.681   3.893  16.940  0.00  0.00    +0.000 C 
ATOM     32  H   UNL     1       3.964   1.241  17.078  0.00  0.00    +0.000 HD
ENDBRANCH  23  26
ENDBRANCH   8  20
TORSDOF 4
ENDMDL
MODEL 4
REMARK VINA RESULT:      -8.9      3.416      9.763
REMARK  Name = 
REMARK  5 active torsions:
REMARK  status: ('A' for Active; 'I' for Inactive)
REMARK    1  A    between atoms: C_1  and  O_2
REMARK    2  A    between atoms: O_2  and  C_3
REMARK    3  A    between atoms: C_8  and  C_9
REMARK    4  A    between atoms: N_16  and  C_17
REMARK    5  A    between atoms: C_20  and  C_21
REMARK                            x       y       z     vdW  Elec       q    Type
REMARK                         _______ _______ _______ _____ _____    ______ ____
ROOT
ATOM      1  C   UNL     1      -1.588  12.096  19.450  0.00  0.00    +0.000 A 
ATOM      2  C   UNL     1      -1.646  13.375  19.902  0.00  0.00    +0.000 A 
ATOM      3  C   UNL     1      -0.982  13.810  21.117  0.00  0.00    +0.000 A 
ATOM      4  C   UNL     1      -0.332  12.897  21.852  0.00  0.00    +0.000 A 
ATOM      5  N   UNL     1      -0.217  11.591  21.387  0.00  0.00    +0.000 N 
ATOM      6  N   UNL     1       0.443  10.576  21.981  0.00  0.00    +0.000 NA
ATOM      7  C   UNL     1       0.438   9.627  21.043  0.00  0.00    +0.000 A 
ATOM      8  N   UNL     1       1.176   8.505  21.196  0.00  0.00    +0.000 N 
ATOM      9  N   UNL     1      -0.338   9.923  19.948  0.00  0.00    +0.000 NA
ATOM     10  C   UNL     1      -0.763  11.153  20.175  0.00  0.00    +0.000 A 
ATOM     11  H   UNL     1       1.673   8.502  22.079  0.00  0.00    +0.000 HD
ENDROOT
BRANCH   1  17
ATOM     12  C   UNL     1      -3.930  11.802  18.460  0.00  0.00    +0.000 A 
ATOM     13  N   UNL     1      -4.768  11.420  17.457  0.00  0.00    +0.000 NA
ATOM     14  C   UNL     1      -4.213  10.968  16.316  0.00  0.00    +0.000 A 
ATOM     15  C   UNL     1      -2.851  10.857  16.124  0.00  0.00    +0.000 A 
ATOM     16  C   UNL     1      -2.010  11.278  17.152  0.00  0.00    +0.000 A 
ATOM     17  C   UNL     1      -2.537  11.789  18.352  0.00  0.00    +0.000 A 
BRANCH  12  19
ATOM     18  C   UNL     1      -5.628  13.010  19.510  0.00  0.00    +0.000 C 
ATOM     19  O   UNL     1      -4.498  12.151  19.671  0.00  0.00    +0.000 OA
ENDBRANCH  12  19
ENDBRANCH   1  17
BRANCH   8  20
ATOM     20  C   UNL     1       1.707   7.564  20.293  0.00  0.00    +0.000 A 
ATOM     21  C   UNL     1       2.154   7.883  19.012  0.00  0.00    +0.000 A 
ATOM     22  C   UNL     1       2.747   6.913  18.172  0.00  0.00    +0.000 A 
ATOM     23  C   UNL     1       2.911   5.586  18.584  0.00  0.00    +0.000 A 
ATOM     24  C   UNL     1       2.410   5.253  19.855  0.00  0.00    +0.000 A 
ATOM     25  C   UNL     1       1.812   6.219  20.686  0.00  0.00    +0.000 A 
BRANCH  23  26
ATOM     26  C   UNL     1       3.704   4.534  17.804  0.00  0.00    +0.000 C 
ATOM     27  C   UNL     1       2.915   3.414  17.090  0.00  0.00    +0.000 C 
ATOM     28  C   UNL     1       2.634   2.189  17.960  0.00  0.00    +0.000 C 
ATOM     29  N   UNL     1       3.839   1.674  18.610  0.00  0.00    +0.000 NA
ATOM     30  C   UNL     1       4.460   2.713  19.431  0.00  0.00    +0.000 C 
ATOM     31  C   UNL     1       4.878   3.915  18.589  0.00  0.00    +0.000 C 
ATOM     32  H   UNL     1       4.502   1.363  17.898  0.00  0.00    +0.000 HD
ENDBRANCH  23  26
ENDBRANCH   8  20
TORSDOF 4
ENDMDL
MODEL 5
REMARK VINA RESULT:      -8.9      0.580      1.075
REMARK  Name = 
REMARK  5 active torsions:
REMARK  status: ('A' for Active; 'I' for Inactive)
REMARK    1  A    between atoms: C_1  and  O_2
REMARK    2  A    between atoms: O_2  and  C_3
REMARK    3  A    between atoms: C_8  and  C_9
REMARK    4  A    between atoms: N_16  and  C_17
REMARK    5  A    between atoms: C_20  and  C_21
REMARK                            x       y       z     vdW  Elec       q    Type
REMARK                         _______ _______ _______ _____ _____    ______ ____
ROOT
ATOM      1  C   UNL     1       3.945   3.746  18.003  0.00  0.00    +0.000 A 
ATOM      2  C   UNL     1       3.720   2.421  17.808  0.00  0.00    +0.000 A 
ATOM      3  C   UNL     1       2.834   1.642  18.653  0.00  0.00    +0.000 A 
ATOM      4  C   UNL     1       2.259   2.244  19.704  0.00  0.00    +0.000 A 
ATOM      5  N   UNL     1       2.436   3.610  19.898  0.00  0.00    +0.000 N 
ATOM      6  N   UNL     1       1.889   4.367  20.871  0.00  0.00    +0.000 NA
ATOM      7  C   UNL     1       2.184   5.610  20.484  0.00  0.00    +0.000 A 
ATOM      8  N   UNL     1       1.638   6.673  21.116  0.00  0.00    +0.000 N 
ATOM      9  N   UNL     1       3.036   5.677  19.409  0.00  0.00    +0.000 NA
ATOM     10  C   UNL     1       3.207   4.416  19.052  0.00  0.00    +0.000 A 
ATOM     11  H   UNL     1       1.035   6.388  21.878  0.00  0.00    +0.000 HD
ENDROOT
BRANCH   1  17
ATOM     12  C   UNL     1       6.257   4.814  17.744  0.00  0.00    +0.000 A 
ATOM     13  N   UNL     1       7.227   5.402  16.992  0.00  0.00    +0.000 NA
ATOM     14  C   UNL     1       7.006   5.527  15.669  0.00  0.00    +0.000 A 
ATOM     15  C   UNL     1       5.845   5.108  15.050  0.00  0.00    +0.000 A 
ATOM     16  C   UNL     1       4.875   4.484  15.832  0.00  0.00    +0.000 A 
ATOM     17  C   UNL     1       5.071   4.299  17.212  0.00  0.00    +0.000 A 
BRANCH  12  19
ATOM     18  C   UNL     1       7.533   5.605  19.530  0.00  0.00    +0.000 C 
ATOM     19  O   UNL     1       6.432   4.795  19.114  0.00  0.00    +0.000 OA
ENDBRANCH  12  19
ENDBRANCH   1  17
BRANCH   8  20
ATOM     20  C   UNL     1       1.404   8.009  20.735  0.00  0.00    +0.000 A 
ATOM     21  C   UNL     1       1.019   9.013  21.621  0.00  0.00    +0.000 A 
ATOM     22  C   UNL     1       0.869  10.355  21.202  0.00  0.00    +0.000 A 
ATOM     23  C   UNL     1       1.099  10.738  19.876  0.00  0.00    +0.000 A 
ATOM     24  C   UNL     1       1.435   9.716  18.971  0.00  0.00    +0.000 A 
ATOM     25  C   UNL     1       1.574   8.379  19.390  0.00  0.00    +0.000 A 
BRANCH  23  26
ATOM     26  C   UNL     1       1.134  12.191  19.394  0.00  0.00    +0.000 C 
ATOM     27  C   UNL     1       1.008  13.309  20.452  0.00  0.00    +0.000 C 
ATOM     28  C   UNL     1      -0.432  13.716  20.770  0.00  0.00    +0.000 C 
ATOM     29  N   UNL     1      -1.207  14.017  19.567  0.00  0.00    +0.000 NA
ATOM     30  C   UNL     1      -1.222  12.865  18.666  0.00  0.00    +0.000 C 
ATOM     31  C   UNL     1       0.186  12.490  18.215  0.00  0.00    +0.000 C 
ATOM     32  H   UNL     1      -0.792  14.817  19.086  0.00  0.00    +0.000 HD
ENDBRANCH  23  26
ENDBRANCH   8  20
TORSDOF 4
ENDMDL
MODEL 6
REMARK VINA RESULT:      -8.9      0.855      1.308
REMARK  Name = 
REMARK  5 active torsions:
REMARK  status: ('A' for Active; 'I' for Inactive)
REMARK    1  A    between atoms: C_1  and  O_2
REMARK    2  A    between atoms: O_2  and  C_3
REMARK    3  A    between atoms: C_8  and  C_9
REMARK    4  A    between atoms: N_16  and  C_17
REMARK    5  A    between atoms: C_20  and  C_21
REMARK                            x       y       z     vdW  Elec       q    Type
REMARK                         _______ _______ _______ _____ _____    ______ ____
ROOT
ATOM      1  C   UNL     1       3.937   3.806  17.928  0.00  0.00    +0.000 A 
ATOM      2  C   UNL     1       3.719   2.494  17.654  0.00  0.00    +0.000 A 
ATOM      3  C   UNL     1       2.855   1.655  18.463  0.00  0.00    +0.000 A 
ATOM      4  C   UNL     1       2.296   2.183  19.561  0.00  0.00    +0.000 A 
ATOM      5  N   UNL     1       2.465   3.536  19.838  0.00  0.00    +0.000 N 
ATOM      6  N   UNL     1       1.930   4.224  20.867  0.00  0.00    +0.000 NA
ATOM      7  C   UNL     1       2.208   5.492  20.556  0.00  0.00    +0.000 A 
ATOM      8  N   UNL     1       1.665   6.508  21.263  0.00  0.00    +0.000 N 
ATOM      9  N   UNL     1       3.039   5.635  19.471  0.00  0.00    +0.000 NA
ATOM     10  C   UNL     1       3.213   4.401  19.032  0.00  0.00    +0.000 A 
ATOM     11  H   UNL     1       1.079   6.168  22.017  0.00  0.00    +0.000 HD
ENDROOT
BRANCH   1  17
ATOM     12  C   UNL     1       6.301   4.752  17.665  0.00  0.00    +0.000 A 
ATOM     13  N   UNL     1       7.258   5.403  16.948  0.00  0.00    +0.000 NA
ATOM     14  C   UNL     1       6.952   5.778  15.691  0.00  0.00    +0.000 A 
ATOM     15  C   UNL     1       5.721   5.554  15.109  0.00  0.00    +0.000 A 
ATOM     16  C   UNL     1       4.764   4.863  15.849  0.00  0.00    +0.000 A 
ATOM     17  C   UNL     1       5.044   4.419  17.154  0.00  0.00    +0.000 A 
BRANCH  12  19
ATOM     18  C   UNL     1       7.232   5.559  19.646  0.00  0.00    +0.000 C 
ATOM     19  O   UNL     1       6.572   4.475  18.991  0.00  0.00    +0.000 OA
ENDBRANCH  12  19
ENDBRANCH   1  17
BRANCH   8  20
ATOM     20  C   UNL     1       1.414   7.863  20.974  0.00  0.00    +0.000 A 
ATOM     21  C   UNL     1       1.416   8.396  19.686  0.00  0.00    +0.000 A 
ATOM     22  C   UNL     1       1.083   9.748  19.444  0.00  0.00    +0.000 A 
ATOM     23  C   UNL     1       0.739  10.617  20.485  0.00  0.00    +0.000 A 
ATOM     24  C   UNL     1       0.790  10.093  21.788  0.00  0.00    +0.000 A 
ATOM     25  C   UNL     1       1.130   8.748  22.028  0.00  0.00    +0.000 A 
BRANCH  23  26
ATOM     26  C   UNL     1       0.195  12.034  20.279  0.00  0.00    +0.000 C 
ATOM     27  C   UNL     1      -1.291  12.190  19.888  0.00  0.00    +0.000 C 
ATOM     28  C   UNL     1      -1.554  12.144  18.382  0.00  0.00    +0.000 C 
ATOM     29  N   UNL     1      -0.697  13.064  17.636  0.00  0.00    +0.000 NA
ATOM     30  C   UNL     1       0.713  12.766  17.886  0.00  0.00    +0.000 C 
ATOM     31  C   UNL     1       1.063  12.918  19.363  0.00  0.00    +0.000 C 
ATOM     32  H   UNL     1      -0.896  14.023  17.924  0.00  0.00    +0.000 HD
ENDBRANCH  23  26
ENDBRANCH   8  20
TORSDOF 4
ENDMDL
MODEL 7
REMARK VINA RESULT:      -8.8      2.963      9.731
REMARK  Name = 
REMARK  5 active torsions:
REMARK  status: ('A' for Active; 'I' for Inactive)
REMARK    1  A    between atoms: C_1  and  O_2
REMARK    2  A    between atoms: O_2  and  C_3
REMARK    3  A    between atoms: C_8  and  C_9
REMARK    4  A    between atoms: N_16  and  C_17
REMARK    5  A    between atoms: C_20  and  C_21
REMARK                            x       y       z     vdW  Elec       q    Type
REMARK                         _______ _______ _______ _____ _____    ______ ____
ROOT
ATOM      1  C   UNL     1      -2.225  12.415  20.121  0.00  0.00    +0.000 A 
ATOM      2  C   UNL     1      -2.315  13.693  20.572  0.00  0.00    +0.000 A 
ATOM      3  C   UNL     1      -1.490  14.206  21.649  0.00  0.00    +0.000 A 
ATOM      4  C   UNL     1      -0.644  13.367  22.262  0.00  0.00    +0.000 A 
ATOM      5  N   UNL     1      -0.498  12.066  21.789  0.00  0.00    +0.000 N 
ATOM      6  N   UNL     1       0.342  11.123  22.262  0.00  0.00    +0.000 NA
ATOM      7  C   UNL     1       0.256  10.159  21.343  0.00  0.00    +0.000 A 
ATOM      8  N   UNL     1       1.104   9.108  21.369  0.00  0.00    +0.000 N 
ATOM      9  N   UNL     1      -0.722  10.366  20.400  0.00  0.00    +0.000 NA
ATOM     10  C   UNL     1      -1.207  11.560  20.694  0.00  0.00    +0.000 A 
ATOM     11  H   UNL     1       1.747   9.164  22.150  0.00  0.00    +0.000 HD
ENDROOT
BRANCH   1  17
ATOM     12  C   UNL     1      -3.152  11.489  17.922  0.00  0.00    +0.000 A 
ATOM     13  N   UNL     1      -4.183  11.217  17.076  0.00  0.00    +0.000 NA
ATOM     14  C   UNL     1      -5.430  11.505  17.497  0.00  0.00    +0.000 A 
ATOM     15  C   UNL     1      -5.706  12.074  18.725  0.00  0.00    +0.000 A 
ATOM     16  C   UNL     1      -4.639  12.320  19.586  0.00  0.00    +0.000 A 
ATOM     17  C   UNL     1      -3.321  12.008  19.209  0.00  0.00    +0.000 A 
BRANCH  12  19
ATOM     18  C   UNL     1      -1.599   9.941  17.124  0.00  0.00    +0.000 C 
ATOM     19  O   UNL     1      -1.868  11.307  17.444  0.00  0.00    +0.000 OA
ENDBRANCH  12  19
ENDBRANCH   1  17
BRANCH   8  20
ATOM     20  C   UNL     1       1.549   8.198  20.389  0.00  0.00    +0.000 A 
ATOM     21  C   UNL     1       1.871   8.559  19.082  0.00  0.00    +0.000 A 
ATOM     22  C   UNL     1       2.385   7.620  18.159  0.00  0.00    +0.000 A 
ATOM     23  C   UNL     1       2.591   6.282  18.513  0.00  0.00    +0.000 A 
ATOM     24  C   UNL     1       2.216   5.907  19.814  0.00  0.00    +0.000 A 
ATOM     25  C   UNL     1       1.696   6.842  20.729  0.00  0.00    +0.000 A 
BRANCH  23  26
ATOM     26  C   UNL     1       3.310   5.259  17.627  0.00  0.00    +0.000 C 
ATOM     27  C   UNL     1       3.234   3.771  18.032  0.00  0.00    +0.000 C 
ATOM     28  C   UNL     1       4.330   3.324  19.000  0.00  0.00    +0.000 C 
ATOM     29  N   UNL     1       5.668   3.694  18.539  0.00  0.00    +0.000 NA
ATOM     30  C   UNL     1       5.760   5.141  18.344  0.00  0.00    +0.000 C 
ATOM     31  C   UNL     1       4.768   5.627  17.292  0.00  0.00    +0.000 C 
ATOM     32  H   UNL     1       5.867   3.220  17.656  0.00  0.00    +0.000 HD
ENDBRANCH  23  26
ENDBRANCH   8  20
TORSDOF 4
ENDMDL
MODEL 8
REMARK VINA RESULT:      -8.7      3.227      9.706
REMARK  Name = 
REMARK  5 active torsions:
REMARK  status: ('A' for Active; 'I' for Inactive)
REMARK    1  A    between atoms: C_1  and  O_2
REMARK    2  A    between atoms: O_2  and  C_3
REMARK    3  A    between atoms: C_8  and  C_9
REMARK    4  A    between atoms: N_16  and  C_17
REMARK    5  A    between atoms: C_20  and  C_21
REMARK                            x       y       z     vdW  Elec       q    Type
REMARK                         _______ _______ _______ _____ _____    ______ ____
ROOT
ATOM      1  C   UNL     1      -1.444  12.193  19.533  0.00  0.00    +0.000 A 
ATOM      2  C   UNL     1      -1.269  13.539  19.536  0.00  0.00    +0.000 A 
ATOM      3  C   UNL     1      -0.142  14.184  20.185  0.00  0.00    +0.000 A 
ATOM      4  C   UNL     1       0.731  13.420  20.858  0.00  0.00    +0.000 A 
ATOM      5  N   UNL     1       0.600  12.036  20.831  0.00  0.00    +0.000 N 
ATOM      6  N   UNL     1       1.419  11.134  21.411  0.00  0.00    +0.000 NA
ATOM      7  C   UNL     1       0.992   9.975  20.907  0.00  0.00    +0.000 A 
ATOM      8  N   UNL     1       1.692   8.837  21.112  0.00  0.00    +0.000 N 
ATOM      9  N   UNL     1      -0.165  10.074  20.171  0.00  0.00    +0.000 NA
ATOM     10  C   UNL     1      -0.418  11.370  20.139  0.00  0.00    +0.000 A 
ATOM     11  H   UNL     1       2.515   9.001  21.679  0.00  0.00    +0.000 HD
ENDROOT
BRANCH   1  17
ATOM     12  C   UNL     1      -3.008  10.960  17.925  0.00  0.00    +0.000 A 
ATOM     13  N   UNL     1      -4.251  10.653  17.462  0.00  0.00    +0.000 NA
ATOM     14  C   UNL     1      -5.308  11.175  18.113  0.00  0.00    +0.000 A 
ATOM     15  C   UNL     1      -5.191  12.014  19.204  0.00  0.00    +0.000 A 
ATOM     16  C   UNL     1      -3.912  12.295  19.678  0.00  0.00    +0.000 A 
ATOM     17  C   UNL     1      -2.776  11.748  19.055  0.00  0.00    +0.000 A 
BRANCH  12  19
ATOM     18  C   UNL     1      -2.318   9.917  15.955  0.00  0.00    +0.000 C 
ATOM     19  O   UNL     1      -1.924  10.523  17.187  0.00  0.00    +0.000 OA
ENDBRANCH  12  19
ENDBRANCH   1  17
BRANCH   8  20
ATOM     20  C   UNL     1       1.765   7.609  20.426  0.00  0.00    +0.000 A 
ATOM     21  C   UNL     1       1.359   6.391  20.968  0.00  0.00    +0.000 A 
ATOM     22  C   UNL     1       1.383   5.198  20.210  0.00  0.00    +0.000 A 
ATOM     23  C   UNL     1       1.820   5.182  18.881  0.00  0.00    +0.000 A 
ATOM     24  C   UNL     1       2.280   6.400  18.352  0.00  0.00    +0.000 A 
ATOM     25  C   UNL     1       2.263   7.585  19.112  0.00  0.00    +0.000 A 
BRANCH  23  26
ATOM     26  C   UNL     1       1.702   3.971  17.951  0.00  0.00    +0.000 C 
ATOM     27  C   UNL     1       1.036   2.693  18.506  0.00  0.00    +0.000 C 
ATOM     28  C   UNL     1       1.999   1.737  19.212  0.00  0.00    +0.000 C 
ATOM     29  N   UNL     1       3.176   1.428  18.401  0.00  0.00    +0.000 NA
ATOM     30  C   UNL     1       3.890   2.654  18.048  0.00  0.00    +0.000 C 
ATOM     31  C   UNL     1       3.012   3.597  17.230  0.00  0.00    +0.000 C 
ATOM     32  H   UNL     1       2.884   0.948  17.547  0.00  0.00    +0.000 HD
ENDBRANCH  23  26
ENDBRANCH   8  20
TORSDOF 4
ENDMDL
MODEL 9
REMARK VINA RESULT:      -8.7      3.312      9.816
REMARK  Name = 
REMARK  5 active torsions:
REMARK  status: ('A' for Active; 'I' for Inactive)
REMARK    1  A    between atoms: C_1  and  O_2
REMARK    2  A    between atoms: O_2  and  C_3
REMARK    3  A    between atoms: C_8  and  C_9
REMARK    4  A    between atoms: N_16  and  C_17
REMARK    5  A    between atoms: C_20  and  C_21
REMARK                            x       y       z     vdW  Elec       q    Type
REMARK                         _______ _______ _______ _____ _____    ______ ____
ROOT
ATOM      1  C   UNL     1      -1.808  12.294  19.772  0.00  0.00    +0.000 A 
ATOM      2  C   UNL     1      -1.854  13.563  20.252  0.00  0.00    +0.000 A 
ATOM      3  C   UNL     1      -1.125  13.984  21.434  0.00  0.00    +0.000 A 
ATOM      4  C   UNL     1      -0.422  13.065  22.112  0.00  0.00    +0.000 A 
ATOM      5  N   UNL     1      -0.320  11.770  21.616  0.00  0.00    +0.000 N 
ATOM      6  N   UNL     1       0.386  10.752  22.150  0.00  0.00    +0.000 NA
ATOM      7  C   UNL     1       0.336   9.821  21.195  0.00  0.00    +0.000 A 
ATOM      8  N   UNL     1       1.094   8.705  21.284  0.00  0.00    +0.000 N 
ATOM      9  N   UNL     1      -0.507  10.127  20.154  0.00  0.00    +0.000 NA
ATOM     10  C   UNL     1      -0.932  11.348  20.430  0.00  0.00    +0.000 A 
ATOM     11  H   UNL     1       1.643   8.692  22.135  0.00  0.00    +0.000 HD
ENDROOT
BRANCH   1  17
ATOM     12  C   UNL     1      -4.199  11.945  18.927  0.00  0.00    +0.000 A 
ATOM     13  N   UNL     1      -5.088  11.573  17.965  0.00  0.00    +0.000 NA
ATOM     14  C   UNL     1      -4.595  11.195  16.770  0.00  0.00    +0.000 A 
ATOM     15  C   UNL     1      -3.245  11.150  16.484  0.00  0.00    +0.000 A 
ATOM     16  C   UNL     1      -2.353  11.560  17.472  0.00  0.00    +0.000 A 
ATOM     17  C   UNL     1      -2.817  11.996  18.727  0.00  0.00    +0.000 A 
BRANCH  12  19
ATOM     18  C   UNL     1      -6.100  11.966  20.280  0.00  0.00    +0.000 C 
ATOM     19  O   UNL     1      -4.696  12.217  20.187  0.00  0.00    +0.000 OA
ENDBRANCH  12  19
ENDBRANCH   1  17
BRANCH   8  20
ATOM     20  C   UNL     1       1.581   7.788  20.333  0.00  0.00    +0.000 A 
ATOM     21  C   UNL     1       2.037   8.149  19.067  0.00  0.00    +0.000 A 
ATOM     22  C   UNL     1       2.586   7.198  18.177  0.00  0.00    +0.000 A 
ATOM     23  C   UNL     1       2.694   5.847  18.524  0.00  0.00    +0.000 A 
ATOM     24  C   UNL     1       2.183   5.473  19.779  0.00  0.00    +0.000 A 
ATOM     25  C   UNL     1       1.630   6.422  20.659  0.00  0.00    +0.000 A 
BRANCH  23  26
ATOM     26  C   UNL     1       3.439   4.801  17.689  0.00  0.00    +0.000 C 
ATOM     27  C   UNL     1       3.836   3.475  18.374  0.00  0.00    +0.000 C 
ATOM     28  C   UNL     1       5.194   3.511  19.076  0.00  0.00    +0.000 C 
ATOM     29  N   UNL     1       6.259   4.014  18.209  0.00  0.00    +0.000 NA
ATOM     30  C   UNL     1       5.933   5.356  17.725  0.00  0.00    +0.000 C 
ATOM     31  C   UNL     1       4.645   5.357  16.907  0.00  0.00    +0.000 C 
ATOM     32  H   UNL     1       6.375   3.386  17.412  0.00  0.00    +0.000 HD
ENDBRANCH  23  26
ENDBRANCH   8  20
TORSDOF 4
ENDMDL
