MODEL 1
REMARK VINA RESULT:      -7.6      0.000      0.000
REMARK  Name = 
REMARK  8 active torsions:
REMARK  status: ('A' for Active; 'I' for Inactive)
REMARK    1  A    between atoms: C_1  and  C_2
REMARK    2  A    between atoms: C_4  and  C_5
REMARK    3  A    between atoms: C_6  and  C_7
REMARK    4  A    between atoms: C_8  and  N_9
REMARK    5  A    between atoms: N_9  and  C_10
REMARK    6  A    between atoms: C_10  and  C_11
REMARK    7  A    between atoms: C_11  and  S_12
REMARK    8  A    between atoms: S_12  and  N_13
REMARK                            x       y       z     vdW  Elec       q    Type
REMARK                         _______ _______ _______ _____ _____    ______ ____
ROOT
ATOM      1  N   UNL     1       4.751   4.051  18.727  0.00  0.00    +0.000 N 
ATOM      2  H   UNL     1       4.503   3.159  18.294  0.00  0.00    +0.000 HD
ENDROOT
BRANCH   1  10
ATOM      3  C   UNL     1       8.043   7.493  18.292  0.00  0.00    +0.000 C 
ATOM      4  C   UNL     1       7.201   6.426  17.664  0.00  0.00    +0.000 A 
ATOM      5  N   UNL     1       7.414   6.153  16.370  0.00  0.00    +0.000 NA
ATOM      6  C   UNL     1       6.679   5.162  15.824  0.00  0.00    +0.000 A 
ATOM      7  C   UNL     1       6.940   4.895  14.370  0.00  0.00    +0.000 C 
ATOM      8  C   UNL     1       5.742   4.435  16.552  0.00  0.00    +0.000 A 
ATOM      9  C   UNL     1       4.887   3.376  15.921  0.00  0.00    +0.000 C 
ATOM     10  C   UNL     1       5.587   4.804  17.891  0.00  0.00    +0.000 A 
ATOM     11  N   UNL     1       6.306   5.797  18.442  0.00  0.00    +0.000 NA
ENDBRANCH   1  10
BRANCH   1  12
ATOM     12  C   UNL     1       3.581   4.725  19.290  0.00  0.00    +0.000 C 
BRANCH  12  13
ATOM     13  C   UNL     1       2.488   3.757  19.760  0.00  0.00    +0.000 C 
ATOM     14  C   UNL     1       2.968   2.783  20.880  0.00  0.00    +0.000 C 
ATOM     15  C   UNL     1       1.628   3.012  21.602  0.00  0.00    +0.000 C 
ATOM     16  C   UNL     1       1.473   4.319  20.802  0.00  0.00    +0.000 C 
BRANCH  13  17
ATOM     17  S   UNL     1       1.681   2.882  18.364  0.00  0.00    +0.000 S 
ATOM     18  O   UNL     1       0.409   2.332  18.775  0.00  0.00    +0.000 OA
ATOM     19  O   UNL     1       1.779   3.705  17.177  0.00  0.00    +0.000 OA
BRANCH  17  20
ATOM     20  N   UNL     1       2.635   1.550  18.028  0.00  0.00    +0.000 NA
ATOM     21  H   UNL     1       2.912   1.413  17.060  0.00  0.00    +0.000 HD
ATOM     22  H   UNL     1       2.573   0.762  18.668  0.00  0.00    +0.000 HD
ENDBRANCH  17  20
ENDBRANCH  13  17
ENDBRANCH  12  13
ENDBRANCH   1  12
TORSDOF 5
ENDMDL
MODEL 2
REMARK VINA RESULT:      -7.5      1.732      2.290
REMARK  Name = 
REMARK  8 active torsions:
REMARK  status: ('A' for Active; 'I' for Inactive)
REMARK    1  A    between atoms: C_1  and  C_2
REMARK    2  A    between atoms: C_4  and  C_5
REMARK    3  A    between atoms: C_6  and  C_7
REMARK    4  A    between atoms: C_8  and  N_9
REMARK    5  A    between atoms: N_9  and  C_10
REMARK    6  A    between atoms: C_10  and  C_11
REMARK    7  A    between atoms: C_11  and  S_12
REMARK    8  A    between atoms: S_12  and  N_13
REMARK                            x       y       z     vdW  Elec       q    Type
REMARK                         _______ _______ _______ _____ _____    ______ ____
ROOT
ATOM      1  N   UNL     1       5.565   3.763  18.756  0.00  0.00    +0.000 N 
ATOM      2  H   UNL     1       5.298   2.892  18.291  0.00  0.00    +0.000 HD
ENDROOT
BRANCH   1  10
ATOM      3  C   UNL     1       8.032   7.795  18.033  0.00  0.00    +0.000 C 
ATOM      4  C   UNL     1       7.358   6.579  17.480  0.00  0.00    +0.000 A 
ATOM      5  N   UNL     1       7.478   6.350  16.165  0.00  0.00    +0.000 NA
ATOM      6  C   UNL     1       6.902   5.229  15.683  0.00  0.00    +0.000 A 
ATOM      7  C   UNL     1       7.050   5.015  14.205  0.00  0.00    +0.000 C 
ATOM      8  C   UNL     1       6.215   4.331  16.494  0.00  0.00    +0.000 A 
ATOM      9  C   UNL     1       5.526   3.119  15.940  0.00  0.00    +0.000 C 
ATOM     10  C   UNL     1       6.137   4.665  17.849  0.00  0.00    +0.000 A 
ATOM     11  N   UNL     1       6.698   5.785  18.338  0.00  0.00    +0.000 NA
ENDBRANCH   1  10
BRANCH   1  12
ATOM     12  C   UNL     1       4.501   4.265  19.624  0.00  0.00    +0.000 C 
BRANCH  12  13
ATOM     13  C   UNL     1       3.161   3.546  19.423  0.00  0.00    +0.000 C 
ATOM     14  C   UNL     1       2.558   3.753  17.999  0.00  0.00    +0.000 C 
ATOM     15  C   UNL     1       2.182   2.261  17.981  0.00  0.00    +0.000 C 
ATOM     16  C   UNL     1       3.242   2.028  19.074  0.00  0.00    +0.000 C 
BRANCH  13  17
ATOM     17  S   UNL     1       1.959   3.918  20.757  0.00  0.00    +0.000 S 
ATOM     18  O   UNL     1       0.609   3.924  20.240  0.00  0.00    +0.000 OA
ATOM     19  O   UNL     1       2.298   3.130  21.924  0.00  0.00    +0.000 OA
BRANCH  17  20
ATOM     20  N   UNL     1       2.247   5.498  21.224  0.00  0.00    +0.000 NA
ATOM     21  H   UNL     1       1.776   5.825  22.062  0.00  0.00    +0.000 HD
ATOM     22  H   UNL     1       2.529   6.151  20.497  0.00  0.00    +0.000 HD
ENDBRANCH  17  20
ENDBRANCH  13  17
ENDBRANCH  12  13
ENDBRANCH   1  12
TORSDOF 5
ENDMDL
MODEL 3
REMARK VINA RESULT:      -7.5      1.684      1.921
REMARK  Name = 
REMARK  8 active torsions:
REMARK  status: ('A' for Active; 'I' for Inactive)
REMARK    1  A    between atoms: C_1  and  C_2
REMARK    2  A    between atoms: C_4  and  C_5
REMARK    3  A    between atoms: C_6  and  C_7
REMARK    4  A    between atoms: C_8  and  N_9
REMARK    5  A    between atoms: N_9  and  C_10
REMARK    6  A    between atoms: C_10  and  C_11
REMARK    7  A    between atoms: C_11  and  S_12
REMARK    8  A    between atoms: S_12  and  N_13
REMARK                            x       y       z     vdW  Elec       q    Type
REMARK                         _______ _______ _______ _____ _____    ______ ____
ROOT
ATOM      1  N   UNL     1       3.719   5.928  18.176  0.00  0.00    +0.000 N 
ATOM      2  H   UNL     1       3.133   6.762  18.100  0.00  0.00    +0.000 HD
ENDROOT
BRANCH   1  10
ATOM      3  C   UNL     1       7.909   8.186  17.713  0.00  0.00    +0.000 C 
ATOM      4  C   UNL     1       6.955   7.130  17.250  0.00  0.00    +0.000 A 
ATOM      5  N   UNL     1       7.372   6.301  16.283  0.00  0.00    +0.000 NA
ATOM      6  C   UNL     1       6.521   5.327  15.901  0.00  0.00    +0.000 A 
ATOM      7  C   UNL     1       7.022   4.427  14.810  0.00  0.00    +0.000 C 
ATOM      8  C   UNL     1       5.263   5.164  16.474  0.00  0.00    +0.000 A 
ATOM      9  C   UNL     1       4.299   4.117  16.000  0.00  0.00    +0.000 C 
ATOM     10  C   UNL     1       4.917   6.086  17.466  0.00  0.00    +0.000 A 
ATOM     11  N   UNL     1       5.754   7.068  17.846  0.00  0.00    +0.000 NA
ENDBRANCH   1  10
BRANCH   1  12
ATOM     12  C   UNL     1       3.814   5.452  19.556  0.00  0.00    +0.000 C 
BRANCH  12  13
ATOM     13  C   UNL     1       2.932   4.229  19.839  0.00  0.00    +0.000 C 
ATOM     14  C   UNL     1       2.058   4.384  21.121  0.00  0.00    +0.000 C 
ATOM     15  C   UNL     1       0.881   3.760  20.350  0.00  0.00    +0.000 C 
ATOM     16  C   UNL     1       1.595   4.146  19.041  0.00  0.00    +0.000 C 
BRANCH  13  17
ATOM     17  S   UNL     1       3.884   2.661  19.820  0.00  0.00    +0.000 S 
ATOM     18  O   UNL     1       4.102   2.181  21.167  0.00  0.00    +0.000 OA
ATOM     19  O   UNL     1       3.328   1.788  18.808  0.00  0.00    +0.000 OA
BRANCH  17  20
ATOM     20  N   UNL     1       5.409   3.043  19.249  0.00  0.00    +0.000 NA
ATOM     21  H   UNL     1       6.196   2.819  19.850  0.00  0.00    +0.000 HD
ATOM     22  H   UNL     1       5.473   3.793  18.565  0.00  0.00    +0.000 HD
ENDBRANCH  17  20
ENDBRANCH  13  17
ENDBRANCH  12  13
ENDBRANCH   1  12
TORSDOF 5
ENDMDL
MODEL 4
REMARK VINA RESULT:      -7.4      1.930      2.191
REMARK  Name = 
REMARK  8 active torsions:
REMARK  status: ('A' for Active; 'I' for Inactive)
REMARK    1  A    between atoms: C_1  and  C_2
REMARK    2  A    between atoms: C_4  and  C_5
REMARK    3  A    between atoms: C_6  and  C_7
REMARK    4  A    between atoms: C_8  and  N_9
REMARK    5  A    between atoms: N_9  and  C_10
REMARK    6  A    between atoms: C_10  and  C_11
REMARK    7  A    between atoms: C_11  and  S_12
REMARK    8  A    between atoms: S_12  and  N_13
REMARK                            x       y       z     vdW  Elec       q    Type
REMARK                         _______ _______ _______ _____ _____    ______ ____
ROOT
ATOM      1  N   UNL     1       5.559   3.787  18.794  0.00  0.00    +0.000 N 
ATOM      2  H   UNL     1       5.346   2.889  18.354  0.00  0.00    +0.000 HD
ENDROOT
BRANCH   1  10
ATOM      3  C   UNL     1       8.025   7.808  18.006  0.00  0.00    +0.000 C 
ATOM      4  C   UNL     1       7.343   6.587  17.472  0.00  0.00    +0.000 A 
ATOM      5  N   UNL     1       7.448   6.346  16.158  0.00  0.00    +0.000 NA
ATOM      6  C   UNL     1       6.864   5.222  15.693  0.00  0.00    +0.000 A 
ATOM      7  C   UNL     1       6.996   4.995  14.215  0.00  0.00    +0.000 C 
ATOM      8  C   UNL     1       6.185   4.333  16.520  0.00  0.00    +0.000 A 
ATOM      9  C   UNL     1       5.487   3.118  15.984  0.00  0.00    +0.000 C 
ATOM     10  C   UNL     1       6.122   4.680  17.872  0.00  0.00    +0.000 A 
ATOM     11  N   UNL     1       6.691   5.803  18.345  0.00  0.00    +0.000 NA
ENDBRANCH   1  10
BRANCH   1  12
ATOM     12  C   UNL     1       4.443   4.273  19.605  0.00  0.00    +0.000 C 
BRANCH  12  13
ATOM     13  C   UNL     1       3.163   3.444  19.438  0.00  0.00    +0.000 C 
ATOM     14  C   UNL     1       2.426   3.712  18.090  0.00  0.00    +0.000 C 
ATOM     15  C   UNL     1       2.189   2.197  17.960  0.00  0.00    +0.000 C 
ATOM     16  C   UNL     1       3.354   1.977  18.943  0.00  0.00    +0.000 C 
BRANCH  13  17
ATOM     17  S   UNL     1       2.049   3.577  20.889  0.00  0.00    +0.000 S 
ATOM     18  O   UNL     1       2.337   2.536  21.851  0.00  0.00    +0.000 OA
ATOM     19  O   UNL     1       1.983   4.963  21.302  0.00  0.00    +0.000 OA
BRANCH  17  20
ATOM     20  N   UNL     1       0.509   3.234  20.334  0.00  0.00    +0.000 NA
ATOM     21  H   UNL     1       0.078   3.917  19.719  0.00  0.00    +0.000 HD
ATOM     22  H   UNL     1      -0.061   2.614  20.904  0.00  0.00    +0.000 HD
ENDBRANCH  17  20
ENDBRANCH  13  17
ENDBRANCH  12  13
ENDBRANCH   1  12
TORSDOF 5
ENDMDL
MODEL 5
REMARK VINA RESULT:      -7.4      3.237      6.142
REMARK  Name = 
REMARK  8 active torsions:
REMARK  status: ('A' for Active; 'I' for Inactive)
REMARK    1  A    between atoms: C_1  and  C_2
REMARK    2  A    between atoms: C_4  and  C_5
REMARK    3  A    between atoms: C_6  and  C_7
REMARK    4  A    between atoms: C_8  and  N_9
REMARK    5  A    between atoms: N_9  and  C_10
REMARK    6  A    between atoms: C_10  and  C_11
REMARK    7  A    between atoms: C_11  and  S_12
REMARK    8  A    between atoms: S_12  and  N_13
REMARK                            x       y       z     vdW  Elec       q    Type
REMARK                         _______ _______ _______ _____ _____    ______ ____
ROOT
ATOM      1  N   UNL     1       3.421   4.523  17.315  0.00  0.00    +0.000 N 
ATOM      2  H   UNL     1       2.787   4.060  16.660  0.00  0.00    +0.000 HD
ENDROOT
BRANCH   1  10
ATOM      3  C   UNL     1       1.665   3.020  21.502  0.00  0.00    +0.000 C 
ATOM      4  C   UNL     1       1.956   4.140  20.552  0.00  0.00    +0.000 A 
ATOM      5  N   UNL     1       1.714   5.388  20.976  0.00  0.00    +0.000 NA
ATOM      6  C   UNL     1       2.018   6.392  20.129  0.00  0.00    +0.000 A 
ATOM      7  C   UNL     1       1.723   7.773  20.637  0.00  0.00    +0.000 C 
ATOM      8  C   UNL     1       2.565   6.170  18.869  0.00  0.00    +0.000 A 
ATOM      9  C   UNL     1       2.843   7.290  17.910  0.00  0.00    +0.000 C 
ATOM     10  C   UNL     1       2.769   4.834  18.516  0.00  0.00    +0.000 A 
ATOM     11  N   UNL     1       2.459   3.824  19.348  0.00  0.00    +0.000 NA
ENDBRANCH   1  10
BRANCH   1  12
ATOM     12  C   UNL     1       4.706   3.831  17.408  0.00  0.00    +0.000 C 
BRANCH  12  13
ATOM     13  C   UNL     1       5.833   4.536  16.641  0.00  0.00    +0.000 C 
ATOM     14  C   UNL     1       6.337   3.727  15.406  0.00  0.00    +0.000 C 
ATOM     15  C   UNL     1       6.375   5.043  14.607  0.00  0.00    +0.000 C 
ATOM     16  C   UNL     1       5.392   5.639  15.631  0.00  0.00    +0.000 C 
BRANCH  13  17
ATOM     17  S   UNL     1       7.201   5.068  17.741  0.00  0.00    +0.000 S 
ATOM     18  O   UNL     1       8.294   4.123  17.689  0.00  0.00    +0.000 OA
ATOM     19  O   UNL     1       7.440   6.482  17.540  0.00  0.00    +0.000 OA
BRANCH  17  20
ATOM     20  N   UNL     1       6.617   4.963  19.305  0.00  0.00    +0.000 NA
ATOM     21  H   UNL     1       5.907   5.636  19.578  0.00  0.00    +0.000 HD
ATOM     22  H   UNL     1       7.226   4.538  19.999  0.00  0.00    +0.000 HD
ENDBRANCH  17  20
ENDBRANCH  13  17
ENDBRANCH  12  13
ENDBRANCH   1  12
TORSDOF 5
ENDMDL
MODEL 6
REMARK VINA RESULT:      -7.4      0.853      1.046
REMARK  Name = 
REMARK  8 active torsions:
REMARK  status: ('A' for Active; 'I' for Inactive)
REMARK    1  A    between atoms: C_1  and  C_2
REMARK    2  A    between atoms: C_4  and  C_5
REMARK    3  A    between atoms: C_6  and  C_7
REMARK    4  A    between atoms: C_8  and  N_9
REMARK    5  A    between atoms: N_9  and  C_10
REMARK    6  A    between atoms: C_10  and  C_11
REMARK    7  A    between atoms: C_11  and  S_12
REMARK    8  A    between atoms: S_12  and  N_13
REMARK                            x       y       z     vdW  Elec       q    Type
REMARK                         _______ _______ _______ _____ _____    ______ ____
ROOT
ATOM      1  N   UNL     1       4.924   3.822  18.547  0.00  0.00    +0.000 N 
ATOM      2  H   UNL     1       4.502   3.068  18.000  0.00  0.00    +0.000 HD
ENDROOT
BRANCH   1  10
ATOM      3  C   UNL     1       7.988   7.481  18.241  0.00  0.00    +0.000 C 
ATOM      4  C   UNL     1       7.224   6.379  17.576  0.00  0.00    +0.000 A 
ATOM      5  N   UNL     1       7.466   6.157  16.277  0.00  0.00    +0.000 NA
ATOM      6  C   UNL     1       6.803   5.135  15.696  0.00  0.00    +0.000 A 
ATOM      7  C   UNL     1       7.094   4.926  14.239  0.00  0.00    +0.000 C 
ATOM      8  C   UNL     1       5.908   4.329  16.394  0.00  0.00    +0.000 A 
ATOM      9  C   UNL     1       5.130   3.234  15.725  0.00  0.00    +0.000 C 
ATOM     10  C   UNL     1       5.717   4.650  17.741  0.00  0.00    +0.000 A 
ATOM     11  N   UNL     1       6.364   5.673  18.327  0.00  0.00    +0.000 NA
ENDBRANCH   1  10
BRANCH   1  12
ATOM     12  C   UNL     1       3.946   4.471  19.421  0.00  0.00    +0.000 C 
BRANCH  12  13
ATOM     13  C   UNL     1       2.792   3.549  19.834  0.00  0.00    +0.000 C 
ATOM     14  C   UNL     1       3.137   2.640  21.054  0.00  0.00    +0.000 C 
ATOM     15  C   UNL     1       1.736   2.932  21.621  0.00  0.00    +0.000 C 
ATOM     16  C   UNL     1       1.689   4.189  20.732  0.00  0.00    +0.000 C 
BRANCH  13  17
ATOM     17  S   UNL     1       2.112   2.601  18.419  0.00  0.00    +0.000 S 
ATOM     18  O   UNL     1       3.058   1.602  17.973  0.00  0.00    +0.000 OA
ATOM     19  O   UNL     1       0.742   2.238  18.713  0.00  0.00    +0.000 OA
BRANCH  17  20
ATOM     20  N   UNL     1       1.993   3.678  17.144  0.00  0.00    +0.000 NA
ATOM     21  H   UNL     1       2.862   3.993  16.724  0.00  0.00    +0.000 HD
ATOM     22  H   UNL     1       1.156   4.253  17.101  0.00  0.00    +0.000 HD
ENDBRANCH  17  20
ENDBRANCH  13  17
ENDBRANCH  12  13
ENDBRANCH   1  12
TORSDOF 5
ENDMDL
MODEL 7
REMARK VINA RESULT:      -7.4      3.326      5.885
REMARK  Name = 
REMARK  8 active torsions:
REMARK  status: ('A' for Active; 'I' for Inactive)
REMARK    1  A    between atoms: C_1  and  C_2
REMARK    2  A    between atoms: C_4  and  C_5
REMARK    3  A    between atoms: C_6  and  C_7
REMARK    4  A    between atoms: C_8  and  N_9
REMARK    5  A    between atoms: N_9  and  C_10
REMARK    6  A    between atoms: C_10  and  C_11
REMARK    7  A    between atoms: C_11  and  S_12
REMARK    8  A    between atoms: S_12  and  N_13
REMARK                            x       y       z     vdW  Elec       q    Type
REMARK                         _______ _______ _______ _____ _____    ______ ____
ROOT
ATOM      1  N   UNL     1       4.041   4.948  17.486  0.00  0.00    +0.000 N 
ATOM      2  H   UNL     1       4.601   4.093  17.517  0.00  0.00    +0.000 HD
ENDROOT
BRANCH   1  10
ATOM      3  C   UNL     1       1.686   7.857  20.463  0.00  0.00    +0.000 C 
ATOM      4  C   UNL     1       2.111   6.475  20.078  0.00  0.00    +0.000 A 
ATOM      5  N   UNL     1       1.611   5.454  20.788  0.00  0.00    +0.000 NA
ATOM      6  C   UNL     1       1.967   4.210  20.408  0.00  0.00    +0.000 A 
ATOM      7  C   UNL     1       1.395   3.097  21.235  0.00  0.00    +0.000 C 
ATOM      8  C   UNL     1       2.807   3.969  19.325  0.00  0.00    +0.000 A 
ATOM      9  C   UNL     1       3.246   2.585  18.947  0.00  0.00    +0.000 C 
ATOM     10  C   UNL     1       3.284   5.100  18.656  0.00  0.00    +0.000 A 
ATOM     11  N   UNL     1       2.944   6.345  19.034  0.00  0.00    +0.000 NA
ENDBRANCH   1  10
BRANCH   1  12
ATOM     12  C   UNL     1       4.829   6.098  17.042  0.00  0.00    +0.000 C 
BRANCH  12  13
ATOM     13  C   UNL     1       6.331   5.948  17.313  0.00  0.00    +0.000 C 
ATOM     14  C   UNL     1       7.082   7.313  17.389  0.00  0.00    +0.000 C 
ATOM     15  C   UNL     1       7.862   6.774  18.602  0.00  0.00    +0.000 C 
ATOM     16  C   UNL     1       6.742   5.737  18.803  0.00  0.00    +0.000 C 
BRANCH  13  17
ATOM     17  S   UNL     1       7.135   4.763  16.166  0.00  0.00    +0.000 S 
ATOM     18  O   UNL     1       7.399   5.389  14.890  0.00  0.00    +0.000 OA
ATOM     19  O   UNL     1       8.186   4.065  16.876  0.00  0.00    +0.000 OA
BRANCH  17  20
ATOM     20  N   UNL     1       5.998   3.581  15.838  0.00  0.00    +0.000 NA
ATOM     21  H   UNL     1       5.099   3.892  15.484  0.00  0.00    +0.000 HD
ATOM     22  H   UNL     1       6.083   2.704  16.344  0.00  0.00    +0.000 HD
ENDBRANCH  17  20
ENDBRANCH  13  17
ENDBRANCH  12  13
ENDBRANCH   1  12
TORSDOF 5
ENDMDL
MODEL 8
REMARK VINA RESULT:      -7.4      1.310      2.486
REMARK  Name = 
REMARK  8 active torsions:
REMARK  status: ('A' for Active; 'I' for Inactive)
REMARK    1  A    between atoms: C_1  and  C_2
REMARK    2  A    between atoms: C_4  and  C_5
REMARK    3  A    between atoms: C_6  and  C_7
REMARK    4  A    between atoms: C_8  and  N_9
REMARK    5  A    between atoms: N_9  and  C_10
REMARK    6  A    between atoms: C_10  and  C_11
REMARK    7  A    between atoms: C_11  and  S_12
REMARK    8  A    between atoms: S_12  and  N_13
REMARK                            x       y       z     vdW  Elec       q    Type
REMARK                         _______ _______ _______ _____ _____    ______ ____
ROOT
ATOM      1  N   UNL     1       5.026   3.555  18.909  0.00  0.00    +0.000 N 
ATOM      2  H   UNL     1       4.728   2.631  18.590  0.00  0.00    +0.000 HD
ENDROOT
BRANCH   1  10
ATOM      3  C   UNL     1       5.467   4.365  14.217  0.00  0.00    +0.000 C 
ATOM      4  C   UNL     1       5.839   4.708  15.626  0.00  0.00    +0.000 A 
ATOM      5  N   UNL     1       6.620   5.781  15.815  0.00  0.00    +0.000 NA
ATOM      6  C   UNL     1       6.916   6.105  17.090  0.00  0.00    +0.000 A 
ATOM      7  C   UNL     1       7.800   7.306  17.259  0.00  0.00    +0.000 C 
ATOM      8  C   UNL     1       6.439   5.381  18.179  0.00  0.00    +0.000 A 
ATOM      9  C   UNL     1       6.824   5.713  19.590  0.00  0.00    +0.000 C 
ATOM     10  C   UNL     1       5.643   4.273  17.875  0.00  0.00    +0.000 A 
ATOM     11  N   UNL     1       5.350   3.934  16.607  0.00  0.00    +0.000 NA
ENDBRANCH   1  10
BRANCH   1  12
ATOM     12  C   UNL     1       3.975   4.235  19.665  0.00  0.00    +0.000 C 
BRANCH  12  13
ATOM     13  C   UNL     1       2.744   3.355  19.922  0.00  0.00    +0.000 C 
ATOM     14  C   UNL     1       2.849   2.516  21.233  0.00  0.00    +0.000 C 
ATOM     15  C   UNL     1       1.378   2.861  21.528  0.00  0.00    +0.000 C 
ATOM     16  C   UNL     1       1.517   4.063  20.575  0.00  0.00    +0.000 C 
BRANCH  13  17
ATOM     17  S   UNL     1       2.298   2.334  18.465  0.00  0.00    +0.000 S 
ATOM     18  O   UNL     1       3.334   1.364  18.186  0.00  0.00    +0.000 OA
ATOM     19  O   UNL     1       0.916   1.920  18.589  0.00  0.00    +0.000 OA
BRANCH  17  20
ATOM     20  N   UNL     1       2.309   3.363  17.147  0.00  0.00    +0.000 NA
ATOM     21  H   UNL     1       3.155   3.902  16.989  0.00  0.00    +0.000 HD
ATOM     22  H   UNL     1       1.408   3.700  16.815  0.00  0.00    +0.000 HD
ENDBRANCH  17  20
ENDBRANCH  13  17
ENDBRANCH  12  13
ENDBRANCH   1  12
TORSDOF 5
ENDMDL
MODEL 9
REMARK VINA RESULT:      -7.3      1.797      2.006
REMARK  Name = 
REMARK  8 active torsions:
REMARK  status: ('A' for Active; 'I' for Inactive)
REMARK    1  A    between atoms: C_1  and  C_2
REMARK    2  A    between atoms: C_4  and  C_5
REMARK    3  A    between atoms: C_6  and  C_7
REMARK    4  A    between atoms: C_8  and  N_9
REMARK    5  A    between atoms: N_9  and  C_10
REMARK    6  A    between atoms: C_10  and  C_11
REMARK    7  A    between atoms: C_11  and  S_12
REMARK    8  A    between atoms: S_12  and  N_13
REMARK                            x       y       z     vdW  Elec       q    Type
REMARK                         _______ _______ _______ _____ _____    ______ ____
ROOT
ATOM      1  N   UNL     1       4.062   4.164  16.852  0.00  0.00    +0.000 N 
ATOM      2  H   UNL     1       3.544   3.790  16.054  0.00  0.00    +0.000 HD
ENDROOT
BRANCH   1  10
ATOM      3  C   UNL     1       7.741   7.010  17.964  0.00  0.00    +0.000 C 
ATOM      4  C   UNL     1       7.015   6.174  16.957  0.00  0.00    +0.000 A 
ATOM      5  N   UNL     1       7.598   6.001  15.762  0.00  0.00    +0.000 NA
ATOM      6  C   UNL     1       6.956   5.213  14.876  0.00  0.00    +0.000 A 
ATOM      7  C   UNL     1       7.636   5.053  13.547  0.00  0.00    +0.000 C 
ATOM      8  C   UNL     1       5.746   4.589  15.166  0.00  0.00    +0.000 A 
ATOM      9  C   UNL     1       5.010   3.764  14.152  0.00  0.00    +0.000 C 
ATOM     10  C   UNL     1       5.215   4.841  16.434  0.00  0.00    +0.000 A 
ATOM     11  N   UNL     1       5.841   5.634  17.321  0.00  0.00    +0.000 NA
ENDBRANCH   1  10
BRANCH   1  12
ATOM     12  C   UNL     1       3.182   4.854  17.795  0.00  0.00    +0.000 C 
BRANCH  12  13
ATOM     13  C   UNL     1       2.621   3.935  18.888  0.00  0.00    +0.000 C 
ATOM     14  C   UNL     1       2.028   4.714  20.103  0.00  0.00    +0.000 C 
ATOM     15  C   UNL     1       0.848   3.725  20.113  0.00  0.00    +0.000 C 
ATOM     16  C   UNL     1       1.183   3.382  18.650  0.00  0.00    +0.000 C 
BRANCH  13  17
ATOM     17  S   UNL     1       3.818   2.642  19.397  0.00  0.00    +0.000 S 
ATOM     18  O   UNL     1       3.632   2.294  20.788  0.00  0.00    +0.000 OA
ATOM     19  O   UNL     1       3.855   1.613  18.379  0.00  0.00    +0.000 OA
BRANCH  17  20
ATOM     20  N   UNL     1       5.332   3.348  19.331  0.00  0.00    +0.000 NA
ATOM     21  H   UNL     1       6.092   2.855  19.790  0.00  0.00    +0.000 HD
ATOM     22  H   UNL     1       5.368   4.357  19.205  0.00  0.00    +0.000 HD
ENDBRANCH  17  20
ENDBRANCH  13  17
ENDBRANCH  12  13
ENDBRANCH   1  12
TORSDOF 5
ENDMDL
