MODEL 1
REMARK VINA RESULT:      -7.2      0.000      0.000
REMARK  Name = 
REMARK  6 active torsions:
REMARK  status: ('A' for Active; 'I' for Inactive)
REMARK    1  A    between atoms: C_1  and  N_2
REMARK    2  A    between atoms: N_2  and  C_3
REMARK    3  A    between atoms: N_2  and  C_4
REMARK    4  A    between atoms: N_2  and  C_11
REMARK    5  A    between atoms: C_4  and  C_5
REMARK    6  A    between atoms: C_16  and  O_17
REMARK                            x       y       z     vdW  Elec       q    Type
REMARK                         _______ _______ _______ _____ _____    ______ ____
ROOT
ATOM      1  C   UNL     1       4.927   3.518  18.739  0.00  0.00    +0.000 C 
ATOM      2  N   UNL     1       4.901   4.560  17.615  0.00  0.00    +0.000 NA
ATOM      3  C   UNL     1       5.087   3.906  16.257  0.00  0.00    +0.000 C 
ENDROOT
BRANCH   2   4
ATOM      4  C   UNL     1       6.138   5.483  17.757  0.00  0.00    +0.000 A 
ATOM      5  C   UNL     1       7.045   5.313  18.816  0.00  0.00    +0.000 A 
ATOM      6  C   UNL     1       8.019   6.284  19.087  0.00  0.00    +0.000 A 
ATOM      7  C   UNL     1       8.113   7.439  18.315  0.00  0.00    +0.000 A 
ATOM      8  C   UNL     1       7.251   7.621  17.243  0.00  0.00    +0.000 A 
ATOM      9  C   UNL     1       6.275   6.659  16.971  0.00  0.00    +0.000 A 
BRANCH   9  10
ATOM     10  O   UNL     1       5.417   6.921  15.935  0.00  0.00    +0.000 OA
ATOM     11  H   UNL     1       4.795   6.177  15.823  0.00  0.00    +0.000 HD
ENDBRANCH   9  10
ENDBRANCH   2   4
BRANCH   2  12
ATOM     12  C   UNL     1       3.548   5.333  17.675  0.00  0.00    +0.000 C 
BRANCH  12  13
ATOM     13  C   UNL     1       2.442   4.669  18.492  0.00  0.00    +0.000 A 
ATOM     14  C   UNL     1       2.161   5.089  19.806  0.00  0.00    +0.000 A 
ATOM     15  C   UNL     1       1.299   4.351  20.623  0.00  0.00    +0.000 A 
ATOM     16  C   UNL     1       0.666   3.216  20.128  0.00  0.00    +0.000 A 
ATOM     17  C   UNL     1       0.863   2.838  18.803  0.00  0.00    +0.000 A 
ATOM     18  C   UNL     1       1.735   3.565  17.988  0.00  0.00    +0.000 A 
ENDBRANCH  12  13
ENDBRANCH   2  12
TORSDOF 4
ENDMDL
MODEL 2
REMARK VINA RESULT:      -6.9      0.659      1.249
REMARK  Name = 
REMARK  6 active torsions:
REMARK  status: ('A' for Active; 'I' for Inactive)
REMARK    1  A    between atoms: C_1  and  N_2
REMARK    2  A    between atoms: N_2  and  C_3
REMARK    3  A    between atoms: N_2  and  C_4
REMARK    4  A    between atoms: N_2  and  C_11
REMARK    5  A    between atoms: C_4  and  C_5
REMARK    6  A    between atoms: C_16  and  O_17
REMARK                            x       y       z     vdW  Elec       q    Type
REMARK                         _______ _______ _______ _____ _____    ______ ____
ROOT
ATOM      1  C   UNL     1       4.872   4.174  15.938  0.00  0.00    +0.000 C 
ATOM      2  N   UNL     1       4.783   4.688  17.379  0.00  0.00    +0.000 NA
ATOM      3  C   UNL     1       3.702   5.746  17.518  0.00  0.00    +0.000 C 
ENDROOT
BRANCH   2   4
ATOM      4  C   UNL     1       6.090   5.443  17.724  0.00  0.00    +0.000 A 
ATOM      5  C   UNL     1       6.804   5.148  18.898  0.00  0.00    +0.000 A 
ATOM      6  C   UNL     1       7.842   5.984  19.335  0.00  0.00    +0.000 A 
ATOM      7  C   UNL     1       8.191   7.126  18.618  0.00  0.00    +0.000 A 
ATOM      8  C   UNL     1       7.525   7.427  17.439  0.00  0.00    +0.000 A 
ATOM      9  C   UNL     1       6.487   6.600  17.001  0.00  0.00    +0.000 A 
BRANCH   9  10
ATOM     10  O   UNL     1       5.829   6.981  15.860  0.00  0.00    +0.000 OA
ATOM     11  H   UNL     1       6.319   6.668  15.076  0.00  0.00    +0.000 HD
ENDBRANCH   9  10
ENDBRANCH   2   4
BRANCH   2  12
ATOM     12  C   UNL     1       4.500   3.483  18.328  0.00  0.00    +0.000 C 
BRANCH  12  13
ATOM     13  C   UNL     1       3.131   3.478  19.003  0.00  0.00    +0.000 A 
ATOM     14  C   UNL     1       2.944   4.075  20.265  0.00  0.00    +0.000 A 
ATOM     15  C   UNL     1       1.753   3.891  20.974  0.00  0.00    +0.000 A 
ATOM     16  C   UNL     1       0.713   3.153  20.416  0.00  0.00    +0.000 A 
ATOM     17  C   UNL     1       0.849   2.631  19.132  0.00  0.00    +0.000 A 
ATOM     18  C   UNL     1       2.043   2.803  18.427  0.00  0.00    +0.000 A 
ENDBRANCH  12  13
ENDBRANCH   2  12
TORSDOF 4
ENDMDL
MODEL 3
REMARK VINA RESULT:      -6.8      0.734      1.747
REMARK  Name = 
REMARK  6 active torsions:
REMARK  status: ('A' for Active; 'I' for Inactive)
REMARK    1  A    between atoms: C_1  and  N_2
REMARK    2  A    between atoms: N_2  and  C_3
REMARK    3  A    between atoms: N_2  and  C_4
REMARK    4  A    between atoms: N_2  and  C_11
REMARK    5  A    between atoms: C_4  and  C_5
REMARK    6  A    between atoms: C_16  and  O_17
REMARK                            x       y       z     vdW  Elec       q    Type
REMARK                         _______ _______ _______ _____ _____    ______ ____
ROOT
ATOM      1  C   UNL     1       4.753   4.212  15.899  0.00  0.00    +0.000 C 
ATOM      2  N   UNL     1       4.748   4.619  17.377  0.00  0.00    +0.000 NA
ATOM      3  C   UNL     1       3.637   5.614  17.668  0.00  0.00    +0.000 C 
ENDROOT
BRANCH   2   4
ATOM      4  C   UNL     1       6.045   5.407  17.686  0.00  0.00    +0.000 A 
ATOM      5  C   UNL     1       6.797   5.131  18.840  0.00  0.00    +0.000 A 
ATOM      6  C   UNL     1       7.825   5.994  19.248  0.00  0.00    +0.000 A 
ATOM      7  C   UNL     1       8.126   7.142  18.521  0.00  0.00    +0.000 A 
ATOM      8  C   UNL     1       7.422   7.425  17.359  0.00  0.00    +0.000 A 
ATOM      9  C   UNL     1       6.393   6.572  16.951  0.00  0.00    +0.000 A 
BRANCH   9  10
ATOM     10  O   UNL     1       5.695   6.935  15.828  0.00  0.00    +0.000 OA
ATOM     11  H   UNL     1       4.737   6.903  16.009  0.00  0.00    +0.000 HD
ENDBRANCH   9  10
ENDBRANCH   2   4
BRANCH   2  12
ATOM     12  C   UNL     1       4.583   3.338  18.252  0.00  0.00    +0.000 C 
BRANCH  12  13
ATOM     13  C   UNL     1       3.236   3.184  18.955  0.00  0.00    +0.000 A 
ATOM     14  C   UNL     1       2.147   2.573  18.306  0.00  0.00    +0.000 A 
ATOM     15  C   UNL     1       0.865   2.618  18.864  0.00  0.00    +0.000 A 
ATOM     16  C   UNL     1       0.660   3.228  20.098  0.00  0.00    +0.000 A 
ATOM     17  C   UNL     1       1.742   3.759  20.793  0.00  0.00    +0.000 A 
ATOM     18  C   UNL     1       3.022   3.727  20.232  0.00  0.00    +0.000 A 
ENDBRANCH  12  13
ENDBRANCH   2  12
TORSDOF 4
ENDMDL
MODEL 4
REMARK VINA RESULT:      -6.8      1.735      2.646
REMARK  Name = 
REMARK  6 active torsions:
REMARK  status: ('A' for Active; 'I' for Inactive)
REMARK    1  A    between atoms: C_1  and  N_2
REMARK    2  A    between atoms: N_2  and  C_3
REMARK    3  A    between atoms: N_2  and  C_4
REMARK    4  A    between atoms: N_2  and  C_11
REMARK    5  A    between atoms: C_4  and  C_5
REMARK    6  A    between atoms: C_16  and  O_17
REMARK                            x       y       z     vdW  Elec       q    Type
REMARK                         _______ _______ _______ _____ _____    ______ ____
ROOT
ATOM      1  C   UNL     1       6.510   5.510  19.646  0.00  0.00    +0.000 C 
ATOM      2  N   UNL     1       5.378   5.009  18.742  0.00  0.00    +0.000 NA
ATOM      3  C   UNL     1       5.152   3.518  18.922  0.00  0.00    +0.000 C 
ENDROOT
BRANCH   2   4
ATOM      4  C   UNL     1       5.818   5.144  17.263  0.00  0.00    +0.000 A 
ATOM      5  C   UNL     1       4.935   5.645  16.292  0.00  0.00    +0.000 A 
ATOM      6  C   UNL     1       5.240   5.542  14.927  0.00  0.00    +0.000 A 
ATOM      7  C   UNL     1       6.422   4.943  14.500  0.00  0.00    +0.000 A 
ATOM      8  C   UNL     1       7.328   4.467  15.436  0.00  0.00    +0.000 A 
ATOM      9  C   UNL     1       7.029   4.562  16.798  0.00  0.00    +0.000 A 
BRANCH   9  10
ATOM     10  O   UNL     1       7.936   4.023  17.672  0.00  0.00    +0.000 OA
ATOM     11  H   UNL     1       8.838   4.310  17.433  0.00  0.00    +0.000 HD
ENDBRANCH   9  10
ENDBRANCH   2   4
BRANCH   2  12
ATOM     12  C   UNL     1       4.079   5.807  19.072  0.00  0.00    +0.000 C 
BRANCH  12  13
ATOM     13  C   UNL     1       2.828   4.966  19.315  0.00  0.00    +0.000 A 
ATOM     14  C   UNL     1       2.374   4.704  20.621  0.00  0.00    +0.000 A 
ATOM     15  C   UNL     1       1.360   3.769  20.852  0.00  0.00    +0.000 A 
ATOM     16  C   UNL     1       0.750   3.120  19.783  0.00  0.00    +0.000 A 
ATOM     17  C   UNL     1       1.126   3.434  18.480  0.00  0.00    +0.000 A 
ATOM     18  C   UNL     1       2.148   4.358  18.247  0.00  0.00    +0.000 A 
ENDBRANCH  12  13
ENDBRANCH   2  12
TORSDOF 4
ENDMDL
MODEL 5
REMARK VINA RESULT:      -6.8      0.202      1.185
REMARK  Name = 
REMARK  6 active torsions:
REMARK  status: ('A' for Active; 'I' for Inactive)
REMARK    1  A    between atoms: C_1  and  N_2
REMARK    2  A    between atoms: N_2  and  C_3
REMARK    3  A    between atoms: N_2  and  C_4
REMARK    4  A    between atoms: N_2  and  C_11
REMARK    5  A    between atoms: C_4  and  C_5
REMARK    6  A    between atoms: C_16  and  O_17
REMARK                            x       y       z     vdW  Elec       q    Type
REMARK                         _______ _______ _______ _____ _____    ______ ____
ROOT
ATOM      1  C   UNL     1       5.192   3.502  18.792  0.00  0.00    +0.000 C 
ATOM      2  N   UNL     1       5.053   4.519  17.653  0.00  0.00    +0.000 NA
ATOM      3  C   UNL     1       5.247   3.856  16.300  0.00  0.00    +0.000 C 
ENDROOT
BRANCH   2   4
ATOM      4  C   UNL     1       6.220   5.533  17.742  0.00  0.00    +0.000 A 
ATOM      5  C   UNL     1       7.186   5.433  18.757  0.00  0.00    +0.000 A 
ATOM      6  C   UNL     1       8.094   6.476  18.988  0.00  0.00    +0.000 A 
ATOM      7  C   UNL     1       8.062   7.636  18.218  0.00  0.00    +0.000 A 
ATOM      8  C   UNL     1       7.140   7.752  17.188  0.00  0.00    +0.000 A 
ATOM      9  C   UNL     1       6.229   6.718  16.957  0.00  0.00    +0.000 A 
BRANCH   9  10
ATOM     10  O   UNL     1       5.305   6.915  15.963  0.00  0.00    +0.000 OA
ATOM     11  H   UNL     1       5.761   7.063  15.112  0.00  0.00    +0.000 HD
ENDBRANCH   9  10
ENDBRANCH   2   4
BRANCH   2  12
ATOM     12  C   UNL     1       3.647   5.188  17.744  0.00  0.00    +0.000 C 
BRANCH  12  13
ATOM     13  C   UNL     1       2.613   4.447  18.588  0.00  0.00    +0.000 A 
ATOM     14  C   UNL     1       1.923   3.333  18.073  0.00  0.00    +0.000 A 
ATOM     15  C   UNL     1       0.835   2.786  18.760  0.00  0.00    +0.000 A 
ATOM     16  C   UNL     1       0.451   3.307  19.992  0.00  0.00    +0.000 A 
ATOM     17  C   UNL     1       1.179   4.351  20.556  0.00  0.00    +0.000 A 
ATOM     18  C   UNL     1       2.259   4.909  19.866  0.00  0.00    +0.000 A 
ENDBRANCH  12  13
ENDBRANCH   2  12
TORSDOF 4
ENDMDL
MODEL 6
REMARK VINA RESULT:      -6.7      1.879      3.042
REMARK  Name = 
REMARK  6 active torsions:
REMARK  status: ('A' for Active; 'I' for Inactive)
REMARK    1  A    between atoms: C_1  and  N_2
REMARK    2  A    between atoms: N_2  and  C_3
REMARK    3  A    between atoms: N_2  and  C_4
REMARK    4  A    between atoms: N_2  and  C_11
REMARK    5  A    between atoms: C_4  and  C_5
REMARK    6  A    between atoms: C_16  and  O_17
REMARK                            x       y       z     vdW  Elec       q    Type
REMARK                         _______ _______ _______ _____ _____    ______ ____
ROOT
ATOM      1  C   UNL     1       4.150   5.881  19.128  0.00  0.00    +0.000 C 
ATOM      2  N   UNL     1       5.358   4.979  18.854  0.00  0.00    +0.000 NA
ATOM      3  C   UNL     1       6.578   5.447  19.629  0.00  0.00    +0.000 C 
ENDROOT
BRANCH   2   4
ATOM      4  C   UNL     1       5.776   5.136  17.371  0.00  0.00    +0.000 A 
ATOM      5  C   UNL     1       4.881   5.659  16.422  0.00  0.00    +0.000 A 
ATOM      6  C   UNL     1       5.163   5.578  15.051  0.00  0.00    +0.000 A 
ATOM      7  C   UNL     1       6.333   4.978  14.595  0.00  0.00    +0.000 A 
ATOM      8  C   UNL     1       7.252   4.480  15.508  0.00  0.00    +0.000 A 
ATOM      9  C   UNL     1       6.974   4.554  16.876  0.00  0.00    +0.000 A 
BRANCH   9  10
ATOM     10  O   UNL     1       7.892   3.993  17.726  0.00  0.00    +0.000 OA
ATOM     11  H   UNL     1       8.783   4.044  17.332  0.00  0.00    +0.000 HD
ENDBRANCH   9  10
ENDBRANCH   2   4
BRANCH   2  12
ATOM     12  C   UNL     1       4.990   3.513  19.238  0.00  0.00    +0.000 C 
BRANCH  12  13
ATOM     13  C   UNL     1       3.499   3.222  19.391  0.00  0.00    +0.000 A 
ATOM     14  C   UNL     1       2.665   3.103  18.263  0.00  0.00    +0.000 A 
ATOM     15  C   UNL     1       1.275   3.047  18.405  0.00  0.00    +0.000 A 
ATOM     16  C   UNL     1       0.699   3.057  19.672  0.00  0.00    +0.000 A 
ATOM     17  C   UNL     1       1.514   3.084  20.800  0.00  0.00    +0.000 A 
ATOM     18  C   UNL     1       2.904   3.154  20.661  0.00  0.00    +0.000 A 
ENDBRANCH  12  13
ENDBRANCH   2  12
TORSDOF 4
ENDMDL
MODEL 7
REMARK VINA RESULT:      -6.7      1.310      2.076
REMARK  Name = 
REMARK  6 active torsions:
REMARK  status: ('A' for Active; 'I' for Inactive)
REMARK    1  A    between atoms: C_1  and  N_2
REMARK    2  A    between atoms: N_2  and  C_3
REMARK    3  A    between atoms: N_2  and  C_4
REMARK    4  A    between atoms: N_2  and  C_11
REMARK    5  A    between atoms: C_4  and  C_5
REMARK    6  A    between atoms: C_16  and  O_17
REMARK                            x       y       z     vdW  Elec       q    Type
REMARK                         _______ _______ _______ _____ _____    ______ ____
ROOT
ATOM      1  C   UNL     1       4.760   3.492  17.466  0.00  0.00    +0.000 C 
ATOM      2  N   UNL     1       4.609   4.978  17.121  0.00  0.00    +0.000 NA
ATOM      3  C   UNL     1       4.787   5.216  15.632  0.00  0.00    +0.000 C 
ENDROOT
BRANCH   2   4
ATOM      4  C   UNL     1       5.777   5.764  17.767  0.00  0.00    +0.000 A 
ATOM      5  C   UNL     1       6.362   6.857  17.105  0.00  0.00    +0.000 A 
ATOM      6  C   UNL     1       7.563   7.414  17.566  0.00  0.00    +0.000 A 
ATOM      7  C   UNL     1       8.207   6.899  18.689  0.00  0.00    +0.000 A 
ATOM      8  C   UNL     1       7.638   5.840  19.382  0.00  0.00    +0.000 A 
ATOM      9  C   UNL     1       6.443   5.278  18.925  0.00  0.00    +0.000 A 
BRANCH   9  10
ATOM     10  O   UNL     1       5.960   4.198  19.617  0.00  0.00    +0.000 OA
ATOM     11  H   UNL     1       4.988   4.160  19.535  0.00  0.00    +0.000 HD
ENDBRANCH   9  10
ENDBRANCH   2   4
BRANCH   2  12
ATOM     12  C   UNL     1       3.205   5.464  17.594  0.00  0.00    +0.000 C 
BRANCH  12  13
ATOM     13  C   UNL     1       2.517   4.589  18.639  0.00  0.00    +0.000 A 
ATOM     14  C   UNL     1       1.585   3.606  18.260  0.00  0.00    +0.000 A 
ATOM     15  C   UNL     1       0.804   2.953  19.219  0.00  0.00    +0.000 A 
ATOM     16  C   UNL     1       0.977   3.232  20.571  0.00  0.00    +0.000 A 
ATOM     17  C   UNL     1       1.957   4.137  20.968  0.00  0.00    +0.000 A 
ATOM     18  C   UNL     1       2.730   4.801  20.011  0.00  0.00    +0.000 A 
ENDBRANCH  12  13
ENDBRANCH   2  12
TORSDOF 4
ENDMDL
MODEL 8
REMARK VINA RESULT:      -6.7      1.840      2.847
REMARK  Name = 
REMARK  6 active torsions:
REMARK  status: ('A' for Active; 'I' for Inactive)
REMARK    1  A    between atoms: C_1  and  N_2
REMARK    2  A    between atoms: N_2  and  C_3
REMARK    3  A    between atoms: N_2  and  C_4
REMARK    4  A    between atoms: N_2  and  C_11
REMARK    5  A    between atoms: C_4  and  C_5
REMARK    6  A    between atoms: C_16  and  O_17
REMARK                            x       y       z     vdW  Elec       q    Type
REMARK                         _______ _______ _______ _____ _____    ______ ____
ROOT
ATOM      1  C   UNL     1       4.168   6.035  18.992  0.00  0.00    +0.000 C 
ATOM      2  N   UNL     1       5.329   5.060  18.768  0.00  0.00    +0.000 NA
ATOM      3  C   UNL     1       6.557   5.479  19.558  0.00  0.00    +0.000 C 
ENDROOT
BRANCH   2   4
ATOM      4  C   UNL     1       5.786   5.155  17.291  0.00  0.00    +0.000 A 
ATOM      5  C   UNL     1       4.919   5.644  16.300  0.00  0.00    +0.000 A 
ATOM      6  C   UNL     1       5.235   5.506  14.940  0.00  0.00    +0.000 A 
ATOM      7  C   UNL     1       6.414   4.882  14.539  0.00  0.00    +0.000 A 
ATOM      8  C   UNL     1       7.305   4.417  15.496  0.00  0.00    +0.000 A 
ATOM      9  C   UNL     1       6.993   4.547  16.851  0.00  0.00    +0.000 A 
BRANCH   9  10
ATOM     10  O   UNL     1       7.885   4.017  17.747  0.00  0.00    +0.000 OA
ATOM     11  H   UNL     1       8.221   3.164  17.414  0.00  0.00    +0.000 HD
ENDBRANCH   9  10
ENDBRANCH   2   4
BRANCH   2  12
ATOM     12  C   UNL     1       4.871   3.627  19.179  0.00  0.00    +0.000 C 
BRANCH  12  13
ATOM     13  C   UNL     1       3.366   3.438  19.358  0.00  0.00    +0.000 A 
ATOM     14  C   UNL     1       2.775   3.505  20.634  0.00  0.00    +0.000 A 
ATOM     15  C   UNL     1       1.443   3.127  20.826  0.00  0.00    +0.000 A 
ATOM     16  C   UNL     1       0.666   2.727  19.742  0.00  0.00    +0.000 A 
ATOM     17  C   UNL     1       1.210   2.741  18.461  0.00  0.00    +0.000 A 
ATOM     18  C   UNL     1       2.545   3.105  18.269  0.00  0.00    +0.000 A 
ENDBRANCH  12  13
ENDBRANCH   2  12
TORSDOF 4
ENDMDL
MODEL 9
REMARK VINA RESULT:      -6.7      2.322      5.972
REMARK  Name = 
REMARK  6 active torsions:
REMARK  status: ('A' for Active; 'I' for Inactive)
REMARK    1  A    between atoms: C_1  and  N_2
REMARK    2  A    between atoms: N_2  and  C_3
REMARK    3  A    between atoms: N_2  and  C_4
REMARK    4  A    between atoms: N_2  and  C_11
REMARK    5  A    between atoms: C_4  and  C_5
REMARK    6  A    between atoms: C_16  and  O_17
REMARK                            x       y       z     vdW  Elec       q    Type
REMARK                         _______ _______ _______ _____ _____    ______ ____
ROOT
ATOM      1  C   UNL     1       5.398   5.511  19.376  0.00  0.00    +0.000 C 
ATOM      2  N   UNL     1       5.002   5.036  17.973  0.00  0.00    +0.000 NA
ATOM      3  C   UNL     1       4.490   6.190  17.128  0.00  0.00    +0.000 C 
ENDROOT
BRANCH   2   4
ATOM      4  C   UNL     1       3.783   4.089  18.089  0.00  0.00    +0.000 A 
ATOM      5  C   UNL     1       2.509   4.499  17.661  0.00  0.00    +0.000 A 
ATOM      6  C   UNL     1       1.369   3.749  17.983  0.00  0.00    +0.000 A 
ATOM      7  C   UNL     1       1.469   2.581  18.734  0.00  0.00    +0.000 A 
ATOM      8  C   UNL     1       2.717   2.133  19.145  0.00  0.00    +0.000 A 
ATOM      9  C   UNL     1       3.856   2.879  18.831  0.00  0.00    +0.000 A 
BRANCH   9  10
ATOM     10  O   UNL     1       5.053   2.416  19.314  0.00  0.00    +0.000 OA
ATOM     11  H   UNL     1       4.901   1.873  20.110  0.00  0.00    +0.000 HD
ENDBRANCH   9  10
ENDBRANCH   2   4
BRANCH   2  12
ATOM     12  C   UNL     1       6.240   4.367  17.300  0.00  0.00    +0.000 C 
BRANCH  12  13
ATOM     13  C   UNL     1       6.283   4.434  15.776  0.00  0.00    +0.000 A 
ATOM     14  C   UNL     1       5.305   3.789  14.994  0.00  0.00    +0.000 A 
ATOM     15  C   UNL     1       5.459   3.674  13.609  0.00  0.00    +0.000 A 
ATOM     16  C   UNL     1       6.560   4.243  12.977  0.00  0.00    +0.000 A 
ATOM     17  C   UNL     1       7.490   4.961  13.724  0.00  0.00    +0.000 A 
ATOM     18  C   UNL     1       7.346   5.066  15.110  0.00  0.00    +0.000 A 
ENDBRANCH  12  13
ENDBRANCH   2  12
TORSDOF 4
ENDMDL
