MODEL 1
REMARK VINA RESULT:      -8.1      0.000      0.000
REMARK  Name = 
REMARK  6 active torsions:
REMARK  status: ('A' for Active; 'I' for Inactive)
REMARK    1  A    between atoms: C_1  and  C_2
REMARK    2  A    between atoms: C_2  and  C_4
REMARK    3  A    between atoms: C_5  and  C_6
REMARK    4  A    between atoms: N_15  and  C_16
REMARK    5  A    between atoms: C_16  and  C_17
REMARK    6  A    between atoms: C_17  and  N_18
REMARK                            x       y       z     vdW  Elec       q    Type
REMARK                         _______ _______ _______ _____ _____    ______ ____
ROOT
ATOM      1  C   UNL     1       3.163   4.020  19.725  0.00  0.00    +0.000 A 
ATOM      2  C   UNL     1       2.315   4.020  20.908  0.00  0.00    +0.000 A 
ATOM      3  C   UNL     1       2.060   2.936  21.894  0.00  0.00    +0.000 C 
ATOM      4  N   UNL     1       1.713   5.202  21.116  0.00  0.00    +0.000 NA
ATOM      5  N   UNL     1       2.132   5.913  20.084  0.00  0.00    +0.000 N 
ATOM      6  C   UNL     1       1.864   7.213  19.710  0.00  0.00    +0.000 A 
ATOM      7  C   UNL     1       1.096   8.163  20.338  0.00  0.00    +0.000 A 
ATOM      8  C   UNL     1       1.045   9.403  19.715  0.00  0.00    +0.000 A 
ATOM      9  C   UNL     1       1.741   9.623  18.506  0.00  0.00    +0.000 A 
ATOM     10  C   UNL     1       2.513   8.611  17.891  0.00  0.00    +0.000 A 
ATOM     11  C   UNL     1       2.585   7.382  18.508  0.00  0.00    +0.000 A 
ATOM     12  N   UNL     1       3.262   6.183  18.195  0.00  0.00    +0.000 N 
ATOM     13  C   UNL     1       2.982   5.287  19.203  0.00  0.00    +0.000 A 
ENDROOT
BRANCH   1  15
ATOM     14  C   UNL     1       3.620   2.216  17.959  0.00  0.00    +0.000 C 
ATOM     15  C   UNL     1       3.954   2.890  19.261  0.00  0.00    +0.000 C 
ATOM     16  O   UNL     1       4.931   2.505  19.904  0.00  0.00    +0.000 OA
ENDBRANCH   1  15
BRANCH  12  17
ATOM     17  C   UNL     1       4.193   6.036  17.082  0.00  0.00    +0.000 C 
BRANCH  17  18
ATOM     18  C   UNL     1       5.329   7.085  17.140  0.00  0.00    +0.000 C 
BRANCH  18  19
ATOM     19  N   UNL     1       6.621   6.660  16.541  0.00  0.00    +0.000 NA
ATOM     20  C   UNL     1       6.748   5.194  16.369  0.00  0.00    +0.000 C 
ATOM     21  C   UNL     1       6.873   4.409  17.690  0.00  0.00    +0.000 C 
ATOM     22  O   UNL     1       7.915   4.915  18.535  0.00  0.00    +0.000 OA
ATOM     23  C   UNL     1       7.800   6.329  18.744  0.00  0.00    +0.000 C 
ATOM     24  C   UNL     1       7.759   7.079  17.402  0.00  0.00    +0.000 C 
ENDBRANCH  18  19
ENDBRANCH  17  18
ENDBRANCH  12  17
TORSDOF 4
ENDMDL
MODEL 2
REMARK VINA RESULT:      -7.9      0.916      1.241
REMARK  Name = 
REMARK  6 active torsions:
REMARK  status: ('A' for Active; 'I' for Inactive)
REMARK    1  A    between atoms: C_1  and  C_2
REMARK    2  A    between atoms: C_2  and  C_4
REMARK    3  A    between atoms: C_5  and  C_6
REMARK    4  A    between atoms: N_15  and  C_16
REMARK    5  A    between atoms: C_16  and  C_17
REMARK    6  A    between atoms: C_17  and  N_18
REMARK                            x       y       z     vdW  Elec       q    Type
REMARK                         _______ _______ _______ _____ _____    ______ ____
ROOT
ATOM      1  C   UNL     1       3.123   3.629  19.801  0.00  0.00    +0.000 A 
ATOM      2  C   UNL     1       2.247   3.827  20.947  0.00  0.00    +0.000 A 
ATOM      3  C   UNL     1       1.862   2.875  22.023  0.00  0.00    +0.000 C 
ATOM      4  N   UNL     1       1.755   5.075  21.017  0.00  0.00    +0.000 NA
ATOM      5  N   UNL     1       2.269   5.636  19.935  0.00  0.00    +0.000 N 
ATOM      6  C   UNL     1       2.137   6.911  19.427  0.00  0.00    +0.000 A 
ATOM      7  C   UNL     1       1.447   7.987  19.931  0.00  0.00    +0.000 A 
ATOM      8  C   UNL     1       1.532   9.157  19.189  0.00  0.00    +0.000 A 
ATOM      9  C   UNL     1       2.279   9.189  17.991  0.00  0.00    +0.000 A 
ATOM     10  C   UNL     1       2.966   8.053  17.506  0.00  0.00    +0.000 A 
ATOM     11  C   UNL     1       2.903   6.891  18.242  0.00  0.00    +0.000 A 
ATOM     12  N   UNL     1       3.471   5.609  18.072  0.00  0.00    +0.000 N 
ATOM     13  C   UNL     1       3.079   4.848  19.152  0.00  0.00    +0.000 A 
ENDROOT
BRANCH   1  15
ATOM     14  C   UNL     1       3.371   1.558  18.307  0.00  0.00    +0.000 C 
ATOM     15  C   UNL     1       3.814   2.390  19.479  0.00  0.00    +0.000 C 
ATOM     16  O   UNL     1       4.796   2.034  20.131  0.00  0.00    +0.000 OA
ENDBRANCH   1  15
BRANCH  12  17
ATOM     17  C   UNL     1       4.414   5.266  17.014  0.00  0.00    +0.000 C 
BRANCH  17  18
ATOM     18  C   UNL     1       5.568   4.378  17.537  0.00  0.00    +0.000 C 
BRANCH  18  19
ATOM     19  N   UNL     1       6.908   4.672  16.969  0.00  0.00    +0.000 NA
ATOM     20  C   UNL     1       8.010   4.588  17.957  0.00  0.00    +0.000 C 
ATOM     21  C   UNL     1       7.995   5.705  19.019  0.00  0.00    +0.000 C 
ATOM     22  O   UNL     1       7.928   7.015  18.441  0.00  0.00    +0.000 OA
ATOM     23  C   UNL     1       6.852   7.135  17.502  0.00  0.00    +0.000 C 
ATOM     24  C   UNL     1       6.950   6.052  16.415  0.00  0.00    +0.000 C 
ENDBRANCH  18  19
ENDBRANCH  17  18
ENDBRANCH  12  17
TORSDOF 4
ENDMDL
MODEL 3
REMARK VINA RESULT:      -7.8      2.824      6.594
REMARK  Name = 
REMARK  6 active torsions:
REMARK  status: ('A' for Active; 'I' for Inactive)
REMARK    1  A    between atoms: C_1  and  C_2
REMARK    2  A    between atoms: C_2  and  C_4
REMARK    3  A    between atoms: C_5  and  C_6
REMARK    4  A    between atoms: N_15  and  C_16
REMARK    5  A    between atoms: C_16  and  C_17
REMARK    6  A    between atoms: C_17  and  N_18
REMARK                            x       y       z     vdW  Elec       q    Type
REMARK                         _______ _______ _______ _____ _____    ______ ____
ROOT
ATOM      1  C   UNL     1       6.490   5.613  17.812  0.00  0.00    +0.000 A 
ATOM      2  C   UNL     1       7.457   6.632  17.431  0.00  0.00    +0.000 A 
ATOM      3  C   UNL     1       8.108   7.681  18.261  0.00  0.00    +0.000 C 
ATOM      4  N   UNL     1       7.803   6.562  16.135  0.00  0.00    +0.000 NA
ATOM      5  N   UNL     1       7.055   5.562  15.702  0.00  0.00    +0.000 N 
ATOM      6  C   UNL     1       6.935   4.997  14.450  0.00  0.00    +0.000 A 
ATOM      7  C   UNL     1       7.599   5.300  13.286  0.00  0.00    +0.000 A 
ATOM      8  C   UNL     1       7.270   4.520  12.185  0.00  0.00    +0.000 A 
ATOM      9  C   UNL     1       6.298   3.502  12.298  0.00  0.00    +0.000 A 
ATOM     10  C   UNL     1       5.634   3.231  13.516  0.00  0.00    +0.000 A 
ATOM     11  C   UNL     1       5.963   3.987  14.618  0.00  0.00    +0.000 A 
ATOM     12  N   UNL     1       5.528   3.975  15.961  0.00  0.00    +0.000 N 
ATOM     13  C   UNL     1       6.238   4.952  16.624  0.00  0.00    +0.000 A 
ENDROOT
BRANCH   1  15
ATOM     14  C   UNL     1       4.504   5.748  19.431  0.00  0.00    +0.000 C 
ATOM     15  C   UNL     1       5.947   5.431  19.150  0.00  0.00    +0.000 C 
ATOM     16  O   UNL     1       6.648   4.973  20.052  0.00  0.00    +0.000 OA
ENDBRANCH   1  15
BRANCH  12  17
ATOM     17  C   UNL     1       4.612   2.985  16.516  0.00  0.00    +0.000 C 
BRANCH  17  18
ATOM     18  C   UNL     1       3.313   3.637  17.047  0.00  0.00    +0.000 C 
BRANCH  18  19
ATOM     19  N   UNL     1       2.277   2.690  17.534  0.00  0.00    +0.000 NA
ATOM     20  C   UNL     1       1.143   3.347  18.226  0.00  0.00    +0.000 C 
ATOM     21  C   UNL     1       1.505   3.965  19.591  0.00  0.00    +0.000 C 
ATOM     22  O   UNL     1       2.162   3.034  20.460  0.00  0.00    +0.000 OA
ATOM     23  C   UNL     1       3.283   2.403  19.827  0.00  0.00    +0.000 C 
ATOM     24  C   UNL     1       2.861   1.731  18.509  0.00  0.00    +0.000 C 
ENDBRANCH  18  19
ENDBRANCH  17  18
ENDBRANCH  12  17
TORSDOF 4
ENDMDL
MODEL 4
REMARK VINA RESULT:      -7.7      1.212      1.806
REMARK  Name = 
REMARK  6 active torsions:
REMARK  status: ('A' for Active; 'I' for Inactive)
REMARK    1  A    between atoms: C_1  and  C_2
REMARK    2  A    between atoms: C_2  and  C_4
REMARK    3  A    between atoms: C_5  and  C_6
REMARK    4  A    between atoms: N_15  and  C_16
REMARK    5  A    between atoms: C_16  and  C_17
REMARK    6  A    between atoms: C_17  and  N_18
REMARK                            x       y       z     vdW  Elec       q    Type
REMARK                         _______ _______ _______ _____ _____    ______ ____
ROOT
ATOM      1  C   UNL     1       3.242   4.111  19.811  0.00  0.00    +0.000 A 
ATOM      2  C   UNL     1       2.272   4.125  20.897  0.00  0.00    +0.000 A 
ATOM      3  C   UNL     1       1.927   3.060  21.875  0.00  0.00    +0.000 C 
ATOM      4  N   UNL     1       1.635   5.302  21.010  0.00  0.00    +0.000 NA
ATOM      5  N   UNL     1       2.153   5.995  20.010  0.00  0.00    +0.000 N 
ATOM      6  C   UNL     1       1.910   7.282  19.578  0.00  0.00    +0.000 A 
ATOM      7  C   UNL     1       1.066   8.234  20.097  0.00  0.00    +0.000 A 
ATOM      8  C   UNL     1       1.066   9.458  19.441  0.00  0.00    +0.000 A 
ATOM      9  C   UNL     1       1.885   9.661  18.309  0.00  0.00    +0.000 A 
ATOM     10  C   UNL     1       2.731   8.647  17.805  0.00  0.00    +0.000 A 
ATOM     11  C   UNL     1       2.753   7.434  18.456  0.00  0.00    +0.000 A 
ATOM     12  N   UNL     1       3.476   6.240  18.247  0.00  0.00    +0.000 N 
ATOM     13  C   UNL     1       3.101   5.362  19.241  0.00  0.00    +0.000 A 
ENDROOT
BRANCH   1  15
ATOM     14  C   UNL     1       3.547   1.849  18.639  0.00  0.00    +0.000 C 
ATOM     15  C   UNL     1       4.093   2.983  19.463  0.00  0.00    +0.000 C 
ATOM     16  O   UNL     1       5.278   2.967  19.796  0.00  0.00    +0.000 OA
ENDBRANCH   1  15
BRANCH  12  17
ATOM     17  C   UNL     1       4.523   6.082  17.245  0.00  0.00    +0.000 C 
BRANCH  17  18
ATOM     18  C   UNL     1       4.396   4.739  16.486  0.00  0.00    +0.000 C 
BRANCH  18  19
ATOM     19  N   UNL     1       5.624   3.904  16.455  0.00  0.00    +0.000 NA
ATOM     20  C   UNL     1       6.792   4.531  17.119  0.00  0.00    +0.000 C 
ATOM     21  C   UNL     1       7.363   5.754  16.375  0.00  0.00    +0.000 C 
ATOM     22  O   UNL     1       7.649   5.477  14.998  0.00  0.00    +0.000 OA
ATOM     23  C   UNL     1       6.526   4.896  14.321  0.00  0.00    +0.000 C 
ATOM     24  C   UNL     1       6.038   3.635  15.052  0.00  0.00    +0.000 C 
ENDBRANCH  18  19
ENDBRANCH  17  18
ENDBRANCH  12  17
TORSDOF 4
ENDMDL
MODEL 5
REMARK VINA RESULT:      -7.7      1.087      1.300
REMARK  Name = 
REMARK  6 active torsions:
REMARK  status: ('A' for Active; 'I' for Inactive)
REMARK    1  A    between atoms: C_1  and  C_2
REMARK    2  A    between atoms: C_2  and  C_4
REMARK    3  A    between atoms: C_5  and  C_6
REMARK    4  A    between atoms: N_15  and  C_16
REMARK    5  A    between atoms: C_16  and  C_17
REMARK    6  A    between atoms: C_17  and  N_18
REMARK                            x       y       z     vdW  Elec       q    Type
REMARK                         _______ _______ _______ _____ _____    ______ ____
ROOT
ATOM      1  C   UNL     1       3.079   4.545  19.621  0.00  0.00    +0.000 A 
ATOM      2  C   UNL     1       2.356   4.289  20.859  0.00  0.00    +0.000 A 
ATOM      3  C   UNL     1       2.295   3.053  21.684  0.00  0.00    +0.000 C 
ATOM      4  N   UNL     1       1.678   5.362  21.297  0.00  0.00    +0.000 NA
ATOM      5  N   UNL     1       1.929   6.254  20.354  0.00  0.00    +0.000 N 
ATOM      6  C   UNL     1       1.514   7.561  20.209  0.00  0.00    +0.000 A 
ATOM      7  C   UNL     1       0.734   8.328  21.039  0.00  0.00    +0.000 A 
ATOM      8  C   UNL     1       0.515   9.634  20.620  0.00  0.00    +0.000 A 
ATOM      9  C   UNL     1       1.066  10.095  19.404  0.00  0.00    +0.000 A 
ATOM     10  C   UNL     1       1.856   9.265  18.578  0.00  0.00    +0.000 A 
ATOM     11  C   UNL     1       2.095   7.974  18.990  0.00  0.00    +0.000 A 
ATOM     12  N   UNL     1       2.838   6.907  18.439  0.00  0.00    +0.000 N 
ATOM     13  C   UNL     1       2.738   5.850  19.317  0.00  0.00    +0.000 A 
ENDROOT
BRANCH   1  15
ATOM     14  C   UNL     1       3.362   2.805  17.758  0.00  0.00    +0.000 C 
ATOM     15  C   UNL     1       3.914   3.579  18.923  0.00  0.00    +0.000 C 
ATOM     16  O   UNL     1       5.091   3.421  19.247  0.00  0.00    +0.000 OA
ENDBRANCH   1  15
BRANCH  12  17
ATOM     17  C   UNL     1       3.662   7.016  17.241  0.00  0.00    +0.000 C 
BRANCH  17  18
ATOM     18  C   UNL     1       5.135   6.634  17.519  0.00  0.00    +0.000 C 
BRANCH  18  19
ATOM     19  N   UNL     1       6.037   6.664  16.339  0.00  0.00    +0.000 NA
ATOM     20  C   UNL     1       5.532   5.889  15.180  0.00  0.00    +0.000 C 
ATOM     21  C   UNL     1       5.530   4.362  15.391  0.00  0.00    +0.000 C 
ATOM     22  O   UNL     1       6.803   3.864  15.821  0.00  0.00    +0.000 OA
ATOM     23  C   UNL     1       7.304   4.576  16.960  0.00  0.00    +0.000 C 
ATOM     24  C   UNL     1       7.364   6.086  16.679  0.00  0.00    +0.000 C 
ENDBRANCH  18  19
ENDBRANCH  17  18
ENDBRANCH  12  17
TORSDOF 4
ENDMDL
MODEL 6
REMARK VINA RESULT:      -7.6      2.538      5.938
REMARK  Name = 
REMARK  6 active torsions:
REMARK  status: ('A' for Active; 'I' for Inactive)
REMARK    1  A    between atoms: C_1  and  C_2
REMARK    2  A    between atoms: C_2  and  C_4
REMARK    3  A    between atoms: C_5  and  C_6
REMARK    4  A    between atoms: N_15  and  C_16
REMARK    5  A    between atoms: C_16  and  C_17
REMARK    6  A    between atoms: C_17  and  N_18
REMARK                            x       y       z     vdW  Elec       q    Type
REMARK                         _______ _______ _______ _____ _____    ______ ____
ROOT
ATOM      1  C   UNL     1       5.572   5.845  17.865  0.00  0.00    +0.000 A 
ATOM      2  C   UNL     1       6.429   4.719  18.208  0.00  0.00    +0.000 A 
ATOM      3  C   UNL     1       7.842   4.451  17.830  0.00  0.00    +0.000 C 
ATOM      4  N   UNL     1       5.820   3.827  19.007  0.00  0.00    +0.000 NA
ATOM      5  N   UNL     1       4.611   4.347  19.134  0.00  0.00    +0.000 N 
ATOM      6  C   UNL     1       3.503   3.905  19.824  0.00  0.00    +0.000 A 
ATOM      7  C   UNL     1       3.352   2.793  20.616  0.00  0.00    +0.000 A 
ATOM      8  C   UNL     1       2.102   2.637  21.202  0.00  0.00    +0.000 A 
ATOM      9  C   UNL     1       1.078   3.578  20.958  0.00  0.00    +0.000 A 
ATOM     10  C   UNL     1       1.277   4.704  20.127  0.00  0.00    +0.000 A 
ATOM     11  C   UNL     1       2.517   4.878  19.554  0.00  0.00    +0.000 A 
ATOM     12  N   UNL     1       3.059   5.873  18.712  0.00  0.00    +0.000 N 
ATOM     13  C   UNL     1       4.374   5.533  18.479  0.00  0.00    +0.000 A 
ENDROOT
BRANCH   1  15
ATOM     14  C   UNL     1       7.098   7.866  17.455  0.00  0.00    +0.000 C 
ATOM     15  C   UNL     1       5.964   6.973  17.033  0.00  0.00    +0.000 C 
ATOM     16  O   UNL     1       5.405   7.180  15.956  0.00  0.00    +0.000 OA
ENDBRANCH   1  15
BRANCH  12  17
ATOM     17  C   UNL     1       2.355   7.090  18.324  0.00  0.00    +0.000 C 
BRANCH  17  18
ATOM     18  C   UNL     1       2.210   8.074  19.509  0.00  0.00    +0.000 C 
BRANCH  18  19
ATOM     19  N   UNL     1       0.814   8.414  19.890  0.00  0.00    +0.000 NA
ATOM     20  C   UNL     1       0.442   9.820  19.606  0.00  0.00    +0.000 C 
ATOM     21  C   UNL     1       1.151  10.857  20.500  0.00  0.00    +0.000 C 
ATOM     22  O   UNL     1       1.013  10.565  21.897  0.00  0.00    +0.000 OA
ATOM     23  C   UNL     1       1.394   9.219  22.207  0.00  0.00    +0.000 C 
ATOM     24  C   UNL     1       0.607   8.215  21.349  0.00  0.00    +0.000 C 
ENDBRANCH  18  19
ENDBRANCH  17  18
ENDBRANCH  12  17
TORSDOF 4
ENDMDL
MODEL 7
REMARK VINA RESULT:      -7.2      1.615      4.244
REMARK  Name = 
REMARK  6 active torsions:
REMARK  status: ('A' for Active; 'I' for Inactive)
REMARK    1  A    between atoms: C_1  and  C_2
REMARK    2  A    between atoms: C_2  and  C_4
REMARK    3  A    between atoms: C_5  and  C_6
REMARK    4  A    between atoms: N_15  and  C_16
REMARK    5  A    between atoms: C_16  and  C_17
REMARK    6  A    between atoms: C_17  and  N_18
REMARK                            x       y       z     vdW  Elec       q    Type
REMARK                         _______ _______ _______ _____ _____    ______ ____
ROOT
ATOM      1  C   UNL     1       1.886   8.078  19.232  0.00  0.00    +0.000 A 
ATOM      2  C   UNL     1       1.122   8.110  20.471  0.00  0.00    +0.000 A 
ATOM      3  C   UNL     1       0.309   9.208  21.057  0.00  0.00    +0.000 C 
ATOM      4  N   UNL     1       1.168   6.946  21.140  0.00  0.00    +0.000 NA
ATOM      5  N   UNL     1       1.961   6.216  20.375  0.00  0.00    +0.000 N 
ATOM      6  C   UNL     1       2.414   4.922  20.514  0.00  0.00    +0.000 A 
ATOM      7  C   UNL     1       2.135   3.998  21.492  0.00  0.00    +0.000 A 
ATOM      8  C   UNL     1       2.734   2.755  21.333  0.00  0.00    +0.000 A 
ATOM      9  C   UNL     1       3.580   2.507  20.230  0.00  0.00    +0.000 A 
ATOM     10  C   UNL     1       3.846   3.493  19.253  0.00  0.00    +0.000 A 
ATOM     11  C   UNL     1       3.245   4.724  19.390  0.00  0.00    +0.000 A 
ATOM     12  N   UNL     1       3.267   5.901  18.611  0.00  0.00    +0.000 N 
ATOM     13  C   UNL     1       2.442   6.812  19.233  0.00  0.00    +0.000 A 
ENDROOT
BRANCH   1  15
ATOM     14  C   UNL     1       1.719  10.590  18.738  0.00  0.00    +0.000 C 
ATOM     15  C   UNL     1       2.004   9.182  18.292  0.00  0.00    +0.000 C 
ATOM     16  O   UNL     1       2.383   8.983  17.138  0.00  0.00    +0.000 OA
ENDBRANCH   1  15
BRANCH  12  17
ATOM     17  C   UNL     1       3.933   6.014  17.318  0.00  0.00    +0.000 C 
BRANCH  17  18
ATOM     18  C   UNL     1       5.114   7.012  17.364  0.00  0.00    +0.000 C 
BRANCH  18  19
ATOM     19  N   UNL     1       6.325   6.603  16.607  0.00  0.00    +0.000 NA
ATOM     20  C   UNL     1       6.490   5.135  16.488  0.00  0.00    +0.000 C 
ATOM     21  C   UNL     1       6.834   4.426  17.813  0.00  0.00    +0.000 C 
ATOM     22  O   UNL     1       7.961   5.013  18.476  0.00  0.00    +0.000 OA
ATOM     23  C   UNL     1       7.817   6.431  18.631  0.00  0.00    +0.000 C 
ATOM     24  C   UNL     1       7.554   7.107  17.276  0.00  0.00    +0.000 C 
ENDBRANCH  18  19
ENDBRANCH  17  18
ENDBRANCH  12  17
TORSDOF 4
ENDMDL
MODEL 8
REMARK VINA RESULT:      -7.2      2.642      5.975
REMARK  Name = 
REMARK  6 active torsions:
REMARK  status: ('A' for Active; 'I' for Inactive)
REMARK    1  A    between atoms: C_1  and  C_2
REMARK    2  A    between atoms: C_2  and  C_4
REMARK    3  A    between atoms: C_5  and  C_6
REMARK    4  A    between atoms: N_15  and  C_16
REMARK    5  A    between atoms: C_16  and  C_17
REMARK    6  A    between atoms: C_17  and  N_18
REMARK                            x       y       z     vdW  Elec       q    Type
REMARK                         _______ _______ _______ _____ _____    ______ ____
ROOT
ATOM      1  C   UNL     1       5.643   5.855  17.857  0.00  0.00    +0.000 A 
ATOM      2  C   UNL     1       6.481   4.719  18.212  0.00  0.00    +0.000 A 
ATOM      3  C   UNL     1       7.896   4.435  17.854  0.00  0.00    +0.000 C 
ATOM      4  N   UNL     1       5.850   3.834  19.001  0.00  0.00    +0.000 NA
ATOM      5  N   UNL     1       4.646   4.368  19.110  0.00  0.00    +0.000 N 
ATOM      6  C   UNL     1       3.522   3.939  19.783  0.00  0.00    +0.000 A 
ATOM      7  C   UNL     1       3.346   2.828  20.573  0.00  0.00    +0.000 A 
ATOM      8  C   UNL     1       2.086   2.687  21.139  0.00  0.00    +0.000 A 
ATOM      9  C   UNL     1       1.077   3.640  20.881  0.00  0.00    +0.000 A 
ATOM     10  C   UNL     1       1.302   4.764  20.055  0.00  0.00    +0.000 A 
ATOM     11  C   UNL     1       2.552   4.924  19.500  0.00  0.00    +0.000 A 
ATOM     12  N   UNL     1       3.118   5.913  18.667  0.00  0.00    +0.000 N 
ATOM     13  C   UNL     1       4.432   5.558  18.454  0.00  0.00    +0.000 A 
ENDROOT
BRANCH   1  15
ATOM     14  C   UNL     1       7.184   7.872  17.483  0.00  0.00    +0.000 C 
ATOM     15  C   UNL     1       6.060   6.979  17.033  0.00  0.00    +0.000 C 
ATOM     16  O   UNL     1       5.533   7.183  15.939  0.00  0.00    +0.000 OA
ENDBRANCH   1  15
BRANCH  12  17
ATOM     17  C   UNL     1       2.435   7.139  18.270  0.00  0.00    +0.000 C 
BRANCH  17  18
ATOM     18  C   UNL     1       1.806   7.866  19.482  0.00  0.00    +0.000 C 
BRANCH  18  19
ATOM     19  N   UNL     1       1.877   9.350  19.444  0.00  0.00    +0.000 NA
ATOM     20  C   UNL     1       1.074  10.015  20.497  0.00  0.00    +0.000 C 
ATOM     21  C   UNL     1      -0.451   9.884  20.309  0.00  0.00    +0.000 C 
ATOM     22  O   UNL     1      -0.883  10.291  19.005  0.00  0.00    +0.000 OA
ATOM     23  C   UNL     1      -0.142   9.641  17.964  0.00  0.00    +0.000 C 
ATOM     24  C   UNL     1       1.369   9.864  18.145  0.00  0.00    +0.000 C 
ENDBRANCH  18  19
ENDBRANCH  17  18
ENDBRANCH  12  17
TORSDOF 4
ENDMDL
MODEL 9
REMARK VINA RESULT:      -7.2      2.766      6.055
REMARK  Name = 
REMARK  6 active torsions:
REMARK  status: ('A' for Active; 'I' for Inactive)
REMARK    1  A    between atoms: C_1  and  C_2
REMARK    2  A    between atoms: C_2  and  C_4
REMARK    3  A    between atoms: C_5  and  C_6
REMARK    4  A    between atoms: N_15  and  C_16
REMARK    5  A    between atoms: C_16  and  C_17
REMARK    6  A    between atoms: C_17  and  N_18
REMARK                            x       y       z     vdW  Elec       q    Type
REMARK                         _______ _______ _______ _____ _____    ______ ____
ROOT
ATOM      1  C   UNL     1       4.790   5.454  16.857  0.00  0.00    +0.000 A 
ATOM      2  C   UNL     1       5.002   4.139  16.269  0.00  0.00    +0.000 A 
ATOM      3  C   UNL     1       5.898   3.729  15.156  0.00  0.00    +0.000 C 
ATOM      4  N   UNL     1       4.277   3.179  16.868  0.00  0.00    +0.000 NA
ATOM      5  N   UNL     1       3.604   3.866  17.775  0.00  0.00    +0.000 N 
ATOM      6  C   UNL     1       2.675   3.462  18.712  0.00  0.00    +0.000 A 
ATOM      7  C   UNL     1       2.206   2.201  18.991  0.00  0.00    +0.000 A 
ATOM      8  C   UNL     1       1.282   2.120  20.025  0.00  0.00    +0.000 A 
ATOM      9  C   UNL     1       0.869   3.286  20.706  0.00  0.00    +0.000 A 
ATOM     10  C   UNL     1       1.373   4.564  20.377  0.00  0.00    +0.000 A 
ATOM     11  C   UNL     1       2.303   4.657  19.365  0.00  0.00    +0.000 A 
ATOM     12  N   UNL     1       3.014   5.739  18.805  0.00  0.00    +0.000 N 
ATOM     13  C   UNL     1       3.836   5.220  17.828  0.00  0.00    +0.000 A 
ENDROOT
BRANCH   1  15
ATOM     14  C   UNL     1       6.519   7.301  17.288  0.00  0.00    +0.000 C 
ATOM     15  C   UNL     1       5.452   6.678  16.430  0.00  0.00    +0.000 C 
ATOM     16  O   UNL     1       5.180   7.190  15.344  0.00  0.00    +0.000 OA
ENDBRANCH   1  15
BRANCH  12  17
ATOM     17  C   UNL     1       2.961   7.105  19.314  0.00  0.00    +0.000 C 
BRANCH  17  18
ATOM     18  C   UNL     1       1.918   7.961  18.558  0.00  0.00    +0.000 C 
BRANCH  18  19
ATOM     19  N   UNL     1       1.877   9.398  18.935  0.00  0.00    +0.000 NA
ATOM     20  C   UNL     1       1.264   9.653  20.259  0.00  0.00    +0.000 C 
ATOM     21  C   UNL     1      -0.254   9.390  20.316  0.00  0.00    +0.000 C 
ATOM     22  O   UNL     1      -0.972  10.075  19.281  0.00  0.00    +0.000 OA
ATOM     23  C   UNL     1      -0.417   9.823  17.983  0.00  0.00    +0.000 C 
ATOM     24  C   UNL     1       1.079  10.175  17.949  0.00  0.00    +0.000 C 
ENDBRANCH  18  19
ENDBRANCH  17  18
ENDBRANCH  12  17
TORSDOF 4
ENDMDL
