MODEL 1
REMARK VINA RESULT:      -8.2      0.000      0.000
REMARK  Name = 
REMARK  7 active torsions:
REMARK  status: ('A' for Active; 'I' for Inactive)
REMARK    1  A    between atoms: C_1  and  N_2
REMARK    2  A    between atoms: N_2  and  C_3
REMARK    3  A    between atoms: C_8  and  N_9
REMARK    4  A    between atoms: N_9  and  S_10
REMARK    5  A    between atoms: S_10  and  C_13
REMARK    6  A    between atoms: C_16  and  C_17
REMARK    7  A    between atoms: C_20  and  C_21
REMARK                            x       y       z     vdW  Elec       q    Type
REMARK                         _______ _______ _______ _____ _____    ______ ____
ROOT
ATOM      1  S   UNL     1       6.922   4.997  17.232  0.00  0.00    +0.000 S 
ATOM      2  O   UNL     1       6.604   4.244  18.429  0.00  0.00    +0.000 OA
ATOM      3  O   UNL     1       7.844   4.464  16.249  0.00  0.00    +0.000 OA
ENDROOT
BRANCH   1   4
ATOM      4  C   UNL     1       7.534   6.585  17.748  0.00  0.00    +0.000 A 
ATOM      5  C   UNL     1       7.253   7.724  16.996  0.00  0.00    +0.000 A 
ATOM      6  C   UNL     1       7.777   8.959  17.396  0.00  0.00    +0.000 A 
ATOM      7  C   UNL     1       8.561   9.092  18.562  0.00  0.00    +0.000 A 
ATOM      8  C   UNL     1       8.783   7.927  19.322  0.00  0.00    +0.000 A 
ATOM      9  C   UNL     1       8.270   6.687  18.928  0.00  0.00    +0.000 A 
BRANCH   7  10
ATOM     10  C   UNL     1       9.124  10.404  18.968  0.00  0.00    +0.000 A 
ATOM     11  C   UNL     1       9.478  10.661  20.306  0.00  0.00    +0.000 A 
ATOM     12  C   UNL     1       9.995  11.896  20.707  0.00  0.00    +0.000 A 
ATOM     13  C   UNL     1      10.191  12.903  19.770  0.00  0.00    +0.000 A 
ATOM     14  C   UNL     1       9.860  12.681  18.433  0.00  0.00    +0.000 A 
ATOM     15  C   UNL     1       9.326  11.447  18.044  0.00  0.00    +0.000 A 
BRANCH  13  16
ATOM     16  C   UNL     1      10.728  14.166  20.177  0.00  0.00    +0.000 C 
ATOM     17  N   UNL     1      11.170  15.186  20.495  0.00  0.00    +0.000 NA
ENDBRANCH  13  16
ENDBRANCH   7  10
ENDBRANCH   1   4
BRANCH   1  18
ATOM     18  N   UNL     1       5.473   5.330  16.495  0.00  0.00    +0.000 N 
ATOM     19  H   UNL     1       5.423   5.323  15.485  0.00  0.00    +0.000 HD
BRANCH  18  27
ATOM     20  C   UNL     1       0.715   2.764  19.164  0.00  0.00    +0.000 C 
ATOM     21  N   UNL     1       1.990   2.877  18.478  0.00  0.00    +0.000 N 
ATOM     22  C   UNL     1       2.796   1.682  18.287  0.00  0.00    +0.000 C 
ATOM     23  C   UNL     1       2.564   4.106  18.183  0.00  0.00    +0.000 A 
ATOM     24  C   UNL     1       1.952   5.301  18.577  0.00  0.00    +0.000 A 
ATOM     25  C   UNL     1       2.538   6.532  18.290  0.00  0.00    +0.000 A 
ATOM     26  C   UNL     1       3.739   6.557  17.608  0.00  0.00    +0.000 A 
ATOM     27  C   UNL     1       4.293   5.346  17.250  0.00  0.00    +0.000 A 
ATOM     28  N   UNL     1       3.737   4.144  17.499  0.00  0.00    +0.000 NA
ENDBRANCH  18  27
ENDBRANCH   1  18
TORSDOF 5
ENDMDL
MODEL 2
REMARK VINA RESULT:      -8.0      6.296      8.979
REMARK  Name = 
REMARK  7 active torsions:
REMARK  status: ('A' for Active; 'I' for Inactive)
REMARK    1  A    between atoms: C_1  and  N_2
REMARK    2  A    between atoms: N_2  and  C_3
REMARK    3  A    between atoms: C_8  and  N_9
REMARK    4  A    between atoms: N_9  and  S_10
REMARK    5  A    between atoms: S_10  and  C_13
REMARK    6  A    between atoms: C_16  and  C_17
REMARK    7  A    between atoms: C_20  and  C_21
REMARK                            x       y       z     vdW  Elec       q    Type
REMARK                         _______ _______ _______ _____ _____    ______ ____
ROOT
ATOM      1  S   UNL     1       0.518   9.315  21.685  0.00  0.00    +0.000 S 
ATOM      2  O   UNL     1       1.379   9.447  22.845  0.00  0.00    +0.000 OA
ATOM      3  O   UNL     1      -0.800   8.726  21.808  0.00  0.00    +0.000 OA
ENDROOT
BRANCH   1   4
ATOM      4  C   UNL     1       1.416   8.391  20.459  0.00  0.00    +0.000 A 
ATOM      5  C   UNL     1       1.864   7.102  20.741  0.00  0.00    +0.000 A 
ATOM      6  C   UNL     1       2.604   6.406  19.778  0.00  0.00    +0.000 A 
ATOM      7  C   UNL     1       2.886   6.960  18.512  0.00  0.00    +0.000 A 
ATOM      8  C   UNL     1       2.375   8.246  18.246  0.00  0.00    +0.000 A 
ATOM      9  C   UNL     1       1.641   8.953  19.203  0.00  0.00    +0.000 A 
BRANCH   7  10
ATOM     10  C   UNL     1       3.684   6.218  17.504  0.00  0.00    +0.000 A 
ATOM     11  C   UNL     1       4.535   6.893  16.609  0.00  0.00    +0.000 A 
ATOM     12  C   UNL     1       5.282   6.210  15.645  0.00  0.00    +0.000 A 
ATOM     13  C   UNL     1       5.210   4.824  15.566  0.00  0.00    +0.000 A 
ATOM     14  C   UNL     1       4.384   4.121  16.443  0.00  0.00    +0.000 A 
ATOM     15  C   UNL     1       3.626   4.815  17.394  0.00  0.00    +0.000 A 
BRANCH  13  16
ATOM     16  C   UNL     1       5.980   4.122  14.585  0.00  0.00    +0.000 C 
ATOM     17  N   UNL     1       6.606   3.545  13.801  0.00  0.00    +0.000 NA
ENDBRANCH  13  16
ENDBRANCH   7  10
ENDBRANCH   1   4
BRANCH   1  18
ATOM     18  N   UNL     1       0.377  10.835  21.037  0.00  0.00    +0.000 N 
ATOM     19  H   UNL     1       1.216  11.339  20.781  0.00  0.00    +0.000 HD
BRANCH  18  27
ATOM     20  C   UNL     1      -4.038  11.487  16.984  0.00  0.00    +0.000 C 
ATOM     21  N   UNL     1      -2.814  10.996  17.592  0.00  0.00    +0.000 N 
ATOM     22  C   UNL     1      -2.102   9.900  16.955  0.00  0.00    +0.000 C 
ATOM     23  C   UNL     1      -2.410  11.388  18.860  0.00  0.00    +0.000 A 
ATOM     24  C   UNL     1      -3.195  12.251  19.633  0.00  0.00    +0.000 A 
ATOM     25  C   UNL     1      -2.791  12.631  20.911  0.00  0.00    +0.000 A 
ATOM     26  C   UNL     1      -1.598  12.143  21.408  0.00  0.00    +0.000 A 
ATOM     27  C   UNL     1      -0.871  11.295  20.598  0.00  0.00    +0.000 A 
ATOM     28  N   UNL     1      -1.230  10.927  19.353  0.00  0.00    +0.000 NA
ENDBRANCH  18  27
ENDBRANCH   1  18
TORSDOF 5
ENDMDL
MODEL 3
REMARK VINA RESULT:      -7.9      4.649      7.253
REMARK  Name = 
REMARK  7 active torsions:
REMARK  status: ('A' for Active; 'I' for Inactive)
REMARK    1  A    between atoms: C_1  and  N_2
REMARK    2  A    between atoms: N_2  and  C_3
REMARK    3  A    between atoms: C_8  and  N_9
REMARK    4  A    between atoms: N_9  and  S_10
REMARK    5  A    between atoms: S_10  and  C_13
REMARK    6  A    between atoms: C_16  and  C_17
REMARK    7  A    between atoms: C_20  and  C_21
REMARK                            x       y       z     vdW  Elec       q    Type
REMARK                         _______ _______ _______ _____ _____    ______ ____
ROOT
ATOM      1  S   UNL     1       3.527   3.389  18.539  0.00  0.00    +0.000 S 
ATOM      2  O   UNL     1       3.393   3.376  17.095  0.00  0.00    +0.000 OA
ATOM      3  O   UNL     1       2.999   2.302  19.339  0.00  0.00    +0.000 OA
ENDROOT
BRANCH   1   4
ATOM      4  C   UNL     1       2.800   4.902  19.127  0.00  0.00    +0.000 A 
ATOM      5  C   UNL     1       2.828   6.049  18.336  0.00  0.00    +0.000 A 
ATOM      6  C   UNL     1       2.287   7.240  18.832  0.00  0.00    +0.000 A 
ATOM      7  C   UNL     1       1.684   7.310  20.105  0.00  0.00    +0.000 A 
ATOM      8  C   UNL     1       1.631   6.119  20.856  0.00  0.00    +0.000 A 
ATOM      9  C   UNL     1       2.175   4.925  20.373  0.00  0.00    +0.000 A 
BRANCH   7  10
ATOM     10  C   UNL     1       1.126   8.583  20.627  0.00  0.00    +0.000 A 
ATOM     11  C   UNL     1       0.946   9.698  19.787  0.00  0.00    +0.000 A 
ATOM     12  C   UNL     1       0.436  10.908  20.267  0.00  0.00    +0.000 A 
ATOM     13  C   UNL     1       0.074  11.026  21.603  0.00  0.00    +0.000 A 
ATOM     14  C   UNL     1       0.230   9.939  22.463  0.00  0.00    +0.000 A 
ATOM     15  C   UNL     1       0.757   8.736  21.978  0.00  0.00    +0.000 A 
BRANCH  13  16
ATOM     16  C   UNL     1      -0.456  12.261  22.094  0.00  0.00    +0.000 C 
ATOM     17  N   UNL     1      -0.893  13.260  22.481  0.00  0.00    +0.000 NA
ENDBRANCH  13  16
ENDBRANCH   7  10
ENDBRANCH   1   4
BRANCH   1  18
ATOM     18  N   UNL     1       5.147   3.559  18.852  0.00  0.00    +0.000 N 
ATOM     19  H   UNL     1       5.605   2.883  19.449  0.00  0.00    +0.000 HD
BRANCH  18  27
ATOM     20  C   UNL     1       7.722   5.498  13.757  0.00  0.00    +0.000 C 
ATOM     21  N   UNL     1       6.875   4.713  14.637  0.00  0.00    +0.000 N 
ATOM     22  C   UNL     1       5.926   3.780  14.053  0.00  0.00    +0.000 C 
ATOM     23  C   UNL     1       6.789   4.966  15.999  0.00  0.00    +0.000 A 
ATOM     24  C   UNL     1       7.490   6.028  16.581  0.00  0.00    +0.000 A 
ATOM     25  C   UNL     1       7.389   6.286  17.947  0.00  0.00    +0.000 A 
ATOM     26  C   UNL     1       6.583   5.475  18.723  0.00  0.00    +0.000 A 
ATOM     27  C   UNL     1       5.917   4.447  18.089  0.00  0.00    +0.000 A 
ATOM     28  N   UNL     1       6.012   4.165  16.775  0.00  0.00    +0.000 NA
ENDBRANCH  18  27
ENDBRANCH   1  18
TORSDOF 5
ENDMDL
MODEL 4
REMARK VINA RESULT:      -7.8      4.574      6.914
REMARK  Name = 
REMARK  7 active torsions:
REMARK  status: ('A' for Active; 'I' for Inactive)
REMARK    1  A    between atoms: C_1  and  N_2
REMARK    2  A    between atoms: N_2  and  C_3
REMARK    3  A    between atoms: C_8  and  N_9
REMARK    4  A    between atoms: N_9  and  S_10
REMARK    5  A    between atoms: S_10  and  C_13
REMARK    6  A    between atoms: C_16  and  C_17
REMARK    7  A    between atoms: C_20  and  C_21
REMARK                            x       y       z     vdW  Elec       q    Type
REMARK                         _______ _______ _______ _____ _____    ______ ____
ROOT
ATOM      1  S   UNL     1       3.768   3.242  19.098  0.00  0.00    +0.000 S 
ATOM      2  O   UNL     1       3.550   2.781  17.741  0.00  0.00    +0.000 OA
ATOM      3  O   UNL     1       3.308   2.459  20.227  0.00  0.00    +0.000 OA
ENDROOT
BRANCH   1   4
ATOM      4  C   UNL     1       3.050   4.864  19.231  0.00  0.00    +0.000 A 
ATOM      5  C   UNL     1       3.054   5.726  18.136  0.00  0.00    +0.000 A 
ATOM      6  C   UNL     1       2.520   7.012  18.272  0.00  0.00    +0.000 A 
ATOM      7  C   UNL     1       1.947   7.456  19.482  0.00  0.00    +0.000 A 
ATOM      8  C   UNL     1       1.918   6.541  20.552  0.00  0.00    +0.000 A 
ATOM      9  C   UNL     1       2.455   5.255  20.430  0.00  0.00    +0.000 A 
BRANCH   7  10
ATOM     10  C   UNL     1       1.397   8.829  19.618  0.00  0.00    +0.000 A 
ATOM     11  C   UNL     1       0.918   9.301  20.854  0.00  0.00    +0.000 A 
ATOM     12  C   UNL     1       0.384  10.585  20.996  0.00  0.00    +0.000 A 
ATOM     13  C   UNL     1       0.335  11.440  19.901  0.00  0.00    +0.000 A 
ATOM     14  C   UNL     1       0.810  11.009  18.663  0.00  0.00    +0.000 A 
ATOM     15  C   UNL     1       1.327   9.715  18.526  0.00  0.00    +0.000 A 
BRANCH  13  16
ATOM     16  C   UNL     1      -0.203  12.758  20.046  0.00  0.00    +0.000 C 
ATOM     17  N   UNL     1      -0.626  13.829  20.162  0.00  0.00    +0.000 NA
ENDBRANCH  13  16
ENDBRANCH   7  10
ENDBRANCH   1   4
BRANCH   1  18
ATOM     18  N   UNL     1       5.400   3.499  19.244  0.00  0.00    +0.000 N 
ATOM     19  H   UNL     1       5.954   2.846  19.782  0.00  0.00    +0.000 HD
BRANCH  18  27
ATOM     20  C   UNL     1       7.529   5.507  13.973  0.00  0.00    +0.000 C 
ATOM     21  N   UNL     1       6.810   4.671  14.917  0.00  0.00    +0.000 N 
ATOM     22  C   UNL     1       5.941   3.622  14.409  0.00  0.00    +0.000 C 
ATOM     23  C   UNL     1       6.756   4.964  16.272  0.00  0.00    +0.000 A 
ATOM     24  C   UNL     1       7.365   6.115  16.786  0.00  0.00    +0.000 A 
ATOM     25  C   UNL     1       7.296   6.412  18.146  0.00  0.00    +0.000 A 
ATOM     26  C   UNL     1       6.617   5.550  18.985  0.00  0.00    +0.000 A 
ATOM     27  C   UNL     1       6.037   4.434  18.417  0.00  0.00    +0.000 A 
ATOM     28  N   UNL     1       6.105   4.115  17.109  0.00  0.00    +0.000 NA
ENDBRANCH  18  27
ENDBRANCH   1  18
TORSDOF 5
ENDMDL
MODEL 5
REMARK VINA RESULT:      -7.8      4.763      7.240
REMARK  Name = 
REMARK  7 active torsions:
REMARK  status: ('A' for Active; 'I' for Inactive)
REMARK    1  A    between atoms: C_1  and  N_2
REMARK    2  A    between atoms: N_2  and  C_3
REMARK    3  A    between atoms: C_8  and  N_9
REMARK    4  A    between atoms: N_9  and  S_10
REMARK    5  A    between atoms: S_10  and  C_13
REMARK    6  A    between atoms: C_16  and  C_17
REMARK    7  A    between atoms: C_20  and  C_21
REMARK                            x       y       z     vdW  Elec       q    Type
REMARK                         _______ _______ _______ _____ _____    ______ ____
ROOT
ATOM      1  S   UNL     1       3.222   3.318  18.363  0.00  0.00    +0.000 S 
ATOM      2  O   UNL     1       3.031   3.364  16.926  0.00  0.00    +0.000 OA
ATOM      3  O   UNL     1       2.642   2.250  19.151  0.00  0.00    +0.000 OA
ENDROOT
BRANCH   1   4
ATOM      4  C   UNL     1       2.640   4.863  19.026  0.00  0.00    +0.000 A 
ATOM      5  C   UNL     1       2.216   4.943  20.351  0.00  0.00    +0.000 A 
ATOM      6  C   UNL     1       1.723   6.157  20.843  0.00  0.00    +0.000 A 
ATOM      7  C   UNL     1       1.671   7.317  20.043  0.00  0.00    +0.000 A 
ATOM      8  C   UNL     1       2.154   7.211  18.724  0.00  0.00    +0.000 A 
ATOM      9  C   UNL     1       2.641   6.001  18.220  0.00  0.00    +0.000 A 
BRANCH   7  10
ATOM     10  C   UNL     1       1.133   8.596  20.572  0.00  0.00    +0.000 A 
ATOM     11  C   UNL     1       0.775   8.731  21.926  0.00  0.00    +0.000 A 
ATOM     12  C   UNL     1       0.254   9.923  22.436  0.00  0.00    +0.000 A 
ATOM     13  C   UNL     1       0.095  11.023  21.602  0.00  0.00    +0.000 A 
ATOM     14  C   UNL     1       0.448  10.929  20.255  0.00  0.00    +0.000 A 
ATOM     15  C   UNL     1       0.953   9.726  19.750  0.00  0.00    +0.000 A 
BRANCH  13  16
ATOM     16  C   UNL     1      -0.431  12.248  22.123  0.00  0.00    +0.000 C 
ATOM     17  N   UNL     1      -0.847  13.245  22.536  0.00  0.00    +0.000 NA
ENDBRANCH  13  16
ENDBRANCH   7  10
ENDBRANCH   1   4
BRANCH   1  18
ATOM     18  N   UNL     1       4.861   3.351  18.613  0.00  0.00    +0.000 N 
ATOM     19  H   UNL     1       5.299   2.579  19.098  0.00  0.00    +0.000 HD
BRANCH  18  27
ATOM     20  C   UNL     1       7.737   5.502  13.771  0.00  0.00    +0.000 C 
ATOM     21  N   UNL     1       6.855   4.668  14.567  0.00  0.00    +0.000 N 
ATOM     22  C   UNL     1       5.984   3.719  13.892  0.00  0.00    +0.000 C 
ATOM     23  C   UNL     1       6.659   4.883  15.924  0.00  0.00    +0.000 A 
ATOM     24  C   UNL     1       7.278   5.952  16.582  0.00  0.00    +0.000 A 
ATOM     25  C   UNL     1       7.068   6.173  17.941  0.00  0.00    +0.000 A 
ATOM     26  C   UNL     1       6.236   5.316  18.636  0.00  0.00    +0.000 A 
ATOM     27  C   UNL     1       5.655   4.283  17.931  0.00  0.00    +0.000 A 
ATOM     28  N   UNL     1       5.856   4.038  16.621  0.00  0.00    +0.000 NA
ENDBRANCH  18  27
ENDBRANCH   1  18
TORSDOF 5
ENDMDL
MODEL 6
REMARK VINA RESULT:      -7.8      6.313      8.900
REMARK  Name = 
REMARK  7 active torsions:
REMARK  status: ('A' for Active; 'I' for Inactive)
REMARK    1  A    between atoms: C_1  and  N_2
REMARK    2  A    between atoms: N_2  and  C_3
REMARK    3  A    between atoms: C_8  and  N_9
REMARK    4  A    between atoms: N_9  and  S_10
REMARK    5  A    between atoms: S_10  and  C_13
REMARK    6  A    between atoms: C_16  and  C_17
REMARK    7  A    between atoms: C_20  and  C_21
REMARK                            x       y       z     vdW  Elec       q    Type
REMARK                         _______ _______ _______ _____ _____    ______ ____
ROOT
ATOM      1  S   UNL     1       0.495   9.301  21.513  0.00  0.00    +0.000 S 
ATOM      2  O   UNL     1       1.294   9.434  22.716  0.00  0.00    +0.000 OA
ATOM      3  O   UNL     1      -0.809   8.669  21.559  0.00  0.00    +0.000 OA
ENDROOT
BRANCH   1   4
ATOM      4  C   UNL     1       1.480   8.434  20.312  0.00  0.00    +0.000 A 
ATOM      5  C   UNL     1       1.799   9.038  19.098  0.00  0.00    +0.000 A 
ATOM      6  C   UNL     1       2.541   8.324  18.150  0.00  0.00    +0.000 A 
ATOM      7  C   UNL     1       3.003   7.015  18.399  0.00  0.00    +0.000 A 
ATOM      8  C   UNL     1       2.701   6.455  19.656  0.00  0.00    +0.000 A 
ATOM      9  C   UNL     1       1.955   7.156  20.608  0.00  0.00    +0.000 A 
BRANCH   7  10
ATOM     10  C   UNL     1       3.776   6.262  17.379  0.00  0.00    +0.000 A 
ATOM     11  C   UNL     1       3.724   4.857  17.317  0.00  0.00    +0.000 A 
ATOM     12  C   UNL     1       4.457   4.132  16.372  0.00  0.00    +0.000 A 
ATOM     13  C   UNL     1       5.250   4.803  15.448  0.00  0.00    +0.000 A 
ATOM     14  C   UNL     1       5.318   6.196  15.474  0.00  0.00    +0.000 A 
ATOM     15  C   UNL     1       4.595   6.912  16.434  0.00  0.00    +0.000 A 
BRANCH  13  16
ATOM     16  C   UNL     1       5.995   4.064  14.475  0.00  0.00    +0.000 C 
ATOM     17  N   UNL     1       6.587   3.469  13.679  0.00  0.00    +0.000 NA
ENDBRANCH  13  16
ENDBRANCH   7  10
ENDBRANCH   1   4
BRANCH   1  18
ATOM     18  N   UNL     1       0.336  10.831  20.892  0.00  0.00    +0.000 N 
ATOM     19  H   UNL     1       1.169  11.344  20.633  0.00  0.00    +0.000 HD
BRANCH  18  27
ATOM     20  C   UNL     1      -4.136  11.521  16.909  0.00  0.00    +0.000 C 
ATOM     21  N   UNL     1      -2.902  11.028  17.492  0.00  0.00    +0.000 N 
ATOM     22  C   UNL     1      -2.192   9.947  16.828  0.00  0.00    +0.000 C 
ATOM     23  C   UNL     1      -2.483  11.402  18.761  0.00  0.00    +0.000 A 
ATOM     24  C   UNL     1      -3.263  12.248  19.558  0.00  0.00    +0.000 A 
ATOM     25  C   UNL     1      -2.844  12.609  20.837  0.00  0.00    +0.000 A 
ATOM     26  C   UNL     1      -1.642  12.120  21.310  0.00  0.00    +0.000 A 
ATOM     27  C   UNL     1      -0.921  11.291  20.477  0.00  0.00    +0.000 A 
ATOM     28  N   UNL     1      -1.294  10.940  19.231  0.00  0.00    +0.000 NA
ENDBRANCH  18  27
ENDBRANCH   1  18
TORSDOF 5
ENDMDL
MODEL 7
REMARK VINA RESULT:      -7.8      4.597      7.080
REMARK  Name = 
REMARK  7 active torsions:
REMARK  status: ('A' for Active; 'I' for Inactive)
REMARK    1  A    between atoms: C_1  and  N_2
REMARK    2  A    between atoms: N_2  and  C_3
REMARK    3  A    between atoms: C_8  and  N_9
REMARK    4  A    between atoms: N_9  and  S_10
REMARK    5  A    between atoms: S_10  and  C_13
REMARK    6  A    between atoms: C_16  and  C_17
REMARK    7  A    between atoms: C_20  and  C_21
REMARK                            x       y       z     vdW  Elec       q    Type
REMARK                         _______ _______ _______ _____ _____    ______ ____
ROOT
ATOM      1  S   UNL     1       3.760   3.304  18.954  0.00  0.00    +0.000 S 
ATOM      2  O   UNL     1       3.511   2.915  17.579  0.00  0.00    +0.000 OA
ATOM      3  O   UNL     1       3.298   2.476  20.050  0.00  0.00    +0.000 OA
ENDROOT
BRANCH   1   4
ATOM      4  C   UNL     1       3.082   4.933  19.177  0.00  0.00    +0.000 A 
ATOM      5  C   UNL     1       2.568   5.316  20.414  0.00  0.00    +0.000 A 
ATOM      6  C   UNL     1       2.002   6.588  20.559  0.00  0.00    +0.000 A 
ATOM      7  C   UNL     1       1.962   7.511  19.493  0.00  0.00    +0.000 A 
ATOM      8  C   UNL     1       2.534   7.105  18.271  0.00  0.00    +0.000 A 
ATOM      9  C   UNL     1       3.096   5.834  18.113  0.00  0.00    +0.000 A 
BRANCH   7  10
ATOM     10  C   UNL     1       1.345   8.852  19.655  0.00  0.00    +0.000 A 
ATOM     11  C   UNL     1       1.184   9.716  18.556  0.00  0.00    +0.000 A 
ATOM     12  C   UNL     1       0.618  10.987  18.694  0.00  0.00    +0.000 A 
ATOM     13  C   UNL     1       0.181  11.418  19.940  0.00  0.00    +0.000 A 
ATOM     14  C   UNL     1       0.317  10.585  21.050  0.00  0.00    +0.000 A 
ATOM     15  C   UNL     1       0.900   9.321  20.906  0.00  0.00    +0.000 A 
BRANCH  13  16
ATOM     16  C   UNL     1      -0.406  12.716  20.083  0.00  0.00    +0.000 C 
ATOM     17  N   UNL     1      -0.885  13.761  20.211  0.00  0.00    +0.000 NA
ENDBRANCH  13  16
ENDBRANCH   7  10
ENDBRANCH   1   4
BRANCH   1  18
ATOM     18  N   UNL     1       5.400   3.516  19.085  0.00  0.00    +0.000 N 
ATOM     19  H   UNL     1       5.943   2.837  19.603  0.00  0.00    +0.000 HD
BRANCH  18  27
ATOM     20  C   UNL     1       7.625   5.530  13.857  0.00  0.00    +0.000 C 
ATOM     21  N   UNL     1       6.889   4.692  14.786  0.00  0.00    +0.000 N 
ATOM     22  C   UNL     1       6.031   3.642  14.261  0.00  0.00    +0.000 C 
ATOM     23  C   UNL     1       6.810   4.984  16.141  0.00  0.00    +0.000 A 
ATOM     24  C   UNL     1       7.407   6.135  16.667  0.00  0.00    +0.000 A 
ATOM     25  C   UNL     1       7.313   6.431  18.025  0.00  0.00    +0.000 A 
ATOM     26  C   UNL     1       6.619   5.568  18.851  0.00  0.00    +0.000 A 
ATOM     27  C   UNL     1       6.051   4.452  18.271  0.00  0.00    +0.000 A 
ATOM     28  N   UNL     1       6.143   4.134  16.965  0.00  0.00    +0.000 NA
ENDBRANCH  18  27
ENDBRANCH   1  18
TORSDOF 5
ENDMDL
MODEL 8
REMARK VINA RESULT:      -7.7      0.994      1.411
REMARK  Name = 
REMARK  7 active torsions:
REMARK  status: ('A' for Active; 'I' for Inactive)
REMARK    1  A    between atoms: C_1  and  N_2
REMARK    2  A    between atoms: N_2  and  C_3
REMARK    3  A    between atoms: C_8  and  N_9
REMARK    4  A    between atoms: N_9  and  S_10
REMARK    5  A    between atoms: S_10  and  C_13
REMARK    6  A    between atoms: C_16  and  C_17
REMARK    7  A    between atoms: C_20  and  C_21
REMARK                            x       y       z     vdW  Elec       q    Type
REMARK                         _______ _______ _______ _____ _____    ______ ____
ROOT
ATOM      1  S   UNL     1       6.866   4.985  17.201  0.00  0.00    +0.000 S 
ATOM      2  O   UNL     1       8.003   4.169  16.822  0.00  0.00    +0.000 OA
ATOM      3  O   UNL     1       5.787   5.227  16.265  0.00  0.00    +0.000 OA
ENDROOT
BRANCH   1   4
ATOM      4  C   UNL     1       7.496   6.564  17.727  0.00  0.00    +0.000 A 
ATOM      5  C   UNL     1       7.197   7.715  17.003  0.00  0.00    +0.000 A 
ATOM      6  C   UNL     1       7.735   8.942  17.409  0.00  0.00    +0.000 A 
ATOM      7  C   UNL     1       8.550   9.054  18.554  0.00  0.00    +0.000 A 
ATOM      8  C   UNL     1       8.791   7.876  19.289  0.00  0.00    +0.000 A 
ATOM      9  C   UNL     1       8.265   6.644  18.887  0.00  0.00    +0.000 A 
BRANCH   7  10
ATOM     10  C   UNL     1       9.127  10.358  18.968  0.00  0.00    +0.000 A 
ATOM     11  C   UNL     1       9.475  11.335  18.016  0.00  0.00    +0.000 A 
ATOM     12  C   UNL     1      10.032  12.562  18.387  0.00  0.00    +0.000 A 
ATOM     13  C   UNL     1      10.238  12.850  19.731  0.00  0.00    +0.000 A 
ATOM     14  C   UNL     1       9.897  11.910  20.703  0.00  0.00    +0.000 A 
ATOM     15  C   UNL     1       9.356  10.677  20.320  0.00  0.00    +0.000 A 
BRANCH  13  16
ATOM     16  C   UNL     1      10.801  14.108  20.115  0.00  0.00    +0.000 C 
ATOM     17  N   UNL     1      11.252  15.124  20.438  0.00  0.00    +0.000 NA
ENDBRANCH  13  16
ENDBRANCH   7  10
ENDBRANCH   1   4
BRANCH   1  18
ATOM     18  N   UNL     1       6.247   4.305  18.581  0.00  0.00    +0.000 N 
ATOM     19  H   UNL     1       6.883   3.914  19.264  0.00  0.00    +0.000 HD
BRANCH  18  27
ATOM     20  C   UNL     1       0.450   2.705  19.006  0.00  0.00    +0.000 C 
ATOM     21  N   UNL     1       1.880   2.582  18.786  0.00  0.00    +0.000 N 
ATOM     22  C   UNL     1       2.450   1.261  18.578  0.00  0.00    +0.000 C 
ATOM     23  C   UNL     1       2.750   3.647  18.972  0.00  0.00    +0.000 A 
ATOM     24  C   UNL     1       2.287   4.887  19.426  0.00  0.00    +0.000 A 
ATOM     25  C   UNL     1       3.166   5.949  19.625  0.00  0.00    +0.000 A 
ATOM     26  C   UNL     1       4.511   5.761  19.366  0.00  0.00    +0.000 A 
ATOM     27  C   UNL     1       4.904   4.515  18.923  0.00  0.00    +0.000 A 
ATOM     28  N   UNL     1       4.072   3.479  18.705  0.00  0.00    +0.000 NA
ENDBRANCH  18  27
ENDBRANCH   1  18
TORSDOF 5
ENDMDL
MODEL 9
REMARK VINA RESULT:      -7.7      6.474      9.728
REMARK  Name = 
REMARK  7 active torsions:
REMARK  status: ('A' for Active; 'I' for Inactive)
REMARK    1  A    between atoms: C_1  and  N_2
REMARK    2  A    between atoms: N_2  and  C_3
REMARK    3  A    between atoms: C_8  and  N_9
REMARK    4  A    between atoms: N_9  and  S_10
REMARK    5  A    between atoms: S_10  and  C_13
REMARK    6  A    between atoms: C_16  and  C_17
REMARK    7  A    between atoms: C_20  and  C_21
REMARK                            x       y       z     vdW  Elec       q    Type
REMARK                         _______ _______ _______ _____ _____    ______ ____
ROOT
ATOM      1  S   UNL     1       0.341   9.183  21.775  0.00  0.00    +0.000 S 
ATOM      2  O   UNL     1       1.283   9.683  22.757  0.00  0.00    +0.000 OA
ATOM      3  O   UNL     1      -0.770   8.344  22.178  0.00  0.00    +0.000 OA
ENDROOT
BRANCH   1   4
ATOM      4  C   UNL     1       1.273   8.300  20.544  0.00  0.00    +0.000 A 
ATOM      5  C   UNL     1       1.716   7.003  20.796  0.00  0.00    +0.000 A 
ATOM      6  C   UNL     1       2.483   6.339  19.831  0.00  0.00    +0.000 A 
ATOM      7  C   UNL     1       2.797   6.935  18.592  0.00  0.00    +0.000 A 
ATOM      8  C   UNL     1       2.291   8.228  18.354  0.00  0.00    +0.000 A 
ATOM      9  C   UNL     1       1.530   8.903  19.314  0.00  0.00    +0.000 A 
BRANCH   7  10
ATOM     10  C   UNL     1       3.623   6.226  17.582  0.00  0.00    +0.000 A 
ATOM     11  C   UNL     1       4.468   6.934  16.706  0.00  0.00    +0.000 A 
ATOM     12  C   UNL     1       5.241   6.283  15.741  0.00  0.00    +0.000 A 
ATOM     13  C   UNL     1       5.202   4.898  15.641  0.00  0.00    +0.000 A 
ATOM     14  C   UNL     1       4.384   4.163  16.498  0.00  0.00    +0.000 A 
ATOM     15  C   UNL     1       3.600   4.824  17.451  0.00  0.00    +0.000 A 
BRANCH  13  16
ATOM     16  C   UNL     1       5.999   4.228  14.659  0.00  0.00    +0.000 C 
ATOM     17  N   UNL     1       6.636   3.676  13.866  0.00  0.00    +0.000 NA
ENDBRANCH  13  16
ENDBRANCH   7  10
ENDBRANCH   1   4
BRANCH   1  18
ATOM     18  N   UNL     1      -0.245  10.514  20.976  0.00  0.00    +0.000 N 
ATOM     19  H   UNL     1      -0.552  10.415  20.017  0.00  0.00    +0.000 HD
BRANCH  18  27
ATOM     20  C   UNL     1       0.692  16.179  22.812  0.00  0.00    +0.000 C 
ATOM     21  N   UNL     1       0.858  14.953  22.052  0.00  0.00    +0.000 N 
ATOM     22  C   UNL     1       1.768  14.944  20.919  0.00  0.00    +0.000 C 
ATOM     23  C   UNL     1       0.031  13.853  22.234  0.00  0.00    +0.000 A 
ATOM     24  C   UNL     1      -1.037  13.895  23.138  0.00  0.00    +0.000 A 
ATOM     25  C   UNL     1      -1.873  12.793  23.307  0.00  0.00    +0.000 A 
ATOM     26  C   UNL     1      -1.632  11.652  22.567  0.00  0.00    +0.000 A 
ATOM     27  C   UNL     1      -0.566  11.674  21.692  0.00  0.00    +0.000 A 
ATOM     28  N   UNL     1       0.268  12.720  21.523  0.00  0.00    +0.000 NA
ENDBRANCH  18  27
ENDBRANCH   1  18
TORSDOF 5
ENDMDL
