MODEL 1
REMARK VINA RESULT:      -7.9      0.000      0.000
REMARK  Name = 
REMARK  11 active torsions:
REMARK  status: ('A' for Active; 'I' for Inactive)
REMARK    1  A    between atoms: C_1  and  C_2
REMARK    2  A    between atoms: C_2  and  C_3
REMARK    3  A    between atoms: C_4  and  C_5
REMARK    4  A    between atoms: C_5  and  C_7
REMARK    5  A    between atoms: C_12  and  O_13
REMARK    6  A    between atoms: O_13  and  C_14
REMARK    7  A    between atoms: C_14  and  C_15
REMARK    8  A    between atoms: C_15  and  O_17
REMARK    9  A    between atoms: C_21  and  C_22
REMARK   10  A    between atoms: C_22  and  C_23
REMARK   11  A    between atoms: C_28  and  C_29
REMARK                            x       y       z     vdW  Elec       q    Type
REMARK                         _______ _______ _______ _____ _____    ______ ____
ROOT
ATOM      1  C   UNL     1      -4.093  12.423  19.596  0.00  0.00    +0.000 A 
ATOM      2  C   UNL     1      -4.898  12.123  18.443  0.00  0.00    +0.000 A 
ATOM      3  C   UNL     1      -4.057  11.522  17.516  0.00  0.00    +0.000 A 
ATOM      4  C   UNL     1      -4.196  11.115  16.151  0.00  0.00    +0.000 A 
ATOM      5  C   UNL     1      -3.203  10.439  15.526  0.00  0.00    +0.000 A 
ATOM      6  C   UNL     1      -1.981  10.110  16.243  0.00  0.00    +0.000 A 
ATOM      7  C   UNL     1      -1.809  10.560  17.498  0.00  0.00    +0.000 A 
ATOM      8  N   UNL     1      -2.819  11.304  18.114  0.00  0.00    +0.000 N 
ATOM      9  C   UNL     1      -2.805  11.962  19.327  0.00  0.00    +0.000 A 
ENDROOT
BRANCH   1  11
ATOM     10  C   UNL     1      -4.111  14.613  20.861  0.00  0.00    +0.000 C 
ATOM     11  C   UNL     1      -4.545  13.155  20.832  0.00  0.00    +0.000 C 
ENDBRANCH   1  11
BRANCH   2  12
ATOM     12  C   UNL     1      -6.307  12.459  18.245  0.00  0.00    +0.000 C 
ATOM     13  O   UNL     1      -7.228  11.767  18.679  0.00  0.00    +0.000 OA
BRANCH  12  14
ATOM     14  C   UNL     1      -6.718  13.739  17.515  0.00  0.00    +0.000 C 
ATOM     15  N   UNL     1      -6.473  14.898  18.210  0.00  0.00    +0.000 N 
ATOM     16  O   UNL     1      -7.239  13.718  16.412  0.00  0.00    +0.000 OA
ATOM     17  H   UNL     1      -6.257  14.838  19.198  0.00  0.00    +0.000 HD
ATOM     18  H   UNL     1      -6.915  15.740  17.867  0.00  0.00    +0.000 HD
ENDBRANCH  12  14
ENDBRANCH   2  12
BRANCH   5  19
ATOM     19  O   UNL     1      -3.193  10.006  14.217  0.00  0.00    +0.000 OA
BRANCH  19  20
ATOM     20  C   UNL     1      -4.471   9.930  13.576  0.00  0.00    +0.000 C 
BRANCH  20  21
ATOM     21  C   UNL     1      -4.314   9.826  12.068  0.00  0.00    +0.000 C 
ATOM     22  O   UNL     1      -3.291   9.454  11.507  0.00  0.00    +0.000 OA
BRANCH  21  23
ATOM     23  O   UNL     1      -5.432  10.165  11.386  0.00  0.00    +0.000 OA
ATOM     24  H   UNL     1      -5.937   9.358  11.144  0.00  0.00    +0.000 HD
ENDBRANCH  21  23
ENDBRANCH  20  21
ENDBRANCH  19  20
ENDBRANCH   5  19
BRANCH   9  25
ATOM     25  C   UNL     1      -1.537  12.200  20.105  0.00  0.00    +0.000 C 
BRANCH  25  26
ATOM     26  C   UNL     1      -1.039  11.101  21.032  0.00  0.00    +0.000 A 
ATOM     27  C   UNL     1      -0.338  10.000  20.488  0.00  0.00    +0.000 A 
ATOM     28  C   UNL     1       0.220   9.015  21.299  0.00  0.00    +0.000 A 
ATOM     29  C   UNL     1       0.071   9.095  22.673  0.00  0.00    +0.000 A 
ATOM     30  C   UNL     1      -0.653  10.152  23.232  0.00  0.00    +0.000 A 
ATOM     31  C   UNL     1      -1.223  11.185  22.448  0.00  0.00    +0.000 A 
BRANCH  31  32
ATOM     32  C   UNL     1      -1.908  12.317  23.155  0.00  0.00    +0.000 A 
ATOM     33  C   UNL     1      -3.201  12.157  23.696  0.00  0.00    +0.000 A 
ATOM     34  C   UNL     1      -3.839  13.178  24.416  0.00  0.00    +0.000 A 
ATOM     35  C   UNL     1      -3.186  14.381  24.649  0.00  0.00    +0.000 A 
ATOM     36  C   UNL     1      -1.931  14.588  24.096  0.00  0.00    +0.000 A 
ATOM     37  C   UNL     1      -1.330  13.589  23.320  0.00  0.00    +0.000 A 
ENDBRANCH  31  32
ENDBRANCH  25  26
ENDBRANCH   9  25
TORSDOF 10
ENDMDL
MODEL 2
REMARK VINA RESULT:      -7.5      7.749     11.593
REMARK  Name = 
REMARK  11 active torsions:
REMARK  status: ('A' for Active; 'I' for Inactive)
REMARK    1  A    between atoms: C_1  and  C_2
REMARK    2  A    between atoms: C_2  and  C_3
REMARK    3  A    between atoms: C_4  and  C_5
REMARK    4  A    between atoms: C_5  and  C_7
REMARK    5  A    between atoms: C_12  and  O_13
REMARK    6  A    between atoms: O_13  and  C_14
REMARK    7  A    between atoms: C_14  and  C_15
REMARK    8  A    between atoms: C_15  and  O_17
REMARK    9  A    between atoms: C_21  and  C_22
REMARK   10  A    between atoms: C_22  and  C_23
REMARK   11  A    between atoms: C_28  and  C_29
REMARK                            x       y       z     vdW  Elec       q    Type
REMARK                         _______ _______ _______ _____ _____    ______ ____
ROOT
ATOM      1  C   UNL     1       3.582   4.489  18.243  0.00  0.00    +0.000 A 
ATOM      2  C   UNL     1       2.944   4.475  19.531  0.00  0.00    +0.000 A 
ATOM      3  C   UNL     1       2.538   5.778  19.787  0.00  0.00    +0.000 A 
ATOM      4  C   UNL     1       1.979   6.449  20.922  0.00  0.00    +0.000 A 
ATOM      5  C   UNL     1       1.577   7.739  20.832  0.00  0.00    +0.000 A 
ATOM      6  C   UNL     1       1.701   8.457  19.573  0.00  0.00    +0.000 A 
ATOM      7  C   UNL     1       2.301   7.860  18.528  0.00  0.00    +0.000 A 
ATOM      8  N   UNL     1       2.762   6.546  18.649  0.00  0.00    +0.000 N 
ATOM      9  C   UNL     1       3.507   5.795  17.763  0.00  0.00    +0.000 A 
ENDROOT
BRANCH   1  11
ATOM     10  C   UNL     1       3.336   2.132  17.360  0.00  0.00    +0.000 C 
ATOM     11  C   UNL     1       4.259   3.323  17.572  0.00  0.00    +0.000 C 
ENDBRANCH   1  11
BRANCH   2  12
ATOM     12  C   UNL     1       2.819   3.334  20.436  0.00  0.00    +0.000 C 
ATOM     13  O   UNL     1       3.781   2.656  20.797  0.00  0.00    +0.000 OA
BRANCH  12  14
ATOM     14  C   UNL     1       1.465   2.944  21.032  0.00  0.00    +0.000 C 
ATOM     15  N   UNL     1       0.411   3.013  20.154  0.00  0.00    +0.000 N 
ATOM     16  O   UNL     1       1.340   2.617  22.201  0.00  0.00    +0.000 OA
ATOM     17  H   UNL     1       0.538   3.506  19.277  0.00  0.00    +0.000 HD
ATOM     18  H   UNL     1      -0.519   2.973  20.550  0.00  0.00    +0.000 HD
ENDBRANCH  12  14
ENDBRANCH   2  12
BRANCH   5  19
ATOM     19  O   UNL     1       1.042   8.511  21.842  0.00  0.00    +0.000 OA
BRANCH  19  20
ATOM     20  C   UNL     1      -0.087   9.313  21.482  0.00  0.00    +0.000 C 
BRANCH  20  21
ATOM     21  C   UNL     1      -0.548  10.157  22.659  0.00  0.00    +0.000 C 
ATOM     22  O   UNL     1      -1.162  11.211  22.551  0.00  0.00    +0.000 OA
BRANCH  21  23
ATOM     23  O   UNL     1      -0.235   9.622  23.861  0.00  0.00    +0.000 OA
ATOM     24  H   UNL     1       0.413   8.893  23.747  0.00  0.00    +0.000 HD
ENDBRANCH  21  23
ENDBRANCH  20  21
ENDBRANCH  19  20
ENDBRANCH   5  19
BRANCH   9  25
ATOM     25  C   UNL     1       4.189   6.400  16.563  0.00  0.00    +0.000 C 
BRANCH  25  26
ATOM     26  C   UNL     1       5.153   5.534  15.765  0.00  0.00    +0.000 A 
ATOM     27  C   UNL     1       4.663   4.766  14.684  0.00  0.00    +0.000 A 
ATOM     28  C   UNL     1       5.515   4.030  13.864  0.00  0.00    +0.000 A 
ATOM     29  C   UNL     1       6.875   4.026  14.119  0.00  0.00    +0.000 A 
ATOM     30  C   UNL     1       7.379   4.744  15.207  0.00  0.00    +0.000 A 
ATOM     31  C   UNL     1       6.553   5.520  16.057  0.00  0.00    +0.000 A 
BRANCH  31  32
ATOM     32  C   UNL     1       7.207   6.320  17.145  0.00  0.00    +0.000 A 
ATOM     33  C   UNL     1       7.578   5.716  18.365  0.00  0.00    +0.000 A 
ATOM     34  C   UNL     1       8.247   6.425  19.374  0.00  0.00    +0.000 A 
ATOM     35  C   UNL     1       8.599   7.754  19.178  0.00  0.00    +0.000 A 
ATOM     36  C   UNL     1       8.213   8.391  18.008  0.00  0.00    +0.000 A 
ATOM     37  C   UNL     1       7.484   7.695  17.035  0.00  0.00    +0.000 A 
ENDBRANCH  31  32
ENDBRANCH  25  26
ENDBRANCH   9  25
TORSDOF 10
ENDMDL
MODEL 3
REMARK VINA RESULT:      -7.3      7.892     11.951
REMARK  Name = 
REMARK  11 active torsions:
REMARK  status: ('A' for Active; 'I' for Inactive)
REMARK    1  A    between atoms: C_1  and  C_2
REMARK    2  A    between atoms: C_2  and  C_3
REMARK    3  A    between atoms: C_4  and  C_5
REMARK    4  A    between atoms: C_5  and  C_7
REMARK    5  A    between atoms: C_12  and  O_13
REMARK    6  A    between atoms: O_13  and  C_14
REMARK    7  A    between atoms: C_14  and  C_15
REMARK    8  A    between atoms: C_15  and  O_17
REMARK    9  A    between atoms: C_21  and  C_22
REMARK   10  A    between atoms: C_22  and  C_23
REMARK   11  A    between atoms: C_28  and  C_29
REMARK                            x       y       z     vdW  Elec       q    Type
REMARK                         _______ _______ _______ _____ _____    ______ ____
ROOT
ATOM      1  C   UNL     1       2.608   3.971  18.351  0.00  0.00    +0.000 A 
ATOM      2  C   UNL     1       1.745   4.132  19.490  0.00  0.00    +0.000 A 
ATOM      3  C   UNL     1       1.768   5.480  19.819  0.00  0.00    +0.000 A 
ATOM      4  C   UNL     1       1.247   6.257  20.903  0.00  0.00    +0.000 A 
ATOM      5  C   UNL     1       1.343   7.607  20.894  0.00  0.00    +0.000 A 
ATOM      6  C   UNL     1       1.973   8.287  19.772  0.00  0.00    +0.000 A 
ATOM      7  C   UNL     1       2.538   7.561  18.793  0.00  0.00    +0.000 A 
ATOM      8  N   UNL     1       2.480   6.165  18.840  0.00  0.00    +0.000 N 
ATOM      9  C   UNL     1       3.092   5.236  18.023  0.00  0.00    +0.000 A 
ENDROOT
BRANCH   1  11
ATOM     10  C   UNL     1       4.071   1.909  18.402  0.00  0.00    +0.000 C 
ATOM     11  C   UNL     1       2.967   2.670  17.683  0.00  0.00    +0.000 C 
ENDBRANCH   1  11
BRANCH   2  12
ATOM     12  C   UNL     1       1.044   3.073  20.216  0.00  0.00    +0.000 C 
ATOM     13  O   UNL     1       0.065   2.483  19.761  0.00  0.00    +0.000 OA
BRANCH  12  14
ATOM     14  C   UNL     1       1.531   2.602  21.588  0.00  0.00    +0.000 C 
ATOM     15  N   UNL     1       2.896   2.495  21.705  0.00  0.00    +0.000 N 
ATOM     16  O   UNL     1       0.759   2.328  22.492  0.00  0.00    +0.000 OA
ATOM     17  H   UNL     1       3.461   2.512  20.864  0.00  0.00    +0.000 HD
ATOM     18  H   UNL     1       3.248   1.991  22.509  0.00  0.00    +0.000 HD
ENDBRANCH  12  14
ENDBRANCH   2  12
BRANCH   5  19
ATOM     19  O   UNL     1       0.906   8.475  21.873  0.00  0.00    +0.000 OA
BRANCH  19  20
ATOM     20  C   UNL     1      -0.405   9.017  21.684  0.00  0.00    +0.000 C 
BRANCH  20  21
ATOM     21  C   UNL     1      -0.375  10.536  21.737  0.00  0.00    +0.000 C 
ATOM     22  O   UNL     1      -0.428  11.259  20.751  0.00  0.00    +0.000 OA
BRANCH  21  23
ATOM     23  O   UNL     1      -0.304  11.030  22.994  0.00  0.00    +0.000 OA
ATOM     24  H   UNL     1      -0.963  10.583  23.569  0.00  0.00    +0.000 HD
ENDBRANCH  21  23
ENDBRANCH  20  21
ENDBRANCH  19  20
ENDBRANCH   5  19
BRANCH   9  25
ATOM     25  C   UNL     1       4.180   5.606  17.048  0.00  0.00    +0.000 C 
BRANCH  25  26
ATOM     26  C   UNL     1       5.628   5.416  17.473  0.00  0.00    +0.000 A 
ATOM     27  C   UNL     1       6.001   5.689  18.809  0.00  0.00    +0.000 A 
ATOM     28  C   UNL     1       7.291   5.445  19.274  0.00  0.00    +0.000 A 
ATOM     29  C   UNL     1       8.246   4.942  18.408  0.00  0.00    +0.000 A 
ATOM     30  C   UNL     1       7.913   4.703  17.072  0.00  0.00    +0.000 A 
ATOM     31  C   UNL     1       6.610   4.920  16.559  0.00  0.00    +0.000 A 
BRANCH  31  32
ATOM     32  C   UNL     1       6.339   4.551  15.130  0.00  0.00    +0.000 A 
ATOM     33  C   UNL     1       7.250   4.891  14.108  0.00  0.00    +0.000 A 
ATOM     34  C   UNL     1       7.053   4.504  12.774  0.00  0.00    +0.000 A 
ATOM     35  C   UNL     1       5.952   3.732  12.427  0.00  0.00    +0.000 A 
ATOM     36  C   UNL     1       5.013   3.415  13.399  0.00  0.00    +0.000 A 
ATOM     37  C   UNL     1       5.183   3.865  14.715  0.00  0.00    +0.000 A 
ENDBRANCH  31  32
ENDBRANCH  25  26
ENDBRANCH   9  25
TORSDOF 10
ENDMDL
MODEL 4
REMARK VINA RESULT:      -7.3      7.410     11.173
REMARK  Name = 
REMARK  11 active torsions:
REMARK  status: ('A' for Active; 'I' for Inactive)
REMARK    1  A    between atoms: C_1  and  C_2
REMARK    2  A    between atoms: C_2  and  C_3
REMARK    3  A    between atoms: C_4  and  C_5
REMARK    4  A    between atoms: C_5  and  C_7
REMARK    5  A    between atoms: C_12  and  O_13
REMARK    6  A    between atoms: O_13  and  C_14
REMARK    7  A    between atoms: C_14  and  C_15
REMARK    8  A    between atoms: C_15  and  O_17
REMARK    9  A    between atoms: C_21  and  C_22
REMARK   10  A    between atoms: C_22  and  C_23
REMARK   11  A    between atoms: C_28  and  C_29
REMARK                            x       y       z     vdW  Elec       q    Type
REMARK                         _______ _______ _______ _____ _____    ______ ____
ROOT
ATOM      1  C   UNL     1       3.370   5.337  18.257  0.00  0.00    +0.000 A 
ATOM      2  C   UNL     1       2.553   5.564  19.419  0.00  0.00    +0.000 A 
ATOM      3  C   UNL     1       2.190   6.904  19.394  0.00  0.00    +0.000 A 
ATOM      4  C   UNL     1       1.514   7.776  20.306  0.00  0.00    +0.000 A 
ATOM      5  C   UNL     1       1.204   9.044  19.947  0.00  0.00    +0.000 A 
ATOM      6  C   UNL     1       1.550   9.533  18.621  0.00  0.00    +0.000 A 
ATOM      7  C   UNL     1       2.258   8.748  17.791  0.00  0.00    +0.000 A 
ATOM      8  N   UNL     1       2.620   7.459  18.194  0.00  0.00    +0.000 N 
ATOM      9  C   UNL     1       3.440   6.545  17.565  0.00  0.00    +0.000 A 
ENDROOT
BRANCH   1  11
ATOM     10  C   UNL     1       4.920   3.493  19.025  0.00  0.00    +0.000 C 
ATOM     11  C   UNL     1       4.067   4.052  17.896  0.00  0.00    +0.000 C 
ENDBRANCH   1  11
BRANCH   2  12
ATOM     12  C   UNL     1       2.233   4.597  20.469  0.00  0.00    +0.000 C 
ATOM     13  O   UNL     1       2.683   4.676  21.612  0.00  0.00    +0.000 OA
BRANCH  12  14
ATOM     14  C   UNL     1       1.265   3.442  20.209  0.00  0.00    +0.000 C 
ATOM     15  N   UNL     1       0.969   2.683  21.315  0.00  0.00    +0.000 N 
ATOM     16  O   UNL     1       0.812   3.212  19.100  0.00  0.00    +0.000 OA
ATOM     17  H   UNL     1       1.546   2.780  22.142  0.00  0.00    +0.000 HD
ATOM     18  H   UNL     1       0.512   1.795  21.152  0.00  0.00    +0.000 HD
ENDBRANCH  12  14
ENDBRANCH   2  12
BRANCH   5  19
ATOM     19  O   UNL     1       0.576   9.994  20.725  0.00  0.00    +0.000 OA
BRANCH  19  20
ATOM     20  C   UNL     1      -0.379   9.496  21.667  0.00  0.00    +0.000 C 
BRANCH  20  21
ATOM     21  C   UNL     1      -0.307  10.273  22.972  0.00  0.00    +0.000 C 
ATOM     22  O   UNL     1      -0.821  11.370  23.147  0.00  0.00    +0.000 OA
BRANCH  21  23
ATOM     23  O   UNL     1       0.367   9.624  23.948  0.00  0.00    +0.000 OA
ATOM     24  H   UNL     1       0.044   8.700  24.024  0.00  0.00    +0.000 HD
ENDBRANCH  21  23
ENDBRANCH  20  21
ENDBRANCH  19  20
ENDBRANCH   5  19
BRANCH   9  25
ATOM     25  C   UNL     1       4.322   6.913  16.400  0.00  0.00    +0.000 C 
BRANCH  25  26
ATOM     26  C   UNL     1       5.224   5.842  15.807  0.00  0.00    +0.000 A 
ATOM     27  C   UNL     1       4.723   4.998  14.789  0.00  0.00    +0.000 A 
ATOM     28  C   UNL     1       5.532   4.064  14.148  0.00  0.00    +0.000 A 
ATOM     29  C   UNL     1       6.858   3.936  14.524  0.00  0.00    +0.000 A 
ATOM     30  C   UNL     1       7.366   4.729  15.555  0.00  0.00    +0.000 A 
ATOM     31  C   UNL     1       6.585   5.704  16.224  0.00  0.00    +0.000 A 
BRANCH  31  32
ATOM     32  C   UNL     1       7.253   6.561  17.260  0.00  0.00    +0.000 A 
ATOM     33  C   UNL     1       7.674   6.014  18.490  0.00  0.00    +0.000 A 
ATOM     34  C   UNL     1       8.356   6.777  19.450  0.00  0.00    +0.000 A 
ATOM     35  C   UNL     1       8.670   8.105  19.191  0.00  0.00    +0.000 A 
ATOM     36  C   UNL     1       8.235   8.686  18.009  0.00  0.00    +0.000 A 
ATOM     37  C   UNL     1       7.494   7.936  17.087  0.00  0.00    +0.000 A 
ENDBRANCH  31  32
ENDBRANCH  25  26
ENDBRANCH   9  25
TORSDOF 10
ENDMDL
MODEL 5
REMARK VINA RESULT:      -7.2      1.936      4.014
REMARK  Name = 
REMARK  11 active torsions:
REMARK  status: ('A' for Active; 'I' for Inactive)
REMARK    1  A    between atoms: C_1  and  C_2
REMARK    2  A    between atoms: C_2  and  C_3
REMARK    3  A    between atoms: C_4  and  C_5
REMARK    4  A    between atoms: C_5  and  C_7
REMARK    5  A    between atoms: C_12  and  O_13
REMARK    6  A    between atoms: O_13  and  C_14
REMARK    7  A    between atoms: C_14  and  C_15
REMARK    8  A    between atoms: C_15  and  O_17
REMARK    9  A    between atoms: C_21  and  C_22
REMARK   10  A    between atoms: C_22  and  C_23
REMARK   11  A    between atoms: C_28  and  C_29
REMARK                            x       y       z     vdW  Elec       q    Type
REMARK                         _______ _______ _______ _____ _____    ______ ____
ROOT
ATOM      1  C   UNL     1      -4.118  12.100  19.392  0.00  0.00    +0.000 A 
ATOM      2  C   UNL     1      -4.941  11.995  18.218  0.00  0.00    +0.000 A 
ATOM      3  C   UNL     1      -4.153  11.420  17.230  0.00  0.00    +0.000 A 
ATOM      4  C   UNL     1      -4.322  11.173  15.830  0.00  0.00    +0.000 A 
ATOM      5  C   UNL     1      -3.391  10.480  15.134  0.00  0.00    +0.000 A 
ATOM      6  C   UNL     1      -2.206   9.969  15.807  0.00  0.00    +0.000 A 
ATOM      7  C   UNL     1      -2.001  10.269  17.101  0.00  0.00    +0.000 A 
ATOM      8  N   UNL     1      -2.943  11.032  17.796  0.00  0.00    +0.000 N 
ATOM      9  C   UNL     1      -2.876  11.556  19.071  0.00  0.00    +0.000 A 
ENDROOT
BRANCH   1  11
ATOM     10  C   UNL     1      -4.046  14.179  20.829  0.00  0.00    +0.000 C 
ATOM     11  C   UNL     1      -4.510  12.736  20.700  0.00  0.00    +0.000 C 
ENDBRANCH   1  11
BRANCH   2  12
ATOM     12  C   UNL     1      -6.315  12.474  18.063  0.00  0.00    +0.000 C 
ATOM     13  O   UNL     1      -7.297  11.745  18.190  0.00  0.00    +0.000 OA
BRANCH  12  14
ATOM     14  C   UNL     1      -6.607  13.948  17.776  0.00  0.00    +0.000 C 
ATOM     15  N   UNL     1      -6.878  14.233  16.460  0.00  0.00    +0.000 N 
ATOM     16  O   UNL     1      -6.581  14.797  18.652  0.00  0.00    +0.000 OA
ATOM     17  H   UNL     1      -6.660  13.538  15.756  0.00  0.00    +0.000 HD
ATOM     18  H   UNL     1      -6.866  15.208  16.191  0.00  0.00    +0.000 HD
ENDBRANCH  12  14
ENDBRANCH   2  12
BRANCH   5  19
ATOM     19  O   UNL     1      -3.413  10.186  13.787  0.00  0.00    +0.000 OA
BRANCH  19  20
ATOM     20  C   UNL     1      -4.597   9.537  13.310  0.00  0.00    +0.000 C 
BRANCH  20  21
ATOM     21  C   UNL     1      -4.781   9.773  11.820  0.00  0.00    +0.000 C 
ATOM     22  O   UNL     1      -5.862   9.988  11.287  0.00  0.00    +0.000 OA
BRANCH  21  23
ATOM     23  O   UNL     1      -3.622   9.747  11.124  0.00  0.00    +0.000 OA
ATOM     24  H   UNL     1      -2.927   9.285  11.643  0.00  0.00    +0.000 HD
ENDBRANCH  21  23
ENDBRANCH  20  21
ENDBRANCH  19  20
ENDBRANCH   5  19
BRANCH   9  25
ATOM     25  C   UNL     1      -1.596  11.597  19.864  0.00  0.00    +0.000 C 
BRANCH  25  26
ATOM     26  C   UNL     1      -0.485  12.528  19.400  0.00  0.00    +0.000 A 
ATOM     27  C   UNL     1      -0.727  13.920  19.340  0.00  0.00    +0.000 A 
ATOM     28  C   UNL     1       0.280  14.824  19.011  0.00  0.00    +0.000 A 
ATOM     29  C   UNL     1       1.549  14.357  18.715  0.00  0.00    +0.000 A 
ATOM     30  C   UNL     1       1.802  12.983  18.727  0.00  0.00    +0.000 A 
ATOM     31  C   UNL     1       0.813  12.027  19.071  0.00  0.00    +0.000 A 
BRANCH  31  32
ATOM     32  C   UNL     1       1.214  10.582  19.135  0.00  0.00    +0.000 A 
ATOM     33  C   UNL     1       1.089   9.848  20.332  0.00  0.00    +0.000 A 
ATOM     34  C   UNL     1       1.396   8.481  20.404  0.00  0.00    +0.000 A 
ATOM     35  C   UNL     1       1.805   7.797  19.266  0.00  0.00    +0.000 A 
ATOM     36  C   UNL     1       1.980   8.497  18.081  0.00  0.00    +0.000 A 
ATOM     37  C   UNL     1       1.737   9.876  18.036  0.00  0.00    +0.000 A 
ENDBRANCH  31  32
ENDBRANCH  25  26
ENDBRANCH   9  25
TORSDOF 10
ENDMDL
MODEL 6
REMARK VINA RESULT:      -7.1      7.900     11.965
REMARK  Name = 
REMARK  11 active torsions:
REMARK  status: ('A' for Active; 'I' for Inactive)
REMARK    1  A    between atoms: C_1  and  C_2
REMARK    2  A    between atoms: C_2  and  C_3
REMARK    3  A    between atoms: C_4  and  C_5
REMARK    4  A    between atoms: C_5  and  C_7
REMARK    5  A    between atoms: C_12  and  O_13
REMARK    6  A    between atoms: O_13  and  C_14
REMARK    7  A    between atoms: C_14  and  C_15
REMARK    8  A    between atoms: C_15  and  O_17
REMARK    9  A    between atoms: C_21  and  C_22
REMARK   10  A    between atoms: C_22  and  C_23
REMARK   11  A    between atoms: C_28  and  C_29
REMARK                            x       y       z     vdW  Elec       q    Type
REMARK                         _______ _______ _______ _____ _____    ______ ____
ROOT
ATOM      1  C   UNL     1       2.637   3.893  18.422  0.00  0.00    +0.000 A 
ATOM      2  C   UNL     1       1.776   4.104  19.554  0.00  0.00    +0.000 A 
ATOM      3  C   UNL     1       1.796   5.467  19.819  0.00  0.00    +0.000 A 
ATOM      4  C   UNL     1       1.274   6.292  20.866  0.00  0.00    +0.000 A 
ATOM      5  C   UNL     1       1.365   7.641  20.792  0.00  0.00    +0.000 A 
ATOM      6  C   UNL     1       1.990   8.269  19.638  0.00  0.00    +0.000 A 
ATOM      7  C   UNL     1       2.555   7.499  18.693  0.00  0.00    +0.000 A 
ATOM      8  N   UNL     1       2.503   6.107  18.807  0.00  0.00    +0.000 N 
ATOM      9  C   UNL     1       3.116   5.142  18.033  0.00  0.00    +0.000 A 
ENDROOT
BRANCH   1  11
ATOM     10  C   UNL     1       4.007   1.779  18.643  0.00  0.00    +0.000 C 
ATOM     11  C   UNL     1       3.000   2.563  17.815  0.00  0.00    +0.000 C 
ENDBRANCH   1  11
BRANCH   2  12
ATOM     12  C   UNL     1       1.081   3.079  20.332  0.00  0.00    +0.000 C 
ATOM     13  O   UNL     1       0.042   2.540  19.952  0.00  0.00    +0.000 OA
BRANCH  12  14
ATOM     14  C   UNL     1       1.647   2.579  21.662  0.00  0.00    +0.000 C 
ATOM     15  N   UNL     1       0.699   2.249  22.600  0.00  0.00    +0.000 N 
ATOM     16  O   UNL     1       2.847   2.502  21.869  0.00  0.00    +0.000 OA
ATOM     17  H   UNL     1      -0.258   2.550  22.453  0.00  0.00    +0.000 HD
ATOM     18  H   UNL     1       1.020   2.121  23.550  0.00  0.00    +0.000 HD
ENDBRANCH  12  14
ENDBRANCH   2  12
BRANCH   5  19
ATOM     19  O   UNL     1       0.927   8.553  21.730  0.00  0.00    +0.000 OA
BRANCH  19  20
ATOM     20  C   UNL     1       0.725   9.887  21.255  0.00  0.00    +0.000 C 
BRANCH  20  21
ATOM     21  C   UNL     1      -0.296  10.618  22.111  0.00  0.00    +0.000 C 
ATOM     22  O   UNL     1      -0.329  10.568  23.334  0.00  0.00    +0.000 OA
BRANCH  21  23
ATOM     23  O   UNL     1      -1.169  11.359  21.392  0.00  0.00    +0.000 OA
ATOM     24  H   UNL     1      -0.883  12.299  21.380  0.00  0.00    +0.000 HD
ENDBRANCH  21  23
ENDBRANCH  20  21
ENDBRANCH  19  20
ENDBRANCH   5  19
BRANCH   9  25
ATOM     25  C   UNL     1       4.200   5.469  17.039  0.00  0.00    +0.000 C 
BRANCH  25  26
ATOM     26  C   UNL     1       5.650   5.363  17.488  0.00  0.00    +0.000 A 
ATOM     27  C   UNL     1       5.988   5.679  18.824  0.00  0.00    +0.000 A 
ATOM     28  C   UNL     1       7.282   5.511  19.311  0.00  0.00    +0.000 A 
ATOM     29  C   UNL     1       8.275   5.043  18.468  0.00  0.00    +0.000 A 
ATOM     30  C   UNL     1       7.975   4.762  17.132  0.00  0.00    +0.000 A 
ATOM     31  C   UNL     1       6.670   4.902  16.597  0.00  0.00    +0.000 A 
BRANCH  31  32
ATOM     32  C   UNL     1       6.439   4.493  15.172  0.00  0.00    +0.000 A 
ATOM     33  C   UNL     1       5.276   3.787  14.799  0.00  0.00    +0.000 A 
ATOM     34  C   UNL     1       5.005   3.448  13.466  0.00  0.00    +0.000 A 
ATOM     35  C   UNL     1       5.875   3.837  12.456  0.00  0.00    +0.000 A 
ATOM     36  C   UNL     1       7.049   4.496  12.790  0.00  0.00    +0.000 A 
ATOM     37  C   UNL     1       7.346   4.770  14.132  0.00  0.00    +0.000 A 
ENDBRANCH  31  32
ENDBRANCH  25  26
ENDBRANCH   9  25
TORSDOF 10
ENDMDL
MODEL 7
REMARK VINA RESULT:      -7.0      6.380      8.994
REMARK  Name = 
REMARK  11 active torsions:
REMARK  status: ('A' for Active; 'I' for Inactive)
REMARK    1  A    between atoms: C_1  and  C_2
REMARK    2  A    between atoms: C_2  and  C_3
REMARK    3  A    between atoms: C_4  and  C_5
REMARK    4  A    between atoms: C_5  and  C_7
REMARK    5  A    between atoms: C_12  and  O_13
REMARK    6  A    between atoms: O_13  and  C_14
REMARK    7  A    between atoms: C_14  and  C_15
REMARK    8  A    between atoms: C_15  and  O_17
REMARK    9  A    between atoms: C_21  and  C_22
REMARK   10  A    between atoms: C_22  and  C_23
REMARK   11  A    between atoms: C_28  and  C_29
REMARK                            x       y       z     vdW  Elec       q    Type
REMARK                         _______ _______ _______ _____ _____    ______ ____
ROOT
ATOM      1  C   UNL     1       1.873   7.513  19.620  0.00  0.00    +0.000 A 
ATOM      2  C   UNL     1       2.323   6.148  19.573  0.00  0.00    +0.000 A 
ATOM      3  C   UNL     1       3.131   6.035  18.450  0.00  0.00    +0.000 A 
ATOM      4  C   UNL     1       3.765   4.941  17.777  0.00  0.00    +0.000 A 
ATOM      5  C   UNL     1       4.602   5.163  16.736  0.00  0.00    +0.000 A 
ATOM      6  C   UNL     1       4.873   6.522  16.294  0.00  0.00    +0.000 A 
ATOM      7  C   UNL     1       4.218   7.546  16.866  0.00  0.00    +0.000 A 
ATOM      8  N   UNL     1       3.315   7.301  17.904  0.00  0.00    +0.000 N 
ATOM      9  C   UNL     1       2.453   8.172  18.538  0.00  0.00    +0.000 A 
ENDROOT
BRANCH   1  11
ATOM     10  C   UNL     1       1.587   8.881  21.727  0.00  0.00    +0.000 C 
ATOM     11  C   UNL     1       0.905   8.097  20.615  0.00  0.00    +0.000 C 
ENDBRANCH   1  11
BRANCH   2  12
ATOM     12  C   UNL     1       1.941   5.066  20.480  0.00  0.00    +0.000 C 
ATOM     13  O   UNL     1       2.233   5.059  21.675  0.00  0.00    +0.000 OA
BRANCH  12  14
ATOM     14  C   UNL     1       1.099   3.886  19.990  0.00  0.00    +0.000 C 
ATOM     15  N   UNL     1       0.783   2.966  20.959  0.00  0.00    +0.000 N 
ATOM     16  O   UNL     1       0.758   3.773  18.823  0.00  0.00    +0.000 OA
ATOM     17  H   UNL     1       1.281   2.995  21.841  0.00  0.00    +0.000 HD
ATOM     18  H   UNL     1       0.417   2.077  20.644  0.00  0.00    +0.000 HD
ENDBRANCH  12  14
ENDBRANCH   2  12
BRANCH   5  19
ATOM     19  O   UNL     1       5.262   4.210  15.988  0.00  0.00    +0.000 OA
BRANCH  19  20
ATOM     20  C   UNL     1       5.767   4.652  14.724  0.00  0.00    +0.000 C 
BRANCH  20  21
ATOM     21  C   UNL     1       7.258   4.932  14.805  0.00  0.00    +0.000 C 
ATOM     22  O   UNL     1       7.900   5.498  13.930  0.00  0.00    +0.000 OA
BRANCH  21  23
ATOM     23  O   UNL     1       7.823   4.514  15.961  0.00  0.00    +0.000 OA
ATOM     24  H   UNL     1       7.134   4.152  16.561  0.00  0.00    +0.000 HD
ENDBRANCH  21  23
ENDBRANCH  20  21
ENDBRANCH  19  20
ENDBRANCH   5  19
BRANCH   9  25
ATOM     25  C   UNL     1       2.160   9.551  18.007  0.00  0.00    +0.000 C 
BRANCH  25  26
ATOM     26  C   UNL     1       0.731  10.068  18.082  0.00  0.00    +0.000 A 
ATOM     27  C   UNL     1      -0.331   9.237  17.656  0.00  0.00    +0.000 A 
ATOM     28  C   UNL     1      -1.662   9.624  17.788  0.00  0.00    +0.000 A 
ATOM     29  C   UNL     1      -1.964  10.861  18.332  0.00  0.00    +0.000 A 
ATOM     30  C   UNL     1      -0.931  11.717  18.722  0.00  0.00    +0.000 A 
ATOM     31  C   UNL     1       0.436  11.359  18.622  0.00  0.00    +0.000 A 
BRANCH  31  32
ATOM     32  C   UNL     1       1.462  12.320  19.148  0.00  0.00    +0.000 A 
ATOM     33  C   UNL     1       2.294  13.045  18.270  0.00  0.00    +0.000 A 
ATOM     34  C   UNL     1       3.217  13.995  18.732  0.00  0.00    +0.000 A 
ATOM     35  C   UNL     1       3.311  14.275  20.089  0.00  0.00    +0.000 A 
ATOM     36  C   UNL     1       2.538  13.551  20.985  0.00  0.00    +0.000 A 
ATOM     37  C   UNL     1       1.669  12.555  20.520  0.00  0.00    +0.000 A 
ENDBRANCH  31  32
ENDBRANCH  25  26
ENDBRANCH   9  25
TORSDOF 10
ENDMDL
MODEL 8
REMARK VINA RESULT:      -6.9      1.588      3.739
REMARK  Name = 
REMARK  11 active torsions:
REMARK  status: ('A' for Active; 'I' for Inactive)
REMARK    1  A    between atoms: C_1  and  C_2
REMARK    2  A    between atoms: C_2  and  C_3
REMARK    3  A    between atoms: C_4  and  C_5
REMARK    4  A    between atoms: C_5  and  C_7
REMARK    5  A    between atoms: C_12  and  O_13
REMARK    6  A    between atoms: O_13  and  C_14
REMARK    7  A    between atoms: C_14  and  C_15
REMARK    8  A    between atoms: C_15  and  O_17
REMARK    9  A    between atoms: C_21  and  C_22
REMARK   10  A    between atoms: C_22  and  C_23
REMARK   11  A    between atoms: C_28  and  C_29
REMARK                            x       y       z     vdW  Elec       q    Type
REMARK                         _______ _______ _______ _____ _____    ______ ____
ROOT
ATOM      1  C   UNL     1      -3.638  12.417  19.442  0.00  0.00    +0.000 A 
ATOM      2  C   UNL     1      -4.568  12.122  18.387  0.00  0.00    +0.000 A 
ATOM      3  C   UNL     1      -3.871  11.391  17.435  0.00  0.00    +0.000 A 
ATOM      4  C   UNL     1      -4.170  10.916  16.118  0.00  0.00    +0.000 A 
ATOM      5  C   UNL     1      -3.300  10.115  15.459  0.00  0.00    +0.000 A 
ATOM      6  C   UNL     1      -2.050   9.719  16.089  0.00  0.00    +0.000 A 
ATOM      7  C   UNL     1      -1.726  10.227  17.290  0.00  0.00    +0.000 A 
ATOM      8  N   UNL     1      -2.607  11.097  17.937  0.00  0.00    +0.000 N 
ATOM      9  C   UNL     1      -2.425  11.824  19.096  0.00  0.00    +0.000 A 
ENDROOT
BRANCH   1  11
ATOM     10  C   UNL     1      -4.792  12.569  21.687  0.00  0.00    +0.000 C 
ATOM     11  C   UNL     1      -3.910  13.262  20.659  0.00  0.00    +0.000 C 
ENDBRANCH   1  11
BRANCH   2  12
ATOM     12  C   UNL     1      -5.956  12.574  18.288  0.00  0.00    +0.000 C 
ATOM     13  O   UNL     1      -6.293  13.566  17.643  0.00  0.00    +0.000 OA
BRANCH  12  14
ATOM     14  C   UNL     1      -7.089  11.792  18.955  0.00  0.00    +0.000 C 
ATOM     15  N   UNL     1      -7.174  10.474  18.580  0.00  0.00    +0.000 N 
ATOM     16  O   UNL     1      -7.861  12.314  19.743  0.00  0.00    +0.000 OA
ATOM     17  H   UNL     1      -6.660  10.165  17.763  0.00  0.00    +0.000 HD
ATOM     18  H   UNL     1      -8.023   9.982  18.826  0.00  0.00    +0.000 HD
ENDBRANCH  12  14
ENDBRANCH   2  12
BRANCH   5  19
ATOM     19  O   UNL     1      -3.448   9.603  14.186  0.00  0.00    +0.000 OA
BRANCH  19  20
ATOM     20  C   UNL     1      -4.529  10.143  13.419  0.00  0.00    +0.000 C 
BRANCH  20  21
ATOM     21  C   UNL     1      -4.355   9.827  11.943  0.00  0.00    +0.000 C 
ATOM     22  O   UNL     1      -3.301   9.465  11.437  0.00  0.00    +0.000 OA
BRANCH  21  23
ATOM     23  O   UNL     1      -5.494   9.961  11.226  0.00  0.00    +0.000 OA
ATOM     24  H   UNL     1      -5.295  10.353  10.348  0.00  0.00    +0.000 HD
ENDBRANCH  21  23
ENDBRANCH  20  21
ENDBRANCH  19  20
ENDBRANCH   5  19
BRANCH   9  25
ATOM     25  C   UNL     1      -1.075  11.992  19.744  0.00  0.00    +0.000 C 
BRANCH  25  26
ATOM     26  C   UNL     1      -0.796  11.246  21.041  0.00  0.00    +0.000 A 
ATOM     27  C   UNL     1      -1.536  11.570  22.201  0.00  0.00    +0.000 A 
ATOM     28  C   UNL     1      -1.386  10.857  23.388  0.00  0.00    +0.000 A 
ATOM     29  C   UNL     1      -0.476   9.815  23.449  0.00  0.00    +0.000 A 
ATOM     30  C   UNL     1       0.297   9.503  22.328  0.00  0.00    +0.000 A 
ATOM     31  C   UNL     1       0.166  10.189  21.095  0.00  0.00    +0.000 A 
BRANCH  31  32
ATOM     32  C   UNL     1       0.985   9.717  19.930  0.00  0.00    +0.000 A 
ATOM     33  C   UNL     1       1.451   8.387  19.863  0.00  0.00    +0.000 A 
ATOM     34  C   UNL     1       2.164   7.902  18.756  0.00  0.00    +0.000 A 
ATOM     35  C   UNL     1       2.403   8.726  17.664  0.00  0.00    +0.000 A 
ATOM     36  C   UNL     1       1.996  10.051  17.714  0.00  0.00    +0.000 A 
ATOM     37  C   UNL     1       1.345  10.546  18.852  0.00  0.00    +0.000 A 
ENDBRANCH  31  32
ENDBRANCH  25  26
ENDBRANCH   9  25
TORSDOF 10
ENDMDL
MODEL 9
REMARK VINA RESULT:      -6.8      7.731     11.516
REMARK  Name = 
REMARK  11 active torsions:
REMARK  status: ('A' for Active; 'I' for Inactive)
REMARK    1  A    between atoms: C_1  and  C_2
REMARK    2  A    between atoms: C_2  and  C_3
REMARK    3  A    between atoms: C_4  and  C_5
REMARK    4  A    between atoms: C_5  and  C_7
REMARK    5  A    between atoms: C_12  and  O_13
REMARK    6  A    between atoms: O_13  and  C_14
REMARK    7  A    between atoms: C_14  and  C_15
REMARK    8  A    between atoms: C_15  and  O_17
REMARK    9  A    between atoms: C_21  and  C_22
REMARK   10  A    between atoms: C_22  and  C_23
REMARK   11  A    between atoms: C_28  and  C_29
REMARK                            x       y       z     vdW  Elec       q    Type
REMARK                         _______ _______ _______ _____ _____    ______ ____
ROOT
ATOM      1  C   UNL     1       3.192   4.626  18.008  0.00  0.00    +0.000 A 
ATOM      2  C   UNL     1       2.392   4.587  19.201  0.00  0.00    +0.000 A 
ATOM      3  C   UNL     1       2.120   5.906  19.541  0.00  0.00    +0.000 A 
ATOM      4  C   UNL     1       1.504   6.546  20.664  0.00  0.00    +0.000 A 
ATOM      5  C   UNL     1       1.280   7.881  20.660  0.00  0.00    +0.000 A 
ATOM      6  C   UNL     1       1.658   8.682  19.506  0.00  0.00    +0.000 A 
ATOM      7  C   UNL     1       2.312   8.102  18.485  0.00  0.00    +0.000 A 
ATOM      8  N   UNL     1       2.586   6.732  18.524  0.00  0.00    +0.000 N 
ATOM      9  C   UNL     1       3.343   5.967  17.660  0.00  0.00    +0.000 A 
ENDROOT
BRANCH   1  11
ATOM     10  C   UNL     1       2.794   2.347  16.986  0.00  0.00    +0.000 C 
ATOM     11  C   UNL     1       3.802   3.441  17.305  0.00  0.00    +0.000 C 
ENDBRANCH   1  11
BRANCH   2  12
ATOM     12  C   UNL     1       2.008   3.399  19.962  0.00  0.00    +0.000 C 
ATOM     13  O   UNL     1       0.987   2.753  19.727  0.00  0.00    +0.000 OA
BRANCH  12  14
ATOM     14  C   UNL     1       2.898   2.857  21.083  0.00  0.00    +0.000 C 
ATOM     15  N   UNL     1       4.063   2.269  20.655  0.00  0.00    +0.000 N 
ATOM     16  O   UNL     1       2.579   2.931  22.258  0.00  0.00    +0.000 OA
ATOM     17  H   UNL     1       4.160   2.035  19.673  0.00  0.00    +0.000 HD
ATOM     18  H   UNL     1       4.572   1.716  21.331  0.00  0.00    +0.000 HD
ENDBRANCH  12  14
ENDBRANCH   2  12
BRANCH   5  19
ATOM     19  O   UNL     1       0.717   8.628  21.674  0.00  0.00    +0.000 OA
BRANCH  19  20
ATOM     20  C   UNL     1      -0.071   9.748  21.258  0.00  0.00    +0.000 C 
BRANCH  20  21
ATOM     21  C   UNL     1      -0.148  10.793  22.359  0.00  0.00    +0.000 C 
ATOM     22  O   UNL     1      -0.420  10.544  23.526  0.00  0.00    +0.000 OA
BRANCH  21  23
ATOM     23  O   UNL     1       0.136  12.045  21.934  0.00  0.00    +0.000 OA
ATOM     24  H   UNL     1       0.065  12.093  20.955  0.00  0.00    +0.000 HD
ENDBRANCH  21  23
ENDBRANCH  20  21
ENDBRANCH  19  20
ENDBRANCH   5  19
BRANCH   9  25
ATOM     25  C   UNL     1       4.248   6.575  16.620  0.00  0.00    +0.000 C 
BRANCH  25  26
ATOM     26  C   UNL     1       5.191   5.658  15.855  0.00  0.00    +0.000 A 
ATOM     27  C   UNL     1       4.686   4.874  14.792  0.00  0.00    +0.000 A 
ATOM     28  C   UNL     1       5.521   4.089  14.001  0.00  0.00    +0.000 A 
ATOM     29  C   UNL     1       6.879   4.053  14.266  0.00  0.00    +0.000 A 
ATOM     30  C   UNL     1       7.396   4.786  15.337  0.00  0.00    +0.000 A 
ATOM     31  C   UNL     1       6.588   5.611  16.158  0.00  0.00    +0.000 A 
BRANCH  31  32
ATOM     32  C   UNL     1       7.258   6.422  17.229  0.00  0.00    +0.000 A 
ATOM     33  C   UNL     1       7.656   5.829  18.445  0.00  0.00    +0.000 A 
ATOM     34  C   UNL     1       8.340   6.548  19.437  0.00  0.00    +0.000 A 
ATOM     35  C   UNL     1       8.680   7.878  19.225  0.00  0.00    +0.000 A 
ATOM     36  C   UNL     1       8.268   8.505  18.058  0.00  0.00    +0.000 A 
ATOM     37  C   UNL     1       7.525   7.798  17.103  0.00  0.00    +0.000 A 
ENDBRANCH  31  32
ENDBRANCH  25  26
ENDBRANCH   9  25
TORSDOF 10
ENDMDL
