MODEL 1
REMARK VINA RESULT:      -8.3      0.000      0.000
REMARK  Name = 
REMARK  11 active torsions:
REMARK  status: ('A' for Active; 'I' for Inactive)
REMARK    1  A    between atoms: C_1  and  C_2
REMARK    2  A    between atoms: C_2  and  O_3
REMARK    3  A    between atoms: O_3  and  C_4
REMARK    4  A    between atoms: C_4  and  C_6
REMARK    5  A    between atoms: C_6  and  S_7
REMARK    6  A    between atoms: C_6  and  C_24
REMARK    7  A    between atoms: S_7  and  C_8
REMARK    8  A    between atoms: C_13  and  N_14
REMARK    9  A    between atoms: N_14  and  C_15
REMARK   10  A    between atoms: C_19  and  C_20
REMARK   11  A    between atoms: C_21  and  C_22
REMARK                            x       y       z     vdW  Elec       q    Type
REMARK                         _______ _______ _______ _____ _____    ______ ____
ROOT
ATOM      1  C   UNL     1       1.871   8.382  18.865  0.00  0.00    +0.000 A 
ATOM      2  N   UNL     1       1.850   8.259  20.192  0.00  0.00    +0.000 NA
ATOM      3  C   UNL     1       1.034   9.111  20.824  0.00  0.00    +0.000 A 
ATOM      4 CL   UNL     1       1.015   8.937  22.531  0.00  0.00    +0.000 Cl
ATOM      5  C   UNL     1       0.247  10.049  20.210  0.00  0.00    +0.000 A 
ATOM      6  C   UNL     1       0.337  10.095  18.839  0.00  0.00    +0.000 A 
ATOM      7  N   UNL     1       1.133   9.258  18.163  0.00  0.00    +0.000 NA
ENDROOT
BRANCH   6   8
ATOM      8  N   UNL     1      -0.438  10.965  18.070  0.00  0.00    +0.000 N 
ATOM      9  H   UNL     1      -0.088  11.916  18.133  0.00  0.00    +0.000 HD
BRANCH   8  10
ATOM     10  C   UNL     1      -1.772  10.857  17.633  0.00  0.00    +0.000 A 
ATOM     11  C   UNL     1      -2.095  10.111  16.489  0.00  0.00    +0.000 A 
ATOM     12  C   UNL     1      -3.398  10.073  16.005  0.00  0.00    +0.000 A 
ATOM     13  C   UNL     1      -4.397  10.792  16.651  0.00  0.00    +0.000 A 
ATOM     14  C   UNL     1      -4.116  11.527  17.813  0.00  0.00    +0.000 A 
ATOM     15  C   UNL     1      -5.231  12.313  18.450  0.00  0.00    +0.000 C 
ATOM     16  C   UNL     1      -2.801  11.531  18.335  0.00  0.00    +0.000 A 
ATOM     17  C   UNL     1      -2.463  12.247  19.620  0.00  0.00    +0.000 C 
ENDBRANCH   8  10
ENDBRANCH   6   8
BRANCH   1  18
ATOM     18  S   UNL     1       2.887   7.305  17.897  0.00  0.00    +0.000 S 
BRANCH  18  19
ATOM     19  C   UNL     1       3.510   6.164  19.188  0.00  0.00    +0.000 C 
BRANCH  19  20
ATOM     20  C   UNL     1       2.549   4.988  19.342  0.00  0.00    +0.000 A 
ATOM     21  C   UNL     1       2.081   4.302  18.211  0.00  0.00    +0.000 A 
ATOM     22  C   UNL     1       1.181   3.242  18.349  0.00  0.00    +0.000 A 
ATOM     23  C   UNL     1       0.739   2.857  19.614  0.00  0.00    +0.000 A 
ATOM     24  C   UNL     1       1.194   3.523  20.746  0.00  0.00    +0.000 A 
ATOM     25  C   UNL     1       2.096   4.582  20.611  0.00  0.00    +0.000 A 
ENDBRANCH  19  20
BRANCH  19  26
ATOM     26  C   UNL     1       4.915   5.649  18.868  0.00  0.00    +0.000 C 
ATOM     27  O   UNL     1       5.752   5.284  19.685  0.00  0.00    +0.000 OA
BRANCH  26  28
ATOM     28  O   UNL     1       5.160   5.821  17.529  0.00  0.00    +0.000 OA
BRANCH  28  30
ATOM     29  C   UNL     1       6.949   4.623  16.500  0.00  0.00    +0.000 C 
ATOM     30  C   UNL     1       5.460   4.625  16.799  0.00  0.00    +0.000 C 
ENDBRANCH  28  30
ENDBRANCH  26  28
ENDBRANCH  19  26
ENDBRANCH  18  19
ENDBRANCH   1  18
TORSDOF 8
ENDMDL
MODEL 2
REMARK VINA RESULT:      -8.3      3.567      5.773
REMARK  Name = 
REMARK  11 active torsions:
REMARK  status: ('A' for Active; 'I' for Inactive)
REMARK    1  A    between atoms: C_1  and  C_2
REMARK    2  A    between atoms: C_2  and  O_3
REMARK    3  A    between atoms: O_3  and  C_4
REMARK    4  A    between atoms: C_4  and  C_6
REMARK    5  A    between atoms: C_6  and  S_7
REMARK    6  A    between atoms: C_6  and  C_24
REMARK    7  A    between atoms: S_7  and  C_8
REMARK    8  A    between atoms: C_13  and  N_14
REMARK    9  A    between atoms: N_14  and  C_15
REMARK   10  A    between atoms: C_19  and  C_20
REMARK   11  A    between atoms: C_21  and  C_22
REMARK                            x       y       z     vdW  Elec       q    Type
REMARK                         _______ _______ _______ _____ _____    ______ ____
ROOT
ATOM      1  C   UNL     1       3.834   3.734  17.753  0.00  0.00    +0.000 A 
ATOM      2  N   UNL     1       2.808   2.888  17.845  0.00  0.00    +0.000 NA
ATOM      3  C   UNL     1       1.783   3.325  18.587  0.00  0.00    +0.000 A 
ATOM      4 CL   UNL     1       0.467   2.228  18.692  0.00  0.00    +0.000 Cl
ATOM      5  C   UNL     1       1.728   4.540  19.216  0.00  0.00    +0.000 A 
ATOM      6  C   UNL     1       2.834   5.341  19.059  0.00  0.00    +0.000 A 
ATOM      7  N   UNL     1       3.880   4.951  18.320  0.00  0.00    +0.000 NA
ENDROOT
BRANCH   6   8
ATOM      8  N   UNL     1       2.908   6.625  19.601  0.00  0.00    +0.000 N 
ATOM      9  H   UNL     1       3.226   6.597  20.564  0.00  0.00    +0.000 HD
BRANCH   8  10
ATOM     10  C   UNL     1       2.238   7.810  19.239  0.00  0.00    +0.000 A 
ATOM     11  C   UNL     1       2.484   8.425  18.002  0.00  0.00    +0.000 A 
ATOM     12  C   UNL     1       1.890   9.640  17.676  0.00  0.00    +0.000 A 
ATOM     13  C   UNL     1       1.051  10.265  18.590  0.00  0.00    +0.000 A 
ATOM     14  C   UNL     1       0.761   9.667  19.826  0.00  0.00    +0.000 A 
ATOM     15  C   UNL     1      -0.129  10.407  20.789  0.00  0.00    +0.000 C 
ATOM     16  C   UNL     1       1.327   8.409  20.142  0.00  0.00    +0.000 A 
ATOM     17  C   UNL     1       0.990   7.691  21.426  0.00  0.00    +0.000 C 
ENDBRANCH   8  10
ENDBRANCH   6   8
BRANCH   1  18
ATOM     18  S   UNL     1       5.248   3.299  16.785  0.00  0.00    +0.000 S 
BRANCH  18  19
ATOM     19  C   UNL     1       5.682   4.924  16.056  0.00  0.00    +0.000 C 
BRANCH  19  20
ATOM     20  C   UNL     1       6.568   5.701  17.025  0.00  0.00    +0.000 A 
ATOM     21  C   UNL     1       6.717   7.090  16.892  0.00  0.00    +0.000 A 
ATOM     22  C   UNL     1       7.548   7.799  17.764  0.00  0.00    +0.000 A 
ATOM     23  C   UNL     1       8.237   7.132  18.775  0.00  0.00    +0.000 A 
ATOM     24  C   UNL     1       8.100   5.756  18.924  0.00  0.00    +0.000 A 
ATOM     25  C   UNL     1       7.267   5.045  18.055  0.00  0.00    +0.000 A 
ENDBRANCH  19  20
BRANCH  19  26
ATOM     26  C   UNL     1       6.391   4.776  14.708  0.00  0.00    +0.000 C 
ATOM     27  O   UNL     1       7.166   5.584  14.209  0.00  0.00    +0.000 OA
BRANCH  26  28
ATOM     28  O   UNL     1       5.892   3.675  14.058  0.00  0.00    +0.000 OA
BRANCH  28  30
ATOM     29  C   UNL     1       4.936   3.249  11.913  0.00  0.00    +0.000 C 
ATOM     30  C   UNL     1       6.214   3.584  12.664  0.00  0.00    +0.000 C 
ENDBRANCH  28  30
ENDBRANCH  26  28
ENDBRANCH  19  26
ENDBRANCH  18  19
ENDBRANCH   1  18
TORSDOF 8
ENDMDL
MODEL 3
REMARK VINA RESULT:      -8.1      3.047      5.495
REMARK  Name = 
REMARK  11 active torsions:
REMARK  status: ('A' for Active; 'I' for Inactive)
REMARK    1  A    between atoms: C_1  and  C_2
REMARK    2  A    between atoms: C_2  and  O_3
REMARK    3  A    between atoms: O_3  and  C_4
REMARK    4  A    between atoms: C_4  and  C_6
REMARK    5  A    between atoms: C_6  and  S_7
REMARK    6  A    between atoms: C_6  and  C_24
REMARK    7  A    between atoms: S_7  and  C_8
REMARK    8  A    between atoms: C_13  and  N_14
REMARK    9  A    between atoms: N_14  and  C_15
REMARK   10  A    between atoms: C_19  and  C_20
REMARK   11  A    between atoms: C_21  and  C_22
REMARK                            x       y       z     vdW  Elec       q    Type
REMARK                         _______ _______ _______ _____ _____    ______ ____
ROOT
ATOM      1  C   UNL     1       3.749   5.706  17.826  0.00  0.00    +0.000 A 
ATOM      2  N   UNL     1       3.443   4.418  17.980  0.00  0.00    +0.000 NA
ATOM      3  C   UNL     1       2.645   4.149  19.020  0.00  0.00    +0.000 A 
ATOM      4 CL   UNL     1       2.255   2.487  19.201  0.00  0.00    +0.000 Cl
ATOM      5  C   UNL     1       2.140   5.081  19.887  0.00  0.00    +0.000 A 
ATOM      6  C   UNL     1       2.512   6.382  19.643  0.00  0.00    +0.000 A 
ATOM      7  N   UNL     1       3.301   6.701  18.610  0.00  0.00    +0.000 NA
ENDROOT
BRANCH   6   8
ATOM      8  N   UNL     1       2.041   7.448  20.410  0.00  0.00    +0.000 N 
ATOM      9  H   UNL     1       1.841   7.153  21.361  0.00  0.00    +0.000 HD
BRANCH   8  10
ATOM     10  C   UNL     1       1.408   8.645  20.023  0.00  0.00    +0.000 A 
ATOM     11  C   UNL     1       1.317   9.004  18.669  0.00  0.00    +0.000 A 
ATOM     12  C   UNL     1       0.770  10.224  18.288  0.00  0.00    +0.000 A 
ATOM     13  C   UNL     1       0.316  11.111  19.257  0.00  0.00    +0.000 A 
ATOM     14  C   UNL     1       0.366  10.774  20.618  0.00  0.00    +0.000 A 
ATOM     15  C   UNL     1      -0.109  11.789  21.624  0.00  0.00    +0.000 C 
ATOM     16  C   UNL     1       0.880   9.515  21.007  0.00  0.00    +0.000 A 
ATOM     17  C   UNL     1       0.889   9.077  22.452  0.00  0.00    +0.000 C 
ENDBRANCH   8  10
ENDBRANCH   6   8
BRANCH   1  18
ATOM     18  S   UNL     1       4.776   6.212  16.478  0.00  0.00    +0.000 S 
BRANCH  18  19
ATOM     19  C   UNL     1       5.884   4.760  16.324  0.00  0.00    +0.000 C 
BRANCH  19  20
ATOM     20  C   UNL     1       6.298   4.583  14.866  0.00  0.00    +0.000 A 
ATOM     21  C   UNL     1       5.634   3.656  14.048  0.00  0.00    +0.000 A 
ATOM     22  C   UNL     1       6.030   3.475  12.720  0.00  0.00    +0.000 A 
ATOM     23  C   UNL     1       7.088   4.214  12.195  0.00  0.00    +0.000 A 
ATOM     24  C   UNL     1       7.756   5.139  12.990  0.00  0.00    +0.000 A 
ATOM     25  C   UNL     1       7.362   5.325  14.318  0.00  0.00    +0.000 A 
ENDBRANCH  19  20
BRANCH  19  26
ATOM     26  C   UNL     1       7.129   4.893  17.205  0.00  0.00    +0.000 C 
ATOM     27  O   UNL     1       8.124   4.180  17.158  0.00  0.00    +0.000 OA
BRANCH  26  28
ATOM     28  O   UNL     1       6.889   5.829  18.180  0.00  0.00    +0.000 OA
BRANCH  28  30
ATOM     29  C   UNL     1       7.796   7.966  17.627  0.00  0.00    +0.000 C 
ATOM     30  C   UNL     1       7.979   6.713  18.466  0.00  0.00    +0.000 C 
ENDBRANCH  28  30
ENDBRANCH  26  28
ENDBRANCH  19  26
ENDBRANCH  18  19
ENDBRANCH   1  18
TORSDOF 8
ENDMDL
MODEL 4
REMARK VINA RESULT:      -8.0      0.758      1.335
REMARK  Name = 
REMARK  11 active torsions:
REMARK  status: ('A' for Active; 'I' for Inactive)
REMARK    1  A    between atoms: C_1  and  C_2
REMARK    2  A    between atoms: C_2  and  O_3
REMARK    3  A    between atoms: O_3  and  C_4
REMARK    4  A    between atoms: C_4  and  C_6
REMARK    5  A    between atoms: C_6  and  S_7
REMARK    6  A    between atoms: C_6  and  C_24
REMARK    7  A    between atoms: S_7  and  C_8
REMARK    8  A    between atoms: C_13  and  N_14
REMARK    9  A    between atoms: N_14  and  C_15
REMARK   10  A    between atoms: C_19  and  C_20
REMARK   11  A    between atoms: C_21  and  C_22
REMARK                            x       y       z     vdW  Elec       q    Type
REMARK                         _______ _______ _______ _____ _____    ______ ____
ROOT
ATOM      1  C   UNL     1       1.849   8.408  18.627  0.00  0.00    +0.000 A 
ATOM      2  N   UNL     1       1.912   8.234  19.947  0.00  0.00    +0.000 NA
ATOM      3  C   UNL     1       1.149   9.071  20.663  0.00  0.00    +0.000 A 
ATOM      4 CL   UNL     1       1.236   8.831  22.360  0.00  0.00    +0.000 Cl
ATOM      5  C   UNL     1       0.337  10.040  20.137  0.00  0.00    +0.000 A 
ATOM      6  C   UNL     1       0.341  10.139  18.766  0.00  0.00    +0.000 A 
ATOM      7  N   UNL     1       1.080   9.319  18.008  0.00  0.00    +0.000 NA
ENDROOT
BRANCH   6   8
ATOM      8  N   UNL     1      -0.469  11.047  18.082  0.00  0.00    +0.000 N 
ATOM      9  H   UNL     1      -0.138  11.998  18.207  0.00  0.00    +0.000 HD
BRANCH   8  10
ATOM     10  C   UNL     1      -1.811  10.943  17.668  0.00  0.00    +0.000 A 
ATOM     11  C   UNL     1      -2.154  10.224  16.513  0.00  0.00    +0.000 A 
ATOM     12  C   UNL     1      -3.466  10.191  16.053  0.00  0.00    +0.000 A 
ATOM     13  C   UNL     1      -4.454  10.889  16.735  0.00  0.00    +0.000 A 
ATOM     14  C   UNL     1      -4.154  11.597  17.910  0.00  0.00    +0.000 A 
ATOM     15  C   UNL     1      -5.260  12.361  18.588  0.00  0.00    +0.000 C 
ATOM     16  C   UNL     1      -2.829  11.594  18.406  0.00  0.00    +0.000 A 
ATOM     17  C   UNL     1      -2.470  12.280  19.702  0.00  0.00    +0.000 C 
ENDBRANCH   8  10
ENDBRANCH   6   8
BRANCH   1  18
ATOM     18  S   UNL     1       2.786   7.359  17.556  0.00  0.00    +0.000 S 
BRANCH  18  19
ATOM     19  C   UNL     1       3.568   6.233  18.772  0.00  0.00    +0.000 C 
BRANCH  19  20
ATOM     20  C   UNL     1       2.601   5.106  19.125  0.00  0.00    +0.000 A 
ATOM     21  C   UNL     1       2.352   4.778  20.466  0.00  0.00    +0.000 A 
ATOM     22  C   UNL     1       1.486   3.730  20.789  0.00  0.00    +0.000 A 
ATOM     23  C   UNL     1       0.861   2.999  19.780  0.00  0.00    +0.000 A 
ATOM     24  C   UNL     1       1.093   3.311  18.445  0.00  0.00    +0.000 A 
ATOM     25  C   UNL     1       1.957   4.361  18.119  0.00  0.00    +0.000 A 
ENDBRANCH  19  20
BRANCH  19  26
ATOM     26  C   UNL     1       4.881   5.646  18.248  0.00  0.00    +0.000 C 
ATOM     27  O   UNL     1       5.050   5.126  17.151  0.00  0.00    +0.000 OA
BRANCH  26  28
ATOM     28  O   UNL     1       5.803   5.634  19.263  0.00  0.00    +0.000 OA
BRANCH  28  30
ATOM     29  C   UNL     1       7.819   6.676  18.524  0.00  0.00    +0.000 C 
ATOM     30  C   UNL     1       7.152   5.355  18.868  0.00  0.00    +0.000 C 
ENDBRANCH  28  30
ENDBRANCH  26  28
ENDBRANCH  19  26
ENDBRANCH  18  19
ENDBRANCH   1  18
TORSDOF 8
ENDMDL
MODEL 5
REMARK VINA RESULT:      -8.0      3.017      5.446
REMARK  Name = 
REMARK  11 active torsions:
REMARK  status: ('A' for Active; 'I' for Inactive)
REMARK    1  A    between atoms: C_1  and  C_2
REMARK    2  A    between atoms: C_2  and  O_3
REMARK    3  A    between atoms: O_3  and  C_4
REMARK    4  A    between atoms: C_4  and  C_6
REMARK    5  A    between atoms: C_6  and  S_7
REMARK    6  A    between atoms: C_6  and  C_24
REMARK    7  A    between atoms: S_7  and  C_8
REMARK    8  A    between atoms: C_13  and  N_14
REMARK    9  A    between atoms: N_14  and  C_15
REMARK   10  A    between atoms: C_19  and  C_20
REMARK   11  A    between atoms: C_21  and  C_22
REMARK                            x       y       z     vdW  Elec       q    Type
REMARK                         _______ _______ _______ _____ _____    ______ ____
ROOT
ATOM      1  C   UNL     1       3.617   4.206  18.108  0.00  0.00    +0.000 A 
ATOM      2  N   UNL     1       2.911   3.350  18.847  0.00  0.00    +0.000 NA
ATOM      3  C   UNL     1       2.066   3.920  19.716  0.00  0.00    +0.000 A 
ATOM      4 CL   UNL     1       1.162   2.805  20.656  0.00  0.00    +0.000 Cl
ATOM      5  C   UNL     1       1.886   5.268  19.870  0.00  0.00    +0.000 A 
ATOM      6  C   UNL     1       2.658   6.067  19.060  0.00  0.00    +0.000 A 
ATOM      7  N   UNL     1       3.511   5.544  18.171  0.00  0.00    +0.000 NA
ENDROOT
BRANCH   6   8
ATOM      8  N   UNL     1       2.554   7.459  19.068  0.00  0.00    +0.000 N 
ATOM      9  H   UNL     1       3.429   7.891  18.789  0.00  0.00    +0.000 HD
BRANCH   8  10
ATOM     10  C   UNL     1       1.680   8.307  19.775  0.00  0.00    +0.000 A 
ATOM     11  C   UNL     1       1.296   8.007  21.092  0.00  0.00    +0.000 A 
ATOM     12  C   UNL     1       0.368   8.795  21.763  0.00  0.00    +0.000 A 
ATOM     13  C   UNL     1      -0.203   9.888  21.123  0.00  0.00    +0.000 A 
ATOM     14  C   UNL     1       0.177  10.234  19.816  0.00  0.00    +0.000 A 
ATOM     15  C   UNL     1      -0.499  11.409  19.162  0.00  0.00    +0.000 C 
ATOM     16  C   UNL     1       1.156   9.462  19.147  0.00  0.00    +0.000 A 
ATOM     17  C   UNL     1       1.650   9.835  17.770  0.00  0.00    +0.000 C 
ENDBRANCH   8  10
ENDBRANCH   6   8
BRANCH   1  18
ATOM     18  S   UNL     1       4.755   3.595  16.901  0.00  0.00    +0.000 S 
BRANCH  18  19
ATOM     19  C   UNL     1       5.382   5.164  16.191  0.00  0.00    +0.000 C 
BRANCH  19  20
ATOM     20  C   UNL     1       6.387   5.796  17.149  0.00  0.00    +0.000 A 
ATOM     21  C   UNL     1       6.675   7.167  17.073  0.00  0.00    +0.000 A 
ATOM     22  C   UNL     1       7.615   7.741  17.934  0.00  0.00    +0.000 A 
ATOM     23  C   UNL     1       8.275   6.956  18.877  0.00  0.00    +0.000 A 
ATOM     24  C   UNL     1       8.002   5.596  18.969  0.00  0.00    +0.000 A 
ATOM     25  C   UNL     1       7.061   5.019  18.111  0.00  0.00    +0.000 A 
ENDBRANCH  19  20
BRANCH  19  26
ATOM     26  C   UNL     1       6.031   4.954  14.821  0.00  0.00    +0.000 C 
ATOM     27  O   UNL     1       6.965   5.600  14.359  0.00  0.00    +0.000 OA
BRANCH  26  28
ATOM     28  O   UNL     1       5.293   4.040  14.112  0.00  0.00    +0.000 OA
BRANCH  28  30
ATOM     29  C   UNL     1       4.762   3.412  11.871  0.00  0.00    +0.000 C 
ATOM     30  C   UNL     1       5.880   3.594  12.883  0.00  0.00    +0.000 C 
ENDBRANCH  28  30
ENDBRANCH  26  28
ENDBRANCH  19  26
ENDBRANCH  18  19
ENDBRANCH   1  18
TORSDOF 8
ENDMDL
MODEL 6
REMARK VINA RESULT:      -8.0      0.906      1.678
REMARK  Name = 
REMARK  11 active torsions:
REMARK  status: ('A' for Active; 'I' for Inactive)
REMARK    1  A    between atoms: C_1  and  C_2
REMARK    2  A    between atoms: C_2  and  O_3
REMARK    3  A    between atoms: O_3  and  C_4
REMARK    4  A    between atoms: C_4  and  C_6
REMARK    5  A    between atoms: C_6  and  S_7
REMARK    6  A    between atoms: C_6  and  C_24
REMARK    7  A    between atoms: S_7  and  C_8
REMARK    8  A    between atoms: C_13  and  N_14
REMARK    9  A    between atoms: N_14  and  C_15
REMARK   10  A    between atoms: C_19  and  C_20
REMARK   11  A    between atoms: C_21  and  C_22
REMARK                            x       y       z     vdW  Elec       q    Type
REMARK                         _______ _______ _______ _____ _____    ______ ____
ROOT
ATOM      1  C   UNL     1       2.059   8.202  18.747  0.00  0.00    +0.000 A 
ATOM      2  N   UNL     1       2.078   8.101  20.077  0.00  0.00    +0.000 NA
ATOM      3  C   UNL     1       1.230   8.917  20.716  0.00  0.00    +0.000 A 
ATOM      4 CL   UNL     1       1.263   8.771  22.425  0.00  0.00    +0.000 Cl
ATOM      5  C   UNL     1       0.377   9.799  20.107  0.00  0.00    +0.000 A 
ATOM      6  C   UNL     1       0.432   9.827  18.734  0.00  0.00    +0.000 A 
ATOM      7  N   UNL     1       1.257   9.024  18.051  0.00  0.00    +0.000 NA
ENDROOT
BRANCH   6   8
ATOM      8  N   UNL     1      -0.409  10.639  17.971  0.00  0.00    +0.000 N 
ATOM      9  H   UNL     1       0.107  11.106  17.233  0.00  0.00    +0.000 HD
BRANCH   8  10
ATOM     10  C   UNL     1      -1.642  11.237  18.294  0.00  0.00    +0.000 A 
ATOM     11  C   UNL     1      -1.800  11.961  19.486  0.00  0.00    +0.000 A 
ATOM     12  C   UNL     1      -3.038  12.480  19.849  0.00  0.00    +0.000 A 
ATOM     13  C   UNL     1      -4.141  12.272  19.030  0.00  0.00    +0.000 A 
ATOM     14  C   UNL     1      -4.016  11.577  17.817  0.00  0.00    +0.000 A 
ATOM     15  C   UNL     1      -5.252  11.354  16.988  0.00  0.00    +0.000 C 
ATOM     16  C   UNL     1      -2.748  11.087  17.422  0.00  0.00    +0.000 A 
ATOM     17  C   UNL     1      -2.547  10.397  16.095  0.00  0.00    +0.000 C 
ENDBRANCH   8  10
ENDBRANCH   6   8
BRANCH   1  18
ATOM     18  S   UNL     1       3.110   7.168  17.772  0.00  0.00    +0.000 S 
BRANCH  18  19
ATOM     19  C   UNL     1       3.668   5.957  19.028  0.00  0.00    +0.000 C 
BRANCH  19  20
ATOM     20  C   UNL     1       2.707   4.771  19.061  0.00  0.00    +0.000 A 
ATOM     21  C   UNL     1       2.663   3.864  17.991  0.00  0.00    +0.000 A 
ATOM     22  C   UNL     1       1.765   2.793  18.009  0.00  0.00    +0.000 A 
ATOM     23  C   UNL     1       0.905   2.616  19.091  0.00  0.00    +0.000 A 
ATOM     24  C   UNL     1       0.936   3.504  20.160  0.00  0.00    +0.000 A 
ATOM     25  C   UNL     1       1.834   4.574  20.147  0.00  0.00    +0.000 A 
ENDBRANCH  19  20
BRANCH  19  26
ATOM     26  C   UNL     1       5.092   5.465  18.758  0.00  0.00    +0.000 C 
ATOM     27  O   UNL     1       5.711   4.647  19.429  0.00  0.00    +0.000 OA
BRANCH  26  28
ATOM     28  O   UNL     1       5.637   6.211  17.744  0.00  0.00    +0.000 OA
BRANCH  28  30
ATOM     29  C   UNL     1       7.617   7.539  17.627  0.00  0.00    +0.000 C 
ATOM     30  C   UNL     1       7.062   6.125  17.613  0.00  0.00    +0.000 C 
ENDBRANCH  28  30
ENDBRANCH  26  28
ENDBRANCH  19  26
ENDBRANCH  18  19
ENDBRANCH   1  18
TORSDOF 8
ENDMDL
MODEL 7
REMARK VINA RESULT:      -7.9      3.288      5.544
REMARK  Name = 
REMARK  11 active torsions:
REMARK  status: ('A' for Active; 'I' for Inactive)
REMARK    1  A    between atoms: C_1  and  C_2
REMARK    2  A    between atoms: C_2  and  O_3
REMARK    3  A    between atoms: O_3  and  C_4
REMARK    4  A    between atoms: C_4  and  C_6
REMARK    5  A    between atoms: C_6  and  S_7
REMARK    6  A    between atoms: C_6  and  C_24
REMARK    7  A    between atoms: S_7  and  C_8
REMARK    8  A    between atoms: C_13  and  N_14
REMARK    9  A    between atoms: N_14  and  C_15
REMARK   10  A    between atoms: C_19  and  C_20
REMARK   11  A    between atoms: C_21  and  C_22
REMARK                            x       y       z     vdW  Elec       q    Type
REMARK                         _______ _______ _______ _____ _____    ______ ____
ROOT
ATOM      1  C   UNL     1       4.058   4.234  19.031  0.00  0.00    +0.000 A 
ATOM      2  N   UNL     1       3.146   3.294  18.784  0.00  0.00    +0.000 NA
ATOM      3  C   UNL     1       1.892   3.624  19.121  0.00  0.00    +0.000 A 
ATOM      4 CL   UNL     1       0.729   2.405  18.793  0.00  0.00    +0.000 Cl
ATOM      5  C   UNL     1       1.513   4.821  19.667  0.00  0.00    +0.000 A 
ATOM      6  C   UNL     1       2.526   5.725  19.881  0.00  0.00    +0.000 A 
ATOM      7  N   UNL     1       3.794   5.443  19.552  0.00  0.00    +0.000 NA
ENDROOT
BRANCH   6   8
ATOM      8  N   UNL     1       2.290   7.004  20.386  0.00  0.00    +0.000 N 
ATOM      9  H   UNL     1       2.176   6.982  21.395  0.00  0.00    +0.000 HD
BRANCH   8  10
ATOM     10  C   UNL     1       1.766   8.152  19.762  0.00  0.00    +0.000 A 
ATOM     11  C   UNL     1       2.080   8.451  18.427  0.00  0.00    +0.000 A 
ATOM     12  C   UNL     1       1.635   9.627  17.833  0.00  0.00    +0.000 A 
ATOM     13  C   UNL     1       0.878  10.529  18.571  0.00  0.00    +0.000 A 
ATOM     14  C   UNL     1       0.521  10.251  19.900  0.00  0.00    +0.000 A 
ATOM     15  C   UNL     1      -0.272  11.281  20.659  0.00  0.00    +0.000 C 
ATOM     16  C   UNL     1       0.934   9.034  20.492  0.00  0.00    +0.000 A 
ATOM     17  C   UNL     1       0.516   8.656  21.893  0.00  0.00    +0.000 C 
ENDBRANCH   8  10
ENDBRANCH   6   8
BRANCH   1  18
ATOM     18  S   UNL     1       5.753   3.946  18.615  0.00  0.00    +0.000 S 
BRANCH  18  19
ATOM     19  C   UNL     1       5.978   5.133  17.237  0.00  0.00    +0.000 C 
BRANCH  19  20
ATOM     20  C   UNL     1       6.825   6.311  17.706  0.00  0.00    +0.000 A 
ATOM     21  C   UNL     1       6.723   7.557  17.070  0.00  0.00    +0.000 A 
ATOM     22  C   UNL     1       7.518   8.630  17.483  0.00  0.00    +0.000 A 
ATOM     23  C   UNL     1       8.421   8.471  18.533  0.00  0.00    +0.000 A 
ATOM     24  C   UNL     1       8.534   7.245  19.177  0.00  0.00    +0.000 A 
ATOM     25  C   UNL     1       7.739   6.170  18.768  0.00  0.00    +0.000 A 
ENDBRANCH  19  20
BRANCH  19  26
ATOM     26  C   UNL     1       6.629   4.477  16.017  0.00  0.00    +0.000 C 
ATOM     27  O   UNL     1       7.820   4.219  15.888  0.00  0.00    +0.000 OA
BRANCH  26  28
ATOM     28  O   UNL     1       5.699   4.377  15.013  0.00  0.00    +0.000 OA
BRANCH  28  30
ATOM     29  C   UNL     1       5.226   3.456  12.863  0.00  0.00    +0.000 C 
ATOM     30  C   UNL     1       6.233   4.235  13.690  0.00  0.00    +0.000 C 
ENDBRANCH  28  30
ENDBRANCH  26  28
ENDBRANCH  19  26
ENDBRANCH  18  19
ENDBRANCH   1  18
TORSDOF 8
ENDMDL
MODEL 8
REMARK VINA RESULT:      -7.9      0.540      1.767
REMARK  Name = 
REMARK  11 active torsions:
REMARK  status: ('A' for Active; 'I' for Inactive)
REMARK    1  A    between atoms: C_1  and  C_2
REMARK    2  A    between atoms: C_2  and  O_3
REMARK    3  A    between atoms: O_3  and  C_4
REMARK    4  A    between atoms: C_4  and  C_6
REMARK    5  A    between atoms: C_6  and  S_7
REMARK    6  A    between atoms: C_6  and  C_24
REMARK    7  A    between atoms: S_7  and  C_8
REMARK    8  A    between atoms: C_13  and  N_14
REMARK    9  A    between atoms: N_14  and  C_15
REMARK   10  A    between atoms: C_19  and  C_20
REMARK   11  A    between atoms: C_21  and  C_22
REMARK                            x       y       z     vdW  Elec       q    Type
REMARK                         _______ _______ _______ _____ _____    ______ ____
ROOT
ATOM      1  C   UNL     1       2.031   8.248  18.897  0.00  0.00    +0.000 A 
ATOM      2  N   UNL     1       2.032   8.147  20.226  0.00  0.00    +0.000 NA
ATOM      3  C   UNL     1       1.193   8.979  20.855  0.00  0.00    +0.000 A 
ATOM      4 CL   UNL     1       1.201   8.832  22.565  0.00  0.00    +0.000 Cl
ATOM      5  C   UNL     1       0.364   9.877  20.237  0.00  0.00    +0.000 A 
ATOM      6  C   UNL     1       0.436   9.905  18.864  0.00  0.00    +0.000 A 
ATOM      7  N   UNL     1       1.253   9.086  18.191  0.00  0.00    +0.000 NA
ENDROOT
BRANCH   6   8
ATOM      8  N   UNL     1      -0.380  10.733  18.092  0.00  0.00    +0.000 N 
ATOM      9  H   UNL     1       0.163  11.227  17.391  0.00  0.00    +0.000 HD
BRANCH   8  10
ATOM     10  C   UNL     1      -1.631  11.311  18.379  0.00  0.00    +0.000 A 
ATOM     11  C   UNL     1      -1.820  12.075  19.541  0.00  0.00    +0.000 A 
ATOM     12  C   UNL     1      -3.075  12.575  19.872  0.00  0.00    +0.000 A 
ATOM     13  C   UNL     1      -4.164  12.307  19.052  0.00  0.00    +0.000 A 
ATOM     14  C   UNL     1      -4.008  11.569  17.868  0.00  0.00    +0.000 A 
ATOM     15  C   UNL     1      -5.230  11.282  17.037  0.00  0.00    +0.000 C 
ATOM     16  C   UNL     1      -2.724  11.098  17.504  0.00  0.00    +0.000 A 
ATOM     17  C   UNL     1      -2.491  10.363  16.207  0.00  0.00    +0.000 C 
ENDBRANCH   8  10
ENDBRANCH   6   8
BRANCH   1  18
ATOM     18  S   UNL     1       3.073   7.194  17.933  0.00  0.00    +0.000 S 
BRANCH  18  19
ATOM     19  C   UNL     1       3.637   6.005  19.208  0.00  0.00    +0.000 C 
BRANCH  19  20
ATOM     20  C   UNL     1       2.623   4.871  19.337  0.00  0.00    +0.000 A 
ATOM     21  C   UNL     1       2.115   4.513  20.594  0.00  0.00    +0.000 A 
ATOM     22  C   UNL     1       1.207   3.458  20.716  0.00  0.00    +0.000 A 
ATOM     23  C   UNL     1       0.797   2.751  19.587  0.00  0.00    +0.000 A 
ATOM     24  C   UNL     1       1.288   3.093  18.332  0.00  0.00    +0.000 A 
ATOM     25  C   UNL     1       2.195   4.149  18.207  0.00  0.00    +0.000 A 
ENDBRANCH  19  20
BRANCH  19  26
ATOM     26  C   UNL     1       5.019   5.433  18.887  0.00  0.00    +0.000 C 
ATOM     27  O   UNL     1       5.836   5.022  19.703  0.00  0.00    +0.000 OA
BRANCH  26  28
ATOM     28  O   UNL     1       5.277   5.609  17.551  0.00  0.00    +0.000 OA
BRANCH  28  30
ATOM     29  C   UNL     1       5.370   4.601  15.390  0.00  0.00    +0.000 C 
ATOM     30  C   UNL     1       5.744   4.447  16.855  0.00  0.00    +0.000 C 
ENDBRANCH  28  30
ENDBRANCH  26  28
ENDBRANCH  19  26
ENDBRANCH  18  19
ENDBRANCH   1  18
TORSDOF 8
ENDMDL
MODEL 9
REMARK VINA RESULT:      -7.8      2.291      3.249
REMARK  Name = 
REMARK  11 active torsions:
REMARK  status: ('A' for Active; 'I' for Inactive)
REMARK    1  A    between atoms: C_1  and  C_2
REMARK    2  A    between atoms: C_2  and  O_3
REMARK    3  A    between atoms: O_3  and  C_4
REMARK    4  A    between atoms: C_4  and  C_6
REMARK    5  A    between atoms: C_6  and  S_7
REMARK    6  A    between atoms: C_6  and  C_24
REMARK    7  A    between atoms: S_7  and  C_8
REMARK    8  A    between atoms: C_13  and  N_14
REMARK    9  A    between atoms: N_14  and  C_15
REMARK   10  A    between atoms: C_19  and  C_20
REMARK   11  A    between atoms: C_21  and  C_22
REMARK                            x       y       z     vdW  Elec       q    Type
REMARK                         _______ _______ _______ _____ _____    ______ ____
ROOT
ATOM      1  C   UNL     1       2.503   7.879  18.783  0.00  0.00    +0.000 A 
ATOM      2  N   UNL     1       1.945   7.623  19.966  0.00  0.00    +0.000 NA
ATOM      3  C   UNL     1       1.200   8.617  20.466  0.00  0.00    +0.000 A 
ATOM      4 CL   UNL     1       0.485   8.269  21.987  0.00  0.00    +0.000 Cl
ATOM      5  C   UNL     1       0.980   9.820  19.851  0.00  0.00    +0.000 A 
ATOM      6  C   UNL     1       1.596   9.988  18.634  0.00  0.00    +0.000 A 
ATOM      7  N   UNL     1       2.344   9.019  18.090  0.00  0.00    +0.000 NA
ENDROOT
BRANCH   6   8
ATOM      8  N   UNL     1       1.429  11.141  17.866  0.00  0.00    +0.000 N 
ATOM      9  H   UNL     1       1.527  10.937  16.876  0.00  0.00    +0.000 HD
BRANCH   8  10
ATOM     10  C   UNL     1       1.595  12.498  18.204  0.00  0.00    +0.000 A 
ATOM     11  C   UNL     1       2.875  13.068  18.283  0.00  0.00    +0.000 A 
ATOM     12  C   UNL     1       3.048  14.383  18.700  0.00  0.00    +0.000 A 
ATOM     13  C   UNL     1       1.943  15.145  19.057  0.00  0.00    +0.000 A 
ATOM     14  C   UNL     1       0.645  14.618  18.965  0.00  0.00    +0.000 A 
ATOM     15  C   UNL     1      -0.510  15.480  19.397  0.00  0.00    +0.000 C 
ATOM     16  C   UNL     1       0.462  13.295  18.497  0.00  0.00    +0.000 A 
ATOM     17  C   UNL     1      -0.916  12.707  18.312  0.00  0.00    +0.000 C 
ENDBRANCH   8  10
ENDBRANCH   6   8
BRANCH   1  18
ATOM     18  S   UNL     1       3.494   6.648  17.991  0.00  0.00    +0.000 S 
BRANCH  18  19
ATOM     19  C   UNL     1       3.867   5.542  19.405  0.00  0.00    +0.000 C 
BRANCH  19  20
ATOM     20  C   UNL     1       2.761   4.500  19.547  0.00  0.00    +0.000 A 
ATOM     21  C   UNL     1       2.119   3.988  18.409  0.00  0.00    +0.000 A 
ATOM     22  C   UNL     1       1.089   3.053  18.540  0.00  0.00    +0.000 A 
ATOM     23  C   UNL     1       0.689   2.620  19.804  0.00  0.00    +0.000 A 
ATOM     24  C   UNL     1       1.315   3.116  20.942  0.00  0.00    +0.000 A 
ATOM     25  C   UNL     1       2.348   4.049  20.814  0.00  0.00    +0.000 A 
ENDBRANCH  19  20
BRANCH  19  26
ATOM     26  C   UNL     1       5.221   4.846  19.246  0.00  0.00    +0.000 C 
ATOM     27  O   UNL     1       5.395   3.659  18.999  0.00  0.00    +0.000 OA
BRANCH  26  28
ATOM     28  O   UNL     1       6.218   5.722  19.596  0.00  0.00    +0.000 OA
BRANCH  28  30
ATOM     29  C   UNL     1       7.446   6.797  17.855  0.00  0.00    +0.000 C 
ATOM     30  C   UNL     1       7.421   5.626  18.823  0.00  0.00    +0.000 C 
ENDBRANCH  28  30
ENDBRANCH  26  28
ENDBRANCH  19  26
ENDBRANCH  18  19
ENDBRANCH   1  18
TORSDOF 8
ENDMDL
