MODEL 1
REMARK VINA RESULT:      -6.8      0.000      0.000
REMARK  Name = 
REMARK  10 active torsions:
REMARK  status: ('A' for Active; 'I' for Inactive)
REMARK    1  A    between atoms: C_1  and  C_2
REMARK    2  A    between atoms: C_3  and  C_4
REMARK    3  A    between atoms: C_4  and  C_5
REMARK    4  A    between atoms: C_5  and  N_6
REMARK    5  A    between atoms: C_10  and  N_11
REMARK    6  A    between atoms: C_12  and  C_13
REMARK    7  A    between atoms: N_15  and  C_16
REMARK    8  A    between atoms: N_15  and  C_17
REMARK    9  A    between atoms: C_17  and  C_18
REMARK   10  A    between atoms: C_18  and  C_19
REMARK                            x       y       z     vdW  Elec       q    Type
REMARK                         _______ _______ _______ _____ _____    ______ ____
ROOT
ATOM      1  N   UNL     1       0.981   9.530  19.494  0.00  0.00    +0.000 N 
ATOM      2  N   UNL     1       0.688   9.134  20.757  0.00  0.00    +0.000 NA
ATOM      3  C   UNL     1       1.379   7.990  20.877  0.00  0.00    +0.000 A 
ATOM      4  C   UNL     1       2.111   7.629  19.721  0.00  0.00    +0.000 A 
ATOM      5  C   UNL     1       2.967   6.567  19.289  0.00  0.00    +0.000 A 
ATOM      6  C   UNL     1       3.498   6.655  17.970  0.00  0.00    +0.000 A 
ATOM      7  C   UNL     1       3.113   7.802  17.264  0.00  0.00    +0.000 A 
ATOM      8  N   UNL     1       2.285   8.813  17.617  0.00  0.00    +0.000 NA
ATOM      9  C   UNL     1       1.828   8.648  18.850  0.00  0.00    +0.000 A 
ENDROOT
BRANCH   6  10
ATOM     10  C   UNL     1       4.430   5.556  17.450  0.00  0.00    +0.000 C 
ATOM     11  O   UNL     1       3.937   4.423  17.249  0.00  0.00    +0.000 OA
ATOM     12  N   UNL     1       5.816   5.721  17.168  0.00  0.00    +0.000 N 
ATOM     13  C   UNL     1       6.663   6.898  17.304  0.00  0.00    +0.000 C 
BRANCH  12  14
ATOM     14  C   UNL     1       6.576   4.539  16.681  0.00  0.00    +0.000 C 
BRANCH  14  15
ATOM     15  C   UNL     1       6.996   4.667  15.210  0.00  0.00    +0.000 C 
ATOM     16  C   UNL     1       5.970   4.150  14.215  0.00  0.00    +0.000 C 
ENDBRANCH  14  15
ENDBRANCH  12  14
ENDBRANCH   6  10
BRANCH   5  17
ATOM     17  N   UNL     1       3.213   5.501  20.140  0.00  0.00    +0.000 N 
ATOM     18  H   UNL     1       3.508   5.621  21.097  0.00  0.00    +0.000 HD
ATOM     19  H   UNL     1       3.281   4.571  19.716  0.00  0.00    +0.000 HD
ENDBRANCH   5  17
BRANCH   1  20
ATOM     20  C   UNL     1       0.426  10.761  18.943  0.00  0.00    +0.000 C 
BRANCH  20  21
ATOM     21  C   UNL     1      -1.095  10.803  19.027  0.00  0.00    +0.000 C 
BRANCH  21  24
ATOM     22  C   UNL     1      -3.006   9.846  15.245  0.00  0.00    +0.000 C 
ATOM     23  C   UNL     1      -2.338  10.181  16.568  0.00  0.00    +0.000 C 
ATOM     24  C   UNL     1      -1.764  10.468  17.703  0.00  0.00    +0.000 C 
ENDBRANCH  21  24
ENDBRANCH  20  21
ENDBRANCH   1  20
TORSDOF 7
ENDMDL
MODEL 2
REMARK VINA RESULT:      -6.6      4.390      7.443
REMARK  Name = 
REMARK  10 active torsions:
REMARK  status: ('A' for Active; 'I' for Inactive)
REMARK    1  A    between atoms: C_1  and  C_2
REMARK    2  A    between atoms: C_3  and  C_4
REMARK    3  A    between atoms: C_4  and  C_5
REMARK    4  A    between atoms: C_5  and  N_6
REMARK    5  A    between atoms: C_10  and  N_11
REMARK    6  A    between atoms: C_12  and  C_13
REMARK    7  A    between atoms: N_15  and  C_16
REMARK    8  A    between atoms: N_15  and  C_17
REMARK    9  A    between atoms: C_17  and  C_18
REMARK   10  A    between atoms: C_18  and  C_19
REMARK                            x       y       z     vdW  Elec       q    Type
REMARK                         _______ _______ _______ _____ _____    ______ ____
ROOT
ATOM      1  N   UNL     1       6.701   5.082  14.963  0.00  0.00    +0.000 N 
ATOM      2  N   UNL     1       7.745   5.813  15.426  0.00  0.00    +0.000 NA
ATOM      3  C   UNL     1       7.585   5.750  16.757  0.00  0.00    +0.000 A 
ATOM      4  C   UNL     1       6.460   4.999  17.172  0.00  0.00    +0.000 A 
ATOM      5  C   UNL     1       5.820   4.625  18.396  0.00  0.00    +0.000 A 
ATOM      6  C   UNL     1       4.656   3.811  18.299  0.00  0.00    +0.000 A 
ATOM      7  C   UNL     1       4.294   3.467  16.990  0.00  0.00    +0.000 A 
ATOM      8  N   UNL     1       4.847   3.820  15.805  0.00  0.00    +0.000 NA
ATOM      9  C   UNL     1       5.915   4.584  15.985  0.00  0.00    +0.000 A 
ENDROOT
BRANCH   6  10
ATOM     10  C   UNL     1       3.930   3.365  19.572  0.00  0.00    +0.000 C 
ATOM     11  O   UNL     1       4.176   2.218  20.009  0.00  0.00    +0.000 OA
ATOM     12  N   UNL     1       2.999   4.154  20.306  0.00  0.00    +0.000 N 
ATOM     13  C   UNL     1       2.511   5.502  20.049  0.00  0.00    +0.000 C 
BRANCH  12  14
ATOM     14  C   UNL     1       2.375   3.555  21.516  0.00  0.00    +0.000 C 
BRANCH  14  15
ATOM     15  C   UNL     1       1.028   2.883  21.219  0.00  0.00    +0.000 C 
ATOM     16  C   UNL     1       0.723   2.707  19.740  0.00  0.00    +0.000 C 
ENDBRANCH  14  15
ENDBRANCH  12  14
ENDBRANCH   6  10
BRANCH   5  17
ATOM     17  N   UNL     1       6.329   5.088  19.600  0.00  0.00    +0.000 N 
ATOM     18  H   UNL     1       6.481   6.067  19.789  0.00  0.00    +0.000 HD
ATOM     19  H   UNL     1       6.740   4.394  20.231  0.00  0.00    +0.000 HD
ENDBRANCH   5  17
BRANCH   1  20
ATOM     20  C   UNL     1       6.493   4.886  13.533  0.00  0.00    +0.000 C 
BRANCH  20  21
ATOM     21  C   UNL     1       6.059   3.465  13.197  0.00  0.00    +0.000 C 
BRANCH  21  24
ATOM     22  C   UNL     1       3.035   3.333  10.081  0.00  0.00    +0.000 C 
ATOM     23  C   UNL     1       4.093   3.379  11.172  0.00  0.00    +0.000 C 
ATOM     24  C   UNL     1       5.001   3.419  12.107  0.00  0.00    +0.000 C 
ENDBRANCH  21  24
ENDBRANCH  20  21
ENDBRANCH   1  20
TORSDOF 7
ENDMDL
MODEL 3
REMARK VINA RESULT:      -6.5      1.981      2.545
REMARK  Name = 
REMARK  10 active torsions:
REMARK  status: ('A' for Active; 'I' for Inactive)
REMARK    1  A    between atoms: C_1  and  C_2
REMARK    2  A    between atoms: C_3  and  C_4
REMARK    3  A    between atoms: C_4  and  C_5
REMARK    4  A    between atoms: C_5  and  N_6
REMARK    5  A    between atoms: C_10  and  N_11
REMARK    6  A    between atoms: C_12  and  C_13
REMARK    7  A    between atoms: N_15  and  C_16
REMARK    8  A    between atoms: N_15  and  C_17
REMARK    9  A    between atoms: C_17  and  C_18
REMARK   10  A    between atoms: C_18  and  C_19
REMARK                            x       y       z     vdW  Elec       q    Type
REMARK                         _______ _______ _______ _____ _____    ______ ____
ROOT
ATOM      1  N   UNL     1       0.108  10.578  19.701  0.00  0.00    +0.000 N 
ATOM      2  N   UNL     1      -0.186  10.346  21.004  0.00  0.00    +0.000 NA
ATOM      3  C   UNL     1       0.456   9.193  21.252  0.00  0.00    +0.000 A 
ATOM      4  C   UNL     1       1.158   8.668  20.142  0.00  0.00    +0.000 A 
ATOM      5  C   UNL     1       1.962   7.526  19.832  0.00  0.00    +0.000 A 
ATOM      6  C   UNL     1       2.480   7.436  18.508  0.00  0.00    +0.000 A 
ATOM      7  C   UNL     1       2.137   8.508  17.675  0.00  0.00    +0.000 A 
ATOM      8  N   UNL     1       1.358   9.590  17.913  0.00  0.00    +0.000 NA
ATOM      9  C   UNL     1       0.909   9.590  19.159  0.00  0.00    +0.000 A 
ENDROOT
BRANCH   6  10
ATOM     10  C   UNL     1       3.358   6.244  18.114  0.00  0.00    +0.000 C 
ATOM     11  O   UNL     1       4.594   6.431  18.047  0.00  0.00    +0.000 OA
ATOM     12  N   UNL     1       2.882   4.934  17.822  0.00  0.00    +0.000 N 
ATOM     13  C   UNL     1       1.521   4.417  17.810  0.00  0.00    +0.000 C 
BRANCH  12  14
ATOM     14  C   UNL     1       3.878   3.897  17.441  0.00  0.00    +0.000 C 
BRANCH  14  15
ATOM     15  C   UNL     1       3.746   2.613  18.272  0.00  0.00    +0.000 C 
ATOM     16  C   UNL     1       4.279   2.723  19.691  0.00  0.00    +0.000 C 
ENDBRANCH  14  15
ENDBRANCH  12  14
ENDBRANCH   6  10
BRANCH   5  17
ATOM     17  N   UNL     1       2.171   6.557  20.801  0.00  0.00    +0.000 N 
ATOM     18  H   UNL     1       2.805   5.783  20.673  0.00  0.00    +0.000 HD
ATOM     19  H   UNL     1       1.512   6.531  21.585  0.00  0.00    +0.000 HD
ENDBRANCH   5  17
BRANCH   1  20
ATOM     20  C   UNL     1      -0.400  11.759  19.014  0.00  0.00    +0.000 C 
BRANCH  20  21
ATOM     21  C   UNL     1      -1.905  11.699  18.787  0.00  0.00    +0.000 C 
BRANCH  21  24
ATOM     22  C   UNL     1      -2.945  10.228  14.834  0.00  0.00    +0.000 C 
ATOM     23  C   UNL     1      -2.581  10.743  16.217  0.00  0.00    +0.000 C 
ATOM     24  C   UNL     1      -2.269  11.184  17.404  0.00  0.00    +0.000 C 
ENDBRANCH  21  24
ENDBRANCH  20  21
ENDBRANCH   1  20
TORSDOF 7
ENDMDL
MODEL 4
REMARK VINA RESULT:      -6.3      2.180      7.387
REMARK  Name = 
REMARK  10 active torsions:
REMARK  status: ('A' for Active; 'I' for Inactive)
REMARK    1  A    between atoms: C_1  and  C_2
REMARK    2  A    between atoms: C_3  and  C_4
REMARK    3  A    between atoms: C_4  and  C_5
REMARK    4  A    between atoms: C_5  and  N_6
REMARK    5  A    between atoms: C_10  and  N_11
REMARK    6  A    between atoms: C_12  and  C_13
REMARK    7  A    between atoms: N_15  and  C_16
REMARK    8  A    between atoms: N_15  and  C_17
REMARK    9  A    between atoms: C_17  and  C_18
REMARK   10  A    between atoms: C_18  and  C_19
REMARK                            x       y       z     vdW  Elec       q    Type
REMARK                         _______ _______ _______ _____ _____    ______ ____
ROOT
ATOM      1  N   UNL     1       4.473   4.462  17.360  0.00  0.00    +0.000 N 
ATOM      2  N   UNL     1       4.304   3.339  18.101  0.00  0.00    +0.000 NA
ATOM      3  C   UNL     1       3.516   3.761  19.102  0.00  0.00    +0.000 A 
ATOM      4  C   UNL     1       3.171   5.131  19.033  0.00  0.00    +0.000 A 
ATOM      5  C   UNL     1       2.414   6.081  19.791  0.00  0.00    +0.000 A 
ATOM      6  C   UNL     1       2.351   7.411  19.289  0.00  0.00    +0.000 A 
ATOM      7  C   UNL     1       3.041   7.613  18.086  0.00  0.00    +0.000 A 
ATOM      8  N   UNL     1       3.793   6.758  17.352  0.00  0.00    +0.000 NA
ATOM      9  C   UNL     1       3.808   5.549  17.894  0.00  0.00    +0.000 A 
ENDROOT
BRANCH   6  10
ATOM     10  C   UNL     1       1.547   8.474  20.046  0.00  0.00    +0.000 C 
ATOM     11  O   UNL     1       1.591   8.451  21.297  0.00  0.00    +0.000 OA
ATOM     12  N   UNL     1       0.757   9.492  19.441  0.00  0.00    +0.000 N 
ATOM     13  C   UNL     1       0.509   9.767  18.032  0.00  0.00    +0.000 C 
BRANCH  12  14
ATOM     14  C   UNL     1       0.029  10.434  20.332  0.00  0.00    +0.000 C 
BRANCH  14  15
ATOM     15  C   UNL     1      -0.530  11.650  19.580  0.00  0.00    +0.000 C 
ATOM     16  C   UNL     1      -1.972  11.992  19.918  0.00  0.00    +0.000 C 
ENDBRANCH  14  15
ENDBRANCH  12  14
ENDBRANCH   6  10
BRANCH   5  17
ATOM     17  N   UNL     1       1.815   5.683  20.976  0.00  0.00    +0.000 N 
ATOM     18  H   UNL     1       2.256   5.052  21.627  0.00  0.00    +0.000 HD
ATOM     19  H   UNL     1       0.818   5.890  21.087  0.00  0.00    +0.000 HD
ENDBRANCH   5  17
BRANCH   1  20
ATOM     20  C   UNL     1       5.280   4.448  16.146  0.00  0.00    +0.000 C 
BRANCH  20  21
ATOM     21  C   UNL     1       6.772   4.547  16.437  0.00  0.00    +0.000 C 
BRANCH  21  24
ATOM     22  C   UNL     1       7.949   8.490  17.828  0.00  0.00    +0.000 C 
ATOM     23  C   UNL     1       7.537   7.110  17.341  0.00  0.00    +0.000 C 
ATOM     24  C   UNL     1       7.184   5.927  16.923  0.00  0.00    +0.000 C 
ENDBRANCH  21  24
ENDBRANCH  20  21
ENDBRANCH   1  20
TORSDOF 7
ENDMDL
MODEL 5
REMARK VINA RESULT:      -6.3      4.693      7.567
REMARK  Name = 
REMARK  10 active torsions:
REMARK  status: ('A' for Active; 'I' for Inactive)
REMARK    1  A    between atoms: C_1  and  C_2
REMARK    2  A    between atoms: C_3  and  C_4
REMARK    3  A    between atoms: C_4  and  C_5
REMARK    4  A    between atoms: C_5  and  N_6
REMARK    5  A    between atoms: C_10  and  N_11
REMARK    6  A    between atoms: C_12  and  C_13
REMARK    7  A    between atoms: N_15  and  C_16
REMARK    8  A    between atoms: N_15  and  C_17
REMARK    9  A    between atoms: C_17  and  C_18
REMARK   10  A    between atoms: C_18  and  C_19
REMARK                            x       y       z     vdW  Elec       q    Type
REMARK                         _______ _______ _______ _____ _____    ______ ____
ROOT
ATOM      1  N   UNL     1       7.657   6.867  17.734  0.00  0.00    +0.000 N 
ATOM      2  N   UNL     1       7.865   6.825  16.395  0.00  0.00    +0.000 NA
ATOM      3  C   UNL     1       6.988   5.895  15.988  0.00  0.00    +0.000 A 
ATOM      4  C   UNL     1       6.217   5.327  17.029  0.00  0.00    +0.000 A 
ATOM      5  C   UNL     1       5.197   4.335  17.183  0.00  0.00    +0.000 A 
ATOM      6  C   UNL     1       4.704   4.107  18.499  0.00  0.00    +0.000 A 
ATOM      7  C   UNL     1       5.285   4.914  19.486  0.00  0.00    +0.000 A 
ATOM      8  N   UNL     1       6.270   5.840  19.394  0.00  0.00    +0.000 NA
ATOM      9  C   UNL     1       6.679   5.980  18.142  0.00  0.00    +0.000 A 
ENDROOT
BRANCH   6  10
ATOM     10  C   UNL     1       3.603   3.067  18.731  0.00  0.00    +0.000 C 
ATOM     11  O   UNL     1       3.937   1.973  19.238  0.00  0.00    +0.000 OA
ATOM     12  N   UNL     1       2.225   3.246  18.420  0.00  0.00    +0.000 N 
ATOM     13  C   UNL     1       1.543   4.388  17.826  0.00  0.00    +0.000 C 
BRANCH  12  14
ATOM     14  C   UNL     1       1.293   2.121  18.699  0.00  0.00    +0.000 C 
BRANCH  14  15
ATOM     15  C   UNL     1       0.426   2.362  19.943  0.00  0.00    +0.000 C 
ATOM     16  C   UNL     1       1.191   2.861  21.157  0.00  0.00    +0.000 C 
ENDBRANCH  14  15
ENDBRANCH  12  14
ENDBRANCH   6  10
BRANCH   5  17
ATOM     17  N   UNL     1       4.765   3.625  16.073  0.00  0.00    +0.000 N 
ATOM     18  H   UNL     1       4.003   3.934  15.489  0.00  0.00    +0.000 HD
ATOM     19  H   UNL     1       5.110   2.666  15.969  0.00  0.00    +0.000 HD
ENDBRANCH   5  17
BRANCH   1  20
ATOM     20  C   UNL     1       8.420   7.771  18.587  0.00  0.00    +0.000 C 
BRANCH  20  21
ATOM     21  C   UNL     1       8.341   9.219  18.118  0.00  0.00    +0.000 C 
BRANCH  21  24
ATOM     22  C   UNL     1      10.638  11.919  20.629  0.00  0.00    +0.000 C 
ATOM     23  C   UNL     1       9.834  10.974  19.750  0.00  0.00    +0.000 C 
ATOM     24  C   UNL     1       9.145  10.164  18.997  0.00  0.00    +0.000 C 
ENDBRANCH  21  24
ENDBRANCH  20  21
ENDBRANCH   1  20
TORSDOF 7
ENDMDL
MODEL 6
REMARK VINA RESULT:      -6.3      0.992      1.376
REMARK  Name = 
REMARK  10 active torsions:
REMARK  status: ('A' for Active; 'I' for Inactive)
REMARK    1  A    between atoms: C_1  and  C_2
REMARK    2  A    between atoms: C_3  and  C_4
REMARK    3  A    between atoms: C_4  and  C_5
REMARK    4  A    between atoms: C_5  and  N_6
REMARK    5  A    between atoms: C_10  and  N_11
REMARK    6  A    between atoms: C_12  and  C_13
REMARK    7  A    between atoms: N_15  and  C_16
REMARK    8  A    between atoms: N_15  and  C_17
REMARK    9  A    between atoms: C_17  and  C_18
REMARK   10  A    between atoms: C_18  and  C_19
REMARK                            x       y       z     vdW  Elec       q    Type
REMARK                         _______ _______ _______ _____ _____    ______ ____
ROOT
ATOM      1  N   UNL     1       0.678   9.513  19.741  0.00  0.00    +0.000 N 
ATOM      2  N   UNL     1       0.414   9.047  20.987  0.00  0.00    +0.000 NA
ATOM      3  C   UNL     1       1.200   7.962  21.070  0.00  0.00    +0.000 A 
ATOM      4  C   UNL     1       1.965   7.708  19.908  0.00  0.00    +0.000 A 
ATOM      5  C   UNL     1       2.911   6.739  19.443  0.00  0.00    +0.000 A 
ATOM      6  C   UNL     1       3.438   6.920  18.133  0.00  0.00    +0.000 A 
ATOM      7  C   UNL     1       2.961   8.055  17.466  0.00  0.00    +0.000 A 
ATOM      8  N   UNL     1       2.048   8.980  17.850  0.00  0.00    +0.000 NA
ATOM      9  C   UNL     1       1.601   8.731  19.072  0.00  0.00    +0.000 A 
ENDROOT
BRANCH   6  10
ATOM     10  C   UNL     1       4.463   5.924  17.581  0.00  0.00    +0.000 C 
ATOM     11  O   UNL     1       5.660   6.288  17.537  0.00  0.00    +0.000 OA
ATOM     12  N   UNL     1       4.165   4.611  17.116  0.00  0.00    +0.000 N 
ATOM     13  C   UNL     1       2.887   3.917  17.037  0.00  0.00    +0.000 C 
BRANCH  12  14
ATOM     14  C   UNL     1       5.285   3.782  16.597  0.00  0.00    +0.000 C 
BRANCH  14  15
ATOM     15  C   UNL     1       5.506   3.960  15.089  0.00  0.00    +0.000 C 
ATOM     16  C   UNL     1       6.821   4.627  14.718  0.00  0.00    +0.000 C 
ENDBRANCH  14  15
ENDBRANCH  12  14
ENDBRANCH   6  10
BRANCH   5  17
ATOM     17  N   UNL     1       3.241   5.666  20.258  0.00  0.00    +0.000 N 
ATOM     18  H   UNL     1       3.659   5.779  21.169  0.00  0.00    +0.000 HD
ATOM     19  H   UNL     1       3.235   4.736  19.829  0.00  0.00    +0.000 HD
ENDBRANCH   5  17
BRANCH   1  20
ATOM     20  C   UNL     1       0.023  10.712  19.231  0.00  0.00    +0.000 C 
BRANCH  20  21
ATOM     21  C   UNL     1      -1.489  10.554  19.136  0.00  0.00    +0.000 C 
BRANCH  21  24
ATOM     22  C   UNL     1      -2.863  10.023  15.049  0.00  0.00    +0.000 C 
ATOM     23  C   UNL     1      -2.382  10.209  16.479  0.00  0.00    +0.000 C 
ATOM     24  C   UNL     1      -1.970  10.368  17.706  0.00  0.00    +0.000 C 
ENDBRANCH  21  24
ENDBRANCH  20  21
ENDBRANCH   1  20
TORSDOF 7
ENDMDL
MODEL 7
REMARK VINA RESULT:      -6.3      2.152      7.586
REMARK  Name = 
REMARK  10 active torsions:
REMARK  status: ('A' for Active; 'I' for Inactive)
REMARK    1  A    between atoms: C_1  and  C_2
REMARK    2  A    between atoms: C_3  and  C_4
REMARK    3  A    between atoms: C_4  and  C_5
REMARK    4  A    between atoms: C_5  and  N_6
REMARK    5  A    between atoms: C_10  and  N_11
REMARK    6  A    between atoms: C_12  and  C_13
REMARK    7  A    between atoms: N_15  and  C_16
REMARK    8  A    between atoms: N_15  and  C_17
REMARK    9  A    between atoms: C_17  and  C_18
REMARK   10  A    between atoms: C_18  and  C_19
REMARK                            x       y       z     vdW  Elec       q    Type
REMARK                         _______ _______ _______ _____ _____    ______ ____
ROOT
ATOM      1  N   UNL     1       4.098   5.989  17.704  0.00  0.00    +0.000 N 
ATOM      2  N   UNL     1       4.174   5.064  18.693  0.00  0.00    +0.000 NA
ATOM      3  C   UNL     1       3.375   5.577  19.641  0.00  0.00    +0.000 A 
ATOM      4  C   UNL     1       2.783   6.814  19.296  0.00  0.00    +0.000 A 
ATOM      5  C   UNL     1       1.906   7.779  19.885  0.00  0.00    +0.000 A 
ATOM      6  C   UNL     1       1.576   8.922  19.103  0.00  0.00    +0.000 A 
ATOM      7  C   UNL     1       2.155   8.941  17.828  0.00  0.00    +0.000 A 
ATOM      8  N   UNL     1       3.012   8.072  17.240  0.00  0.00    +0.000 NA
ATOM      9  C   UNL     1       3.275   7.047  18.038  0.00  0.00    +0.000 A 
ENDROOT
BRANCH   6  10
ATOM     10  C   UNL     1       0.632   9.987  19.671  0.00  0.00    +0.000 C 
ATOM     11  O   UNL     1       0.944  10.517  20.761  0.00  0.00    +0.000 OA
ATOM     12  N   UNL     1      -0.573  10.430  19.055  0.00  0.00    +0.000 N 
ATOM     13  C   UNL     1      -1.194  10.004  17.807  0.00  0.00    +0.000 C 
BRANCH  12  14
ATOM     14  C   UNL     1      -1.378  11.465  19.756  0.00  0.00    +0.000 C 
BRANCH  14  15
ATOM     15  C   UNL     1      -1.460  12.783  18.974  0.00  0.00    +0.000 C 
ATOM     16  C   UNL     1      -0.192  13.620  19.015  0.00  0.00    +0.000 C 
ENDBRANCH  14  15
ENDBRANCH  12  14
ENDBRANCH   6  10
BRANCH   5  17
ATOM     17  N   UNL     1       1.450   7.583  21.180  0.00  0.00    +0.000 N 
ATOM     18  H   UNL     1       0.530   7.861  21.484  0.00  0.00    +0.000 HD
ATOM     19  H   UNL     1       2.147   7.325  21.885  0.00  0.00    +0.000 HD
ENDBRANCH   5  17
BRANCH   1  20
ATOM     20  C   UNL     1       4.832   5.818  16.456  0.00  0.00    +0.000 C 
BRANCH  20  21
ATOM     21  C   UNL     1       5.368   4.403  16.284  0.00  0.00    +0.000 C 
BRANCH  21  24
ATOM     22  C   UNL     1       6.503   3.529  12.182  0.00  0.00    +0.000 C 
ATOM     23  C   UNL     1       6.106   3.835  13.617  0.00  0.00    +0.000 C 
ATOM     24  C   UNL     1       5.766   4.097  14.848  0.00  0.00    +0.000 C 
ENDBRANCH  21  24
ENDBRANCH  20  21
ENDBRANCH   1  20
TORSDOF 7
ENDMDL
MODEL 8
REMARK VINA RESULT:      -6.2      2.188      7.439
REMARK  Name = 
REMARK  10 active torsions:
REMARK  status: ('A' for Active; 'I' for Inactive)
REMARK    1  A    between atoms: C_1  and  C_2
REMARK    2  A    between atoms: C_3  and  C_4
REMARK    3  A    between atoms: C_4  and  C_5
REMARK    4  A    between atoms: C_5  and  N_6
REMARK    5  A    between atoms: C_10  and  N_11
REMARK    6  A    between atoms: C_12  and  C_13
REMARK    7  A    between atoms: N_15  and  C_16
REMARK    8  A    between atoms: N_15  and  C_17
REMARK    9  A    between atoms: C_17  and  C_18
REMARK   10  A    between atoms: C_18  and  C_19
REMARK                            x       y       z     vdW  Elec       q    Type
REMARK                         _______ _______ _______ _____ _____    ______ ____
ROOT
ATOM      1  N   UNL     1       3.914   5.548  18.085  0.00  0.00    +0.000 N 
ATOM      2  N   UNL     1       3.886   4.756  19.186  0.00  0.00    +0.000 NA
ATOM      3  C   UNL     1       3.124   5.461  20.037  0.00  0.00    +0.000 A 
ATOM      4  C   UNL     1       2.660   6.693  19.519  0.00  0.00    +0.000 A 
ATOM      5  C   UNL     1       1.870   7.803  19.955  0.00  0.00    +0.000 A 
ATOM      6  C   UNL     1       1.663   8.860  19.024  0.00  0.00    +0.000 A 
ATOM      7  C   UNL     1       2.262   8.659  17.774  0.00  0.00    +0.000 A 
ATOM      8  N   UNL     1       3.041   7.645  17.326  0.00  0.00    +0.000 NA
ATOM      9  C   UNL     1       3.191   6.713  18.256  0.00  0.00    +0.000 A 
ENDROOT
BRANCH   6  10
ATOM     10  C   UNL     1       0.817  10.074  19.424  0.00  0.00    +0.000 C 
ATOM     11  O   UNL     1       1.206  10.756  20.398  0.00  0.00    +0.000 OA
ATOM     12  N   UNL     1      -0.377  10.494  18.771  0.00  0.00    +0.000 N 
ATOM     13  C   UNL     1      -1.071   9.910  17.631  0.00  0.00    +0.000 C 
BRANCH  12  14
ATOM     14  C   UNL     1      -1.081  11.690  19.303  0.00  0.00    +0.000 C 
BRANCH  14  15
ATOM     15  C   UNL     1      -0.864  12.941  18.440  0.00  0.00    +0.000 C 
ATOM     16  C   UNL     1      -0.065  14.042  19.117  0.00  0.00    +0.000 C 
ENDBRANCH  14  15
ENDBRANCH  12  14
ENDBRANCH   6  10
BRANCH   5  17
ATOM     17  N   UNL     1       1.377   7.821  21.251  0.00  0.00    +0.000 N 
ATOM     18  H   UNL     1       1.832   8.315  22.003  0.00  0.00    +0.000 HD
ATOM     19  H   UNL     1       0.636   7.150  21.478  0.00  0.00    +0.000 HD
ENDBRANCH   5  17
BRANCH   1  20
ATOM     20  C   UNL     1       4.648   5.148  16.890  0.00  0.00    +0.000 C 
BRANCH  20  21
ATOM     21  C   UNL     1       6.139   4.975  17.151  0.00  0.00    +0.000 C 
BRANCH  21  24
ATOM     22  C   UNL     1       8.160   8.750  17.883  0.00  0.00    +0.000 C 
ATOM     23  C   UNL     1       7.453   7.429  17.627  0.00  0.00    +0.000 C 
ATOM     24  C   UNL     1       6.846   6.296  17.407  0.00  0.00    +0.000 C 
ENDBRANCH  21  24
ENDBRANCH  20  21
ENDBRANCH   1  20
TORSDOF 7
ENDMDL
MODEL 9
REMARK VINA RESULT:      -6.2      2.211      7.454
REMARK  Name = 
REMARK  10 active torsions:
REMARK  status: ('A' for Active; 'I' for Inactive)
REMARK    1  A    between atoms: C_1  and  C_2
REMARK    2  A    between atoms: C_3  and  C_4
REMARK    3  A    between atoms: C_4  and  C_5
REMARK    4  A    between atoms: C_5  and  N_6
REMARK    5  A    between atoms: C_10  and  N_11
REMARK    6  A    between atoms: C_12  and  C_13
REMARK    7  A    between atoms: N_15  and  C_16
REMARK    8  A    between atoms: N_15  and  C_17
REMARK    9  A    between atoms: C_17  and  C_18
REMARK   10  A    between atoms: C_18  and  C_19
REMARK                            x       y       z     vdW  Elec       q    Type
REMARK                         _______ _______ _______ _____ _____    ______ ____
ROOT
ATOM      1  N   UNL     1       5.355   4.693  15.819  0.00  0.00    +0.000 N 
ATOM      2  N   UNL     1       5.124   3.384  16.092  0.00  0.00    +0.000 NA
ATOM      3  C   UNL     1       4.236   3.443  17.097  0.00  0.00    +0.000 A 
ATOM      4  C   UNL     1       3.886   4.757  17.487  0.00  0.00    +0.000 A 
ATOM      5  C   UNL     1       3.047   5.394  18.456  0.00  0.00    +0.000 A 
ATOM      6  C   UNL     1       3.020   6.818  18.457  0.00  0.00    +0.000 A 
ATOM      7  C   UNL     1       3.824   7.416  17.478  0.00  0.00    +0.000 A 
ATOM      8  N   UNL     1       4.654   6.859  16.564  0.00  0.00    +0.000 NA
ATOM      9  C   UNL     1       4.629   5.536  16.639  0.00  0.00    +0.000 A 
ENDROOT
BRANCH   6  10
ATOM     10  C   UNL     1       2.134   7.562  19.461  0.00  0.00    +0.000 C 
ATOM     11  O   UNL     1       1.977   7.045  20.591  0.00  0.00    +0.000 OA
ATOM     12  N   UNL     1       1.477   8.801  19.217  0.00  0.00    +0.000 N 
ATOM     13  C   UNL     1       1.464   9.630  18.019  0.00  0.00    +0.000 C 
BRANCH  12  14
ATOM     14  C   UNL     1       0.641   9.376  20.304  0.00  0.00    +0.000 C 
BRANCH  14  15
ATOM     15  C   UNL     1      -0.109  10.643  19.870  0.00  0.00    +0.000 C 
ATOM     16  C   UNL     1      -0.501  11.566  21.012  0.00  0.00    +0.000 C 
ENDBRANCH  14  15
ENDBRANCH  12  14
ENDBRANCH   6  10
BRANCH   5  17
ATOM     17  N   UNL     1       2.337   4.617  19.358  0.00  0.00    +0.000 N 
ATOM     18  H   UNL     1       1.336   4.677  19.463  0.00  0.00    +0.000 HD
ATOM     19  H   UNL     1       2.879   4.113  20.067  0.00  0.00    +0.000 HD
ENDBRANCH   5  17
BRANCH   1  20
ATOM     20  C   UNL     1       6.279   5.090  14.764  0.00  0.00    +0.000 C 
BRANCH  20  21
ATOM     21  C   UNL     1       6.652   3.931  13.849  0.00  0.00    +0.000 C 
BRANCH  21  24
ATOM     22  C   UNL     1       3.657   3.180  10.793  0.00  0.00    +0.000 C 
ATOM     23  C   UNL     1       4.705   3.443  11.862  0.00  0.00    +0.000 C 
ATOM     24  C   UNL     1       5.604   3.668  12.779  0.00  0.00    +0.000 C 
ENDBRANCH  21  24
ENDBRANCH  20  21
ENDBRANCH   1  20
TORSDOF 7
ENDMDL
