MODEL 1
REMARK VINA RESULT:      -7.1      0.000      0.000
REMARK  Name = 
REMARK  13 active torsions:
REMARK  status: ('A' for Active; 'I' for Inactive)
REMARK    1  A    between atoms: C_1  and  C_2
REMARK    2  A    between atoms: C_2  and  C_3
REMARK    3  A    between atoms: C_2  and  C_4
REMARK    4  A    between atoms: C_2  and  O_5
REMARK    5  A    between atoms: O_5  and  C_6
REMARK    6  A    between atoms: N_8  and  C_9
REMARK    7  A    between atoms: C_9  and  C_10
REMARK    8  A    between atoms: C_9  and  C_17
REMARK    9  A    between atoms: C_10  and  C_11
REMARK   10  A    between atoms: N_19  and  C_20
REMARK   11  A    between atoms: C_20  and  C_21
REMARK   12  A    between atoms: C_21  and  S_22
REMARK   13  A    between atoms: S_22  and  C_24
REMARK                            x       y       z     vdW  Elec       q    Type
REMARK                         _______ _______ _______ _____ _____    ______ ____
ROOT
ATOM      1  C   UNL     1       2.526   7.104  18.520  0.00  0.00    +0.000 C 
ENDROOT
BRANCH   1   4
ATOM      2  C   UNL     1       4.518   6.117  17.370  0.00  0.00    +0.000 C 
ATOM      3  O   UNL     1       3.949   5.105  16.999  0.00  0.00    +0.000 OA
ATOM      4  N   UNL     1       3.925   7.112  18.084  0.00  0.00    +0.000 N 
ATOM      5  H   UNL     1       4.498   7.908  18.344  0.00  0.00    +0.000 HD
BRANCH   2   6
ATOM      6  O   UNL     1       5.827   6.413  17.171  0.00  0.00    +0.000 OA
BRANCH   6   8
ATOM      7  C   UNL     1       7.940   6.805  18.396  0.00  0.00    +0.000 C 
ATOM      8  C   UNL     1       6.870   5.792  17.975  0.00  0.00    +0.000 C 
ATOM      9  C   UNL     1       7.493   4.585  17.261  0.00  0.00    +0.000 C 
ATOM     10  C   UNL     1       6.161   5.285  19.243  0.00  0.00    +0.000 C 
ENDBRANCH   6   8
ENDBRANCH   2   6
ENDBRANCH   1   4
BRANCH   1  11
ATOM     11  C   UNL     1       1.954   8.532  18.332  0.00  0.00    +0.000 C 
ATOM     12  O   UNL     1       2.048   9.144  17.267  0.00  0.00    +0.000 OA
ATOM     13  N   UNL     1       1.311   9.071  19.427  0.00  0.00    +0.000 N 
ATOM     14  H   UNL     1       1.139   8.503  20.249  0.00  0.00    +0.000 HD
BRANCH  13  15
ATOM     15  C   UNL     1       0.831  10.447  19.450  0.00  0.00    +0.000 C 
BRANCH  15  16
ATOM     16  C   UNL     1       0.854  11.108  20.827  0.00  0.00    +0.000 C 
BRANCH  16  17
ATOM     17  S   UNL     1      -0.511  10.489  21.859  0.00  0.00    +0.000 S 
ATOM     18  O   UNL     1       0.050  10.294  23.315  0.00  0.00    +0.000 OA
BRANCH  17  19
ATOM     19  C   UNL     1      -1.509  12.001  21.843  0.00  0.00    +0.000 C 
ATOM     20 CL   UNL     1      -1.345  12.976  23.314  0.00  0.00    +0.000 Cl
ENDBRANCH  17  19
ENDBRANCH  16  17
ENDBRANCH  15  16
ENDBRANCH  13  15
ENDBRANCH   1  11
BRANCH   1  21
ATOM     21  C   UNL     1       2.311   6.600  19.966  0.00  0.00    +0.000 C 
BRANCH  21  22
ATOM     22  C   UNL     1       2.021   5.119  20.066  0.00  0.00    +0.000 A 
ATOM     23  C   UNL     1       1.468   4.422  18.983  0.00  0.00    +0.000 A 
ATOM     24  C   UNL     1       1.105   3.081  19.117  0.00  0.00    +0.000 A 
ATOM     25  C   UNL     1       1.300   2.424  20.330  0.00  0.00    +0.000 A 
ATOM     26  C   UNL     1       1.883   3.097  21.401  0.00  0.00    +0.000 A 
ATOM     27  C   UNL     1       2.250   4.436  21.267  0.00  0.00    +0.000 A 
ENDBRANCH  21  22
ENDBRANCH   1  21
TORSDOF 10
ENDMDL
MODEL 2
REMARK VINA RESULT:      -7.0      1.744      2.233
REMARK  Name = 
REMARK  13 active torsions:
REMARK  status: ('A' for Active; 'I' for Inactive)
REMARK    1  A    between atoms: C_1  and  C_2
REMARK    2  A    between atoms: C_2  and  C_3
REMARK    3  A    between atoms: C_2  and  C_4
REMARK    4  A    between atoms: C_2  and  O_5
REMARK    5  A    between atoms: O_5  and  C_6
REMARK    6  A    between atoms: N_8  and  C_9
REMARK    7  A    between atoms: C_9  and  C_10
REMARK    8  A    between atoms: C_9  and  C_17
REMARK    9  A    between atoms: C_10  and  C_11
REMARK   10  A    between atoms: N_19  and  C_20
REMARK   11  A    between atoms: C_20  and  C_21
REMARK   12  A    between atoms: C_21  and  S_22
REMARK   13  A    between atoms: S_22  and  C_24
REMARK                            x       y       z     vdW  Elec       q    Type
REMARK                         _______ _______ _______ _____ _____    ______ ____
ROOT
ATOM      1  C   UNL     1       2.555   6.966  18.434  0.00  0.00    +0.000 C 
ENDROOT
BRANCH   1   4
ATOM      2  C   UNL     1       4.406   5.737  17.281  0.00  0.00    +0.000 C 
ATOM      3  O   UNL     1       3.775   4.708  17.114  0.00  0.00    +0.000 OA
ATOM      4  N   UNL     1       3.909   6.850  17.886  0.00  0.00    +0.000 N 
ATOM      5  H   UNL     1       4.526   7.650  17.975  0.00  0.00    +0.000 HD
BRANCH   2   6
ATOM      6  O   UNL     1       5.700   5.945  16.930  0.00  0.00    +0.000 OA
BRANCH   6   8
ATOM      7  C   UNL     1       6.253   5.297  19.253  0.00  0.00    +0.000 C 
ATOM      8  C   UNL     1       6.782   5.726  17.880  0.00  0.00    +0.000 C 
ATOM      9  C   UNL     1       7.694   6.955  17.992  0.00  0.00    +0.000 C 
ATOM     10  C   UNL     1       7.608   4.567  17.297  0.00  0.00    +0.000 C 
ENDBRANCH   6   8
ENDBRANCH   2   6
ENDBRANCH   1   4
BRANCH   1  11
ATOM     11  C   UNL     1       2.066   8.419  18.209  0.00  0.00    +0.000 C 
ATOM     12  O   UNL     1       2.255   9.021  17.151  0.00  0.00    +0.000 OA
ATOM     13  N   UNL     1       1.382   8.993  19.262  0.00  0.00    +0.000 N 
ATOM     14  H   UNL     1       1.132   8.437  20.072  0.00  0.00    +0.000 HD
BRANCH  13  15
ATOM     15  C   UNL     1       0.969  10.391  19.253  0.00  0.00    +0.000 C 
BRANCH  15  16
ATOM     16  C   UNL     1       0.171  10.827  20.480  0.00  0.00    +0.000 C 
BRANCH  16  17
ATOM     17  S   UNL     1      -1.410  11.581  19.983  0.00  0.00    +0.000 S 
ATOM     18  O   UNL     1      -1.280  13.132  20.202  0.00  0.00    +0.000 OA
BRANCH  17  19
ATOM     19  C   UNL     1      -1.266  11.254  18.207  0.00  0.00    +0.000 C 
ATOM     20 CL   UNL     1      -2.315   9.944  17.638  0.00  0.00    +0.000 Cl
ENDBRANCH  17  19
ENDBRANCH  16  17
ENDBRANCH  15  16
ENDBRANCH  13  15
ENDBRANCH   1  11
BRANCH   1  21
ATOM     21  C   UNL     1       2.431   6.556  19.920  0.00  0.00    +0.000 C 
BRANCH  21  22
ATOM     22  C   UNL     1       2.006   5.121  20.131  0.00  0.00    +0.000 A 
ATOM     23  C   UNL     1       2.318   4.447  21.320  0.00  0.00    +0.000 A 
ATOM     24  C   UNL     1       2.017   3.093  21.465  0.00  0.00    +0.000 A 
ATOM     25  C   UNL     1       1.395   2.402  20.428  0.00  0.00    +0.000 A 
ATOM     26  C   UNL     1       1.047   3.070  19.256  0.00  0.00    +0.000 A 
ATOM     27  C   UNL     1       1.343   4.425  19.112  0.00  0.00    +0.000 A 
ENDBRANCH  21  22
ENDBRANCH   1  21
TORSDOF 10
ENDMDL
MODEL 3
REMARK VINA RESULT:      -6.9      2.049      2.345
REMARK  Name = 
REMARK  13 active torsions:
REMARK  status: ('A' for Active; 'I' for Inactive)
REMARK    1  A    between atoms: C_1  and  C_2
REMARK    2  A    between atoms: C_2  and  C_3
REMARK    3  A    between atoms: C_2  and  C_4
REMARK    4  A    between atoms: C_2  and  O_5
REMARK    5  A    between atoms: O_5  and  C_6
REMARK    6  A    between atoms: N_8  and  C_9
REMARK    7  A    between atoms: C_9  and  C_10
REMARK    8  A    between atoms: C_9  and  C_17
REMARK    9  A    between atoms: C_10  and  C_11
REMARK   10  A    between atoms: N_19  and  C_20
REMARK   11  A    between atoms: C_20  and  C_21
REMARK   12  A    between atoms: C_21  and  S_22
REMARK   13  A    between atoms: S_22  and  C_24
REMARK                            x       y       z     vdW  Elec       q    Type
REMARK                         _______ _______ _______ _____ _____    ______ ____
ROOT
ATOM      1  C   UNL     1       2.518   6.959  18.385  0.00  0.00    +0.000 C 
ENDROOT
BRANCH   1   4
ATOM      2  C   UNL     1       4.574   6.043  17.289  0.00  0.00    +0.000 C 
ATOM      3  O   UNL     1       4.037   5.037  16.859  0.00  0.00    +0.000 OA
ATOM      4  N   UNL     1       3.934   7.003  18.011  0.00  0.00    +0.000 N 
ATOM      5  H   UNL     1       4.481   7.798  18.323  0.00  0.00    +0.000 HD
BRANCH   2   6
ATOM      6  O   UNL     1       5.884   6.365  17.158  0.00  0.00    +0.000 OA
BRANCH   6   8
ATOM      7  C   UNL     1       6.255   5.263  19.342  0.00  0.00    +0.000 C 
ATOM      8  C   UNL     1       6.888   5.823  18.064  0.00  0.00    +0.000 C 
ATOM      9  C   UNL     1       7.977   6.855  18.386  0.00  0.00    +0.000 C 
ATOM     10  C   UNL     1       7.542   4.660  17.299  0.00  0.00    +0.000 C 
ENDBRANCH   6   8
ENDBRANCH   2   6
ENDBRANCH   1   4
BRANCH   1  11
ATOM     11  C   UNL     1       1.945   8.395  18.276  0.00  0.00    +0.000 C 
ATOM     12  O   UNL     1       1.995   9.047  17.232  0.00  0.00    +0.000 OA
ATOM     13  N   UNL     1       1.353   8.894  19.418  0.00  0.00    +0.000 N 
ATOM     14  H   UNL     1       1.215   8.296  20.225  0.00  0.00    +0.000 HD
BRANCH  13  15
ATOM     15  C   UNL     1       0.881  10.270  19.514  0.00  0.00    +0.000 C 
BRANCH  15  16
ATOM     16  C   UNL     1      -0.637  10.428  19.472  0.00  0.00    +0.000 C 
BRANCH  16  17
ATOM     17  S   UNL     1      -1.093  12.083  18.867  0.00  0.00    +0.000 S 
ATOM     18  O   UNL     1       0.233  12.806  18.431  0.00  0.00    +0.000 OA
BRANCH  17  19
ATOM     19  C   UNL     1      -1.955  11.544  17.367  0.00  0.00    +0.000 C 
ATOM     20 CL   UNL     1      -1.852   9.800  17.076  0.00  0.00    +0.000 Cl
ENDBRANCH  17  19
ENDBRANCH  16  17
ENDBRANCH  15  16
ENDBRANCH  13  15
ENDBRANCH   1  11
BRANCH   1  21
ATOM     21  C   UNL     1       2.244   6.351  19.780  0.00  0.00    +0.000 C 
BRANCH  21  22
ATOM     22  C   UNL     1       2.086   4.847  19.777  0.00  0.00    +0.000 A 
ATOM     23  C   UNL     1       1.323   4.208  18.790  0.00  0.00    +0.000 A 
ATOM     24  C   UNL     1       1.093   2.833  18.853  0.00  0.00    +0.000 A 
ATOM     25  C   UNL     1       1.632   2.084  19.898  0.00  0.00    +0.000 A 
ATOM     26  C   UNL     1       2.423   2.703  20.863  0.00  0.00    +0.000 A 
ATOM     27  C   UNL     1       2.656   4.076  20.798  0.00  0.00    +0.000 A 
ENDBRANCH  21  22
ENDBRANCH   1  21
TORSDOF 10
ENDMDL
MODEL 4
REMARK VINA RESULT:      -6.9      3.975      6.111
REMARK  Name = 
REMARK  13 active torsions:
REMARK  status: ('A' for Active; 'I' for Inactive)
REMARK    1  A    between atoms: C_1  and  C_2
REMARK    2  A    between atoms: C_2  and  C_3
REMARK    3  A    between atoms: C_2  and  C_4
REMARK    4  A    between atoms: C_2  and  O_5
REMARK    5  A    between atoms: O_5  and  C_6
REMARK    6  A    between atoms: N_8  and  C_9
REMARK    7  A    between atoms: C_9  and  C_10
REMARK    8  A    between atoms: C_9  and  C_17
REMARK    9  A    between atoms: C_10  and  C_11
REMARK   10  A    between atoms: N_19  and  C_20
REMARK   11  A    between atoms: C_20  and  C_21
REMARK   12  A    between atoms: C_21  and  S_22
REMARK   13  A    between atoms: S_22  and  C_24
REMARK                            x       y       z     vdW  Elec       q    Type
REMARK                         _______ _______ _______ _____ _____    ______ ____
ROOT
ATOM      1  C   UNL     1       3.463   7.050  18.189  0.00  0.00    +0.000 C 
ENDROOT
BRANCH   1   4
ATOM      2  C   UNL     1       5.474   6.875  16.709  0.00  0.00    +0.000 C 
ATOM      3  O   UNL     1       6.227   7.464  17.466  0.00  0.00    +0.000 OA
ATOM      4  N   UNL     1       4.162   6.630  16.972  0.00  0.00    +0.000 N 
ATOM      5  H   UNL     1       3.627   6.135  16.266  0.00  0.00    +0.000 HD
BRANCH   2   6
ATOM      6  O   UNL     1       5.793   6.395  15.481  0.00  0.00    +0.000 OA
BRANCH   6   8
ATOM      7  C   UNL     1       7.076   4.607  16.610  0.00  0.00    +0.000 C 
ATOM      8  C   UNL     1       6.397   5.080  15.321  0.00  0.00    +0.000 C 
ATOM      9  C   UNL     1       7.367   5.043  14.132  0.00  0.00    +0.000 C 
ATOM     10  C   UNL     1       5.227   4.129  15.015  0.00  0.00    +0.000 C 
ENDBRANCH   6   8
ENDBRANCH   2   6
ENDBRANCH   1   4
BRANCH   1  11
ATOM     11  C   UNL     1       3.543   5.892  19.215  0.00  0.00    +0.000 C 
ATOM     12  O   UNL     1       4.603   5.332  19.496  0.00  0.00    +0.000 OA
ATOM     13  N   UNL     1       2.351   5.537  19.815  0.00  0.00    +0.000 N 
ATOM     14  H   UNL     1       1.516   6.091  19.660  0.00  0.00    +0.000 HD
BRANCH  13  15
ATOM     15  C   UNL     1       2.238   4.388  20.704  0.00  0.00    +0.000 C 
BRANCH  15  16
ATOM     16  C   UNL     1       0.993   3.532  20.485  0.00  0.00    +0.000 C 
BRANCH  16  17
ATOM     17  S   UNL     1       1.095   2.644  18.899  0.00  0.00    +0.000 S 
ATOM     18  O   UNL     1       1.107   3.724  17.756  0.00  0.00    +0.000 OA
BRANCH  17  19
ATOM     19  C   UNL     1       2.786   2.023  19.098  0.00  0.00    +0.000 C 
ATOM     20 CL   UNL     1       3.846   2.399  17.730  0.00  0.00    +0.000 Cl
ENDBRANCH  17  19
ENDBRANCH  16  17
ENDBRANCH  15  16
ENDBRANCH  13  15
ENDBRANCH   1  11
BRANCH   1  21
ATOM     21  C   UNL     1       2.001   7.501  17.964  0.00  0.00    +0.000 C 
BRANCH  21  22
ATOM     22  C   UNL     1       1.671   8.848  18.566  0.00  0.00    +0.000 A 
ATOM     23  C   UNL     1       1.958  10.033  17.875  0.00  0.00    +0.000 A 
ATOM     24  C   UNL     1       1.749  11.273  18.479  0.00  0.00    +0.000 A 
ATOM     25  C   UNL     1       1.243  11.340  19.776  0.00  0.00    +0.000 A 
ATOM     26  C   UNL     1       0.919  10.169  20.458  0.00  0.00    +0.000 A 
ATOM     27  C   UNL     1       1.123   8.930  19.853  0.00  0.00    +0.000 A 
ENDBRANCH  21  22
ENDBRANCH   1  21
TORSDOF 10
ENDMDL
MODEL 5
REMARK VINA RESULT:      -6.8      1.053      1.389
REMARK  Name = 
REMARK  13 active torsions:
REMARK  status: ('A' for Active; 'I' for Inactive)
REMARK    1  A    between atoms: C_1  and  C_2
REMARK    2  A    between atoms: C_2  and  C_3
REMARK    3  A    between atoms: C_2  and  C_4
REMARK    4  A    between atoms: C_2  and  O_5
REMARK    5  A    between atoms: O_5  and  C_6
REMARK    6  A    between atoms: N_8  and  C_9
REMARK    7  A    between atoms: C_9  and  C_10
REMARK    8  A    between atoms: C_9  and  C_17
REMARK    9  A    between atoms: C_10  and  C_11
REMARK   10  A    between atoms: N_19  and  C_20
REMARK   11  A    between atoms: C_20  and  C_21
REMARK   12  A    between atoms: C_21  and  S_22
REMARK   13  A    between atoms: S_22  and  C_24
REMARK                            x       y       z     vdW  Elec       q    Type
REMARK                         _______ _______ _______ _____ _____    ______ ____
ROOT
ATOM      1  C   UNL     1       2.514   7.097  18.490  0.00  0.00    +0.000 C 
ENDROOT
BRANCH   1   4
ATOM      2  C   UNL     1       4.484   6.074  17.333  0.00  0.00    +0.000 C 
ATOM      3  O   UNL     1       3.902   5.060  16.988  0.00  0.00    +0.000 OA
ATOM      4  N   UNL     1       3.907   7.087  18.036  0.00  0.00    +0.000 N 
ATOM      5  H   UNL     1       4.489   7.883  18.275  0.00  0.00    +0.000 HD
BRANCH   2   6
ATOM      6  O   UNL     1       5.792   6.357  17.112  0.00  0.00    +0.000 OA
BRANCH   6   8
ATOM      7  C   UNL     1       7.556   4.628  17.246  0.00  0.00    +0.000 C 
ATOM      8  C   UNL     1       6.838   5.785  17.948  0.00  0.00    +0.000 C 
ATOM      9  C   UNL     1       6.296   5.356  19.319  0.00  0.00    +0.000 C 
ATOM     10  C   UNL     1       7.852   6.920  18.168  0.00  0.00    +0.000 C 
ENDBRANCH   6   8
ENDBRANCH   2   6
ENDBRANCH   1   4
BRANCH   1  11
ATOM     11  C   UNL     1       1.958   8.532  18.306  0.00  0.00    +0.000 C 
ATOM     12  O   UNL     1       2.039   9.138  17.236  0.00  0.00    +0.000 OA
ATOM     13  N   UNL     1       1.342   9.084  19.411  0.00  0.00    +0.000 N 
ATOM     14  H   UNL     1       1.179   8.523  20.239  0.00  0.00    +0.000 HD
BRANCH  13  15
ATOM     15  C   UNL     1       0.881  10.467  19.436  0.00  0.00    +0.000 C 
BRANCH  15  16
ATOM     16  C   UNL     1      -0.623  10.634  19.639  0.00  0.00    +0.000 C 
BRANCH  16  17
ATOM     17  S   UNL     1      -0.962  11.843  20.957  0.00  0.00    +0.000 S 
ATOM     18  O   UNL     1       0.374  12.050  21.760  0.00  0.00    +0.000 OA
BRANCH  17  19
ATOM     19  C   UNL     1      -1.200  13.284  19.885  0.00  0.00    +0.000 C 
ATOM     20 CL   UNL     1      -0.632  14.802  20.600  0.00  0.00    +0.000 Cl
ENDBRANCH  17  19
ENDBRANCH  16  17
ENDBRANCH  15  16
ENDBRANCH  13  15
ENDBRANCH   1  11
BRANCH   1  21
ATOM     21  C   UNL     1       2.311   6.599  19.940  0.00  0.00    +0.000 C 
BRANCH  21  22
ATOM     22  C   UNL     1       2.022   5.120  20.049  0.00  0.00    +0.000 A 
ATOM     23  C   UNL     1       1.441   4.421  18.981  0.00  0.00    +0.000 A 
ATOM     24  C   UNL     1       1.079   3.081  19.125  0.00  0.00    +0.000 A 
ATOM     25  C   UNL     1       1.303   2.425  20.334  0.00  0.00    +0.000 A 
ATOM     26  C   UNL     1       1.914   3.099  21.389  0.00  0.00    +0.000 A 
ATOM     27  C   UNL     1       2.279   4.437  21.244  0.00  0.00    +0.000 A 
ENDBRANCH  21  22
ENDBRANCH   1  21
TORSDOF 10
ENDMDL
MODEL 6
REMARK VINA RESULT:      -6.8      1.139      1.139
REMARK  Name = 
REMARK  13 active torsions:
REMARK  status: ('A' for Active; 'I' for Inactive)
REMARK    1  A    between atoms: C_1  and  C_2
REMARK    2  A    between atoms: C_2  and  C_3
REMARK    3  A    between atoms: C_2  and  C_4
REMARK    4  A    between atoms: C_2  and  O_5
REMARK    5  A    between atoms: O_5  and  C_6
REMARK    6  A    between atoms: N_8  and  C_9
REMARK    7  A    between atoms: C_9  and  C_10
REMARK    8  A    between atoms: C_9  and  C_17
REMARK    9  A    between atoms: C_10  and  C_11
REMARK   10  A    between atoms: N_19  and  C_20
REMARK   11  A    between atoms: C_20  and  C_21
REMARK   12  A    between atoms: C_21  and  S_22
REMARK   13  A    between atoms: S_22  and  C_24
REMARK                            x       y       z     vdW  Elec       q    Type
REMARK                         _______ _______ _______ _____ _____    ______ ____
ROOT
ATOM      1  C   UNL     1       2.551   7.050  18.494  0.00  0.00    +0.000 C 
ENDROOT
BRANCH   1   4
ATOM      2  C   UNL     1       4.520   6.029  17.334  0.00  0.00    +0.000 C 
ATOM      3  O   UNL     1       3.950   4.997  17.024  0.00  0.00    +0.000 OA
ATOM      4  N   UNL     1       3.937   7.050  18.019  0.00  0.00    +0.000 N 
ATOM      5  H   UNL     1       4.509   7.861  18.227  0.00  0.00    +0.000 HD
BRANCH   2   6
ATOM      6  O   UNL     1       5.819   6.327  17.085  0.00  0.00    +0.000 OA
BRANCH   6   8
ATOM      7  C   UNL     1       7.894   6.908  18.300  0.00  0.00    +0.000 C 
ATOM      8  C   UNL     1       6.886   5.815  17.934  0.00  0.00    +0.000 C 
ATOM      9  C   UNL     1       7.581   4.603  17.300  0.00  0.00    +0.000 C 
ATOM     10  C   UNL     1       6.191   5.347  19.224  0.00  0.00    +0.000 C 
ENDBRANCH   6   8
ENDBRANCH   2   6
ENDBRANCH   1   4
BRANCH   1  11
ATOM     11  C   UNL     1       1.976   8.475  18.304  0.00  0.00    +0.000 C 
ATOM     12  O   UNL     1       2.168   9.133  17.280  0.00  0.00    +0.000 OA
ATOM     13  N   UNL     1       1.213   8.960  19.348  0.00  0.00    +0.000 N 
ATOM     14  H   UNL     1       0.967   8.356  20.124  0.00  0.00    +0.000 HD
BRANCH  13  15
ATOM     15  C   UNL     1       0.707  10.327  19.375  0.00  0.00    +0.000 C 
BRANCH  15  16
ATOM     16  C   UNL     1      -0.462  10.555  20.330  0.00  0.00    +0.000 C 
BRANCH  16  17
ATOM     17  S   UNL     1      -0.847  12.330  20.460  0.00  0.00    +0.000 S 
ATOM     18  O   UNL     1      -2.353  12.515  20.048  0.00  0.00    +0.000 OA
BRANCH  17  19
ATOM     19  C   UNL     1      -0.742  12.452  22.265  0.00  0.00    +0.000 C 
ATOM     20 CL   UNL     1      -2.135  11.753  23.107  0.00  0.00    +0.000 Cl
ENDBRANCH  17  19
ENDBRANCH  16  17
ENDBRANCH  15  16
ENDBRANCH  13  15
ENDBRANCH   1  11
BRANCH   1  21
ATOM     21  C   UNL     1       2.375   6.564  19.952  0.00  0.00    +0.000 C 
BRANCH  21  22
ATOM     22  C   UNL     1       2.057   5.091  20.077  0.00  0.00    +0.000 A 
ATOM     23  C   UNL     1       1.469   4.391  19.014  0.00  0.00    +0.000 A 
ATOM     24  C   UNL     1       1.081   3.060  19.172  0.00  0.00    +0.000 A 
ATOM     25  C   UNL     1       1.285   2.415  20.390  0.00  0.00    +0.000 A 
ATOM     26  C   UNL     1       1.902   3.089  21.441  0.00  0.00    +0.000 A 
ATOM     27  C   UNL     1       2.294   4.418  21.282  0.00  0.00    +0.000 A 
ENDBRANCH  21  22
ENDBRANCH   1  21
TORSDOF 10
ENDMDL
MODEL 7
REMARK VINA RESULT:      -6.8      4.815      7.433
REMARK  Name = 
REMARK  13 active torsions:
REMARK  status: ('A' for Active; 'I' for Inactive)
REMARK    1  A    between atoms: C_1  and  C_2
REMARK    2  A    between atoms: C_2  and  C_3
REMARK    3  A    between atoms: C_2  and  C_4
REMARK    4  A    between atoms: C_2  and  O_5
REMARK    5  A    between atoms: O_5  and  C_6
REMARK    6  A    between atoms: N_8  and  C_9
REMARK    7  A    between atoms: C_9  and  C_10
REMARK    8  A    between atoms: C_9  and  C_17
REMARK    9  A    between atoms: C_10  and  C_11
REMARK   10  A    between atoms: N_19  and  C_20
REMARK   11  A    between atoms: C_20  and  C_21
REMARK   12  A    between atoms: C_21  and  S_22
REMARK   13  A    between atoms: S_22  and  C_24
REMARK                            x       y       z     vdW  Elec       q    Type
REMARK                         _______ _______ _______ _____ _____    ______ ____
ROOT
ATOM      1  C   UNL     1       5.858   5.414  17.197  0.00  0.00    +0.000 C 
ENDROOT
BRANCH   1   4
ATOM      2  C   UNL     1       4.632   4.503  19.181  0.00  0.00    +0.000 C 
ATOM      3  O   UNL     1       5.342   3.522  19.315  0.00  0.00    +0.000 OA
ATOM      4  N   UNL     1       4.806   5.448  18.217  0.00  0.00    +0.000 N 
ATOM      5  H   UNL     1       4.150   6.222  18.195  0.00  0.00    +0.000 HD
BRANCH   2   6
ATOM      6  O   UNL     1       3.544   4.809  19.931  0.00  0.00    +0.000 OA
BRANCH   6   8
ATOM      7  C   UNL     1       2.704   2.764  21.041  0.00  0.00    +0.000 C 
ATOM      8  C   UNL     1       2.421   3.887  20.039  0.00  0.00    +0.000 C 
ATOM      9  C   UNL     1       2.016   3.326  18.670  0.00  0.00    +0.000 C 
ATOM     10  C   UNL     1       1.252   4.730  20.576  0.00  0.00    +0.000 C 
ENDBRANCH   6   8
ENDBRANCH   2   6
ENDBRANCH   1   4
BRANCH   1  11
ATOM     11  C   UNL     1       7.084   6.187  17.744  0.00  0.00    +0.000 C 
ATOM     12  O   UNL     1       7.848   5.705  18.582  0.00  0.00    +0.000 OA
ATOM     13  N   UNL     1       7.283   7.448  17.217  0.00  0.00    +0.000 N 
ATOM     14  H   UNL     1       6.716   7.773  16.443  0.00  0.00    +0.000 HD
BRANCH  13  15
ATOM     15  C   UNL     1       8.316   8.347  17.717  0.00  0.00    +0.000 C 
BRANCH  15  16
ATOM     16  C   UNL     1       7.847   9.778  17.970  0.00  0.00    +0.000 C 
BRANCH  16  17
ATOM     17  S   UNL     1       9.271  10.886  18.213  0.00  0.00    +0.000 S 
ATOM     18  O   UNL     1       8.800  12.343  17.852  0.00  0.00    +0.000 OA
BRANCH  17  19
ATOM     19  C   UNL     1       9.351  10.757  20.018  0.00  0.00    +0.000 C 
ATOM     20 CL   UNL     1      10.593  11.787  20.750  0.00  0.00    +0.000 Cl
ENDBRANCH  17  19
ENDBRANCH  16  17
ENDBRANCH  15  16
ENDBRANCH  13  15
ENDBRANCH   1  11
BRANCH   1  21
ATOM     21  C   UNL     1       5.425   5.954  15.814  0.00  0.00    +0.000 C 
BRANCH  21  22
ATOM     22  C   UNL     1       5.937   5.142  14.647  0.00  0.00    +0.000 A 
ATOM     23  C   UNL     1       7.222   5.360  14.130  0.00  0.00    +0.000 A 
ATOM     24  C   UNL     1       7.649   4.682  12.988  0.00  0.00    +0.000 A 
ATOM     25  C   UNL     1       6.800   3.774  12.358  0.00  0.00    +0.000 A 
ATOM     26  C   UNL     1       5.535   3.522  12.885  0.00  0.00    +0.000 A 
ATOM     27  C   UNL     1       5.110   4.196  14.029  0.00  0.00    +0.000 A 
ENDBRANCH  21  22
ENDBRANCH   1  21
TORSDOF 10
ENDMDL
MODEL 8
REMARK VINA RESULT:      -6.7      1.302      1.561
REMARK  Name = 
REMARK  13 active torsions:
REMARK  status: ('A' for Active; 'I' for Inactive)
REMARK    1  A    between atoms: C_1  and  C_2
REMARK    2  A    between atoms: C_2  and  C_3
REMARK    3  A    between atoms: C_2  and  C_4
REMARK    4  A    between atoms: C_2  and  O_5
REMARK    5  A    between atoms: O_5  and  C_6
REMARK    6  A    between atoms: N_8  and  C_9
REMARK    7  A    between atoms: C_9  and  C_10
REMARK    8  A    between atoms: C_9  and  C_17
REMARK    9  A    between atoms: C_10  and  C_11
REMARK   10  A    between atoms: N_19  and  C_20
REMARK   11  A    between atoms: C_20  and  C_21
REMARK   12  A    between atoms: C_21  and  S_22
REMARK   13  A    between atoms: S_22  and  C_24
REMARK                            x       y       z     vdW  Elec       q    Type
REMARK                         _______ _______ _______ _____ _____    ______ ____
ROOT
ATOM      1  C   UNL     1       2.476   7.127  18.451  0.00  0.00    +0.000 C 
ENDROOT
BRANCH   1   4
ATOM      2  C   UNL     1       4.422   6.046  17.304  0.00  0.00    +0.000 C 
ATOM      3  O   UNL     1       3.830   5.021  17.013  0.00  0.00    +0.000 OA
ATOM      4  N   UNL     1       3.861   7.090  17.973  0.00  0.00    +0.000 N 
ATOM      5  H   UNL     1       4.450   7.893  18.167  0.00  0.00    +0.000 HD
BRANCH   2   6
ATOM      6  O   UNL     1       5.727   6.314  17.048  0.00  0.00    +0.000 OA
BRANCH   6   8
ATOM      7  C   UNL     1       6.212   5.312  19.258  0.00  0.00    +0.000 C 
ATOM      8  C   UNL     1       6.780   5.844  17.938  0.00  0.00    +0.000 C 
ATOM      9  C   UNL     1       7.839   6.927  18.182  0.00  0.00    +0.000 C 
ATOM     10  C   UNL     1       7.451   4.676  17.195  0.00  0.00    +0.000 C 
ENDBRANCH   6   8
ENDBRANCH   2   6
ENDBRANCH   1   4
BRANCH   1  11
ATOM     11  C   UNL     1       1.932   8.562  18.244  0.00  0.00    +0.000 C 
ATOM     12  O   UNL     1       2.234   9.247  17.265  0.00  0.00    +0.000 OA
ATOM     13  N   UNL     1       1.068   9.023  19.216  0.00  0.00    +0.000 N 
ATOM     14  H   UNL     1       0.740   8.400  19.945  0.00  0.00    +0.000 HD
BRANCH  13  15
ATOM     15  C   UNL     1       0.571  10.394  19.231  0.00  0.00    +0.000 C 
BRANCH  15  16
ATOM     16  C   UNL     1       0.938  11.192  20.480  0.00  0.00    +0.000 C 
BRANCH  16  17
ATOM     17  S   UNL     1      -0.469  12.209  21.029  0.00  0.00    +0.000 S 
ATOM     18  O   UNL     1      -0.018  13.713  20.957  0.00  0.00    +0.000 OA
BRANCH  17  19
ATOM     19  C   UNL     1      -1.549  11.881  19.612  0.00  0.00    +0.000 C 
ATOM     20 CL   UNL     1      -3.212  12.447  19.841  0.00  0.00    +0.000 Cl
ENDBRANCH  17  19
ENDBRANCH  16  17
ENDBRANCH  15  16
ENDBRANCH  13  15
ENDBRANCH   1  11
BRANCH   1  21
ATOM     21  C   UNL     1       2.293   6.663  19.914  0.00  0.00    +0.000 C 
BRANCH  21  22
ATOM     22  C   UNL     1       2.020   5.183  20.063  0.00  0.00    +0.000 A 
ATOM     23  C   UNL     1       1.419   4.457  19.025  0.00  0.00    +0.000 A 
ATOM     24  C   UNL     1       1.074   3.117  19.207  0.00  0.00    +0.000 A 
ATOM     25  C   UNL     1       1.333   2.490  20.425  0.00  0.00    +0.000 A 
ATOM     26  C   UNL     1       1.963   3.192  21.450  0.00  0.00    +0.000 A 
ATOM     27  C   UNL     1       2.312   4.529  21.266  0.00  0.00    +0.000 A 
ENDBRANCH  21  22
ENDBRANCH   1  21
TORSDOF 10
ENDMDL
MODEL 9
REMARK VINA RESULT:      -6.6      1.359      1.891
REMARK  Name = 
REMARK  13 active torsions:
REMARK  status: ('A' for Active; 'I' for Inactive)
REMARK    1  A    between atoms: C_1  and  C_2
REMARK    2  A    between atoms: C_2  and  C_3
REMARK    3  A    between atoms: C_2  and  C_4
REMARK    4  A    between atoms: C_2  and  O_5
REMARK    5  A    between atoms: O_5  and  C_6
REMARK    6  A    between atoms: N_8  and  C_9
REMARK    7  A    between atoms: C_9  and  C_10
REMARK    8  A    between atoms: C_9  and  C_17
REMARK    9  A    between atoms: C_10  and  C_11
REMARK   10  A    between atoms: N_19  and  C_20
REMARK   11  A    between atoms: C_20  and  C_21
REMARK   12  A    between atoms: C_21  and  S_22
REMARK   13  A    between atoms: S_22  and  C_24
REMARK                            x       y       z     vdW  Elec       q    Type
REMARK                         _______ _______ _______ _____ _____    ______ ____
ROOT
ATOM      1  C   UNL     1       2.394   7.240  18.426  0.00  0.00    +0.000 C 
ENDROOT
BRANCH   1   4
ATOM      2  C   UNL     1       4.324   6.155  17.258  0.00  0.00    +0.000 C 
ATOM      3  O   UNL     1       3.752   5.101  17.045  0.00  0.00    +0.000 OA
ATOM      4  N   UNL     1       3.759   7.218  17.895  0.00  0.00    +0.000 N 
ATOM      5  H   UNL     1       4.331   8.046  18.023  0.00  0.00    +0.000 HD
BRANCH   2   6
ATOM      6  O   UNL     1       5.609   6.445  16.935  0.00  0.00    +0.000 OA
BRANCH   6   8
ATOM      7  C   UNL     1       6.238   5.328  19.051  0.00  0.00    +0.000 C 
ATOM      8  C   UNL     1       6.718   5.933  17.728  0.00  0.00    +0.000 C 
ATOM      9  C   UNL     1       7.791   7.005  17.960  0.00  0.00    +0.000 C 
ATOM     10  C   UNL     1       7.340   4.809  16.881  0.00  0.00    +0.000 C 
ENDBRANCH   6   8
ENDBRANCH   2   6
ENDBRANCH   1   4
BRANCH   1  11
ATOM     11  C   UNL     1       1.837   8.677  18.264  0.00  0.00    +0.000 C 
ATOM     12  O   UNL     1       2.058   9.360  17.263  0.00  0.00    +0.000 OA
ATOM     13  N   UNL     1       1.057   9.140  19.304  0.00  0.00    +0.000 N 
ATOM     14  H   UNL     1       0.789   8.518  20.059  0.00  0.00    +0.000 HD
BRANCH  13  15
ATOM     15  C   UNL     1       0.565  10.512  19.360  0.00  0.00    +0.000 C 
BRANCH  15  16
ATOM     16  C   UNL     1       1.226  11.384  20.425  0.00  0.00    +0.000 C 
BRANCH  16  17
ATOM     17  S   UNL     1       0.016  12.532  21.155  0.00  0.00    +0.000 S 
ATOM     18  O   UNL     1      -0.255  12.055  22.629  0.00  0.00    +0.000 OA
BRANCH  17  19
ATOM     19  C   UNL     1       1.097  13.983  21.226  0.00  0.00    +0.000 C 
ATOM     20 CL   UNL     1       2.313  14.028  19.939  0.00  0.00    +0.000 Cl
ENDBRANCH  17  19
ENDBRANCH  16  17
ENDBRANCH  15  16
ENDBRANCH  13  15
ENDBRANCH   1  11
BRANCH   1  21
ATOM     21  C   UNL     1       2.269   6.752  19.889  0.00  0.00    +0.000 C 
BRANCH  21  22
ATOM     22  C   UNL     1       1.936   5.284  20.022  0.00  0.00    +0.000 A 
ATOM     23  C   UNL     1       2.211   4.591  21.210  0.00  0.00    +0.000 A 
ATOM     24  C   UNL     1       2.000   3.214  21.290  0.00  0.00    +0.000 A 
ATOM     25  C   UNL     1       1.504   2.519  20.188  0.00  0.00    +0.000 A 
ATOM     26  C   UNL     1       1.193   3.204  19.015  0.00  0.00    +0.000 A 
ATOM     27  C   UNL     1       1.400   4.581  18.936  0.00  0.00    +0.000 A 
ENDBRANCH  21  22
ENDBRANCH   1  21
TORSDOF 10
ENDMDL
