MODEL 1
REMARK VINA RESULT:      -7.0      0.000      0.000
REMARK  Name = 
REMARK  5 active torsions:
REMARK  status: ('A' for Active; 'I' for Inactive)
REMARK    1  A    between atoms: C_1  and  O_2
REMARK    2  A    between atoms: O_2  and  C_3
REMARK    3  A    between atoms: C_8  and  C_9
REMARK    4  A    between atoms: C_10  and  C_11
REMARK    5  A    between atoms: C_10  and  C_13
REMARK                            x       y       z     vdW  Elec       q    Type
REMARK                         _______ _______ _______ _____ _____    ______ ____
ROOT
ATOM      1  C   UNL     1       4.413   3.712  17.478  0.00  0.00    +0.000 C 
ATOM      2  C   UNL     1       3.623   4.524  18.219  0.00  0.00    +0.000 C 
ENDROOT
BRANCH   1   8
ATOM      3  C   UNL     1       6.689   4.494  16.794  0.00  0.00    +0.000 A 
ATOM      4  C   UNL     1       7.579   4.902  15.795  0.00  0.00    +0.000 A 
ATOM      5  C   UNL     1       7.197   4.867  14.454  0.00  0.00    +0.000 A 
ATOM      6  C   UNL     1       5.920   4.439  14.102  0.00  0.00    +0.000 A 
ATOM      7  C   UNL     1       5.005   4.080  15.094  0.00  0.00    +0.000 A 
ATOM      8  C   UNL     1       5.376   4.122  16.443  0.00  0.00    +0.000 A 
BRANCH   3  10
ATOM      9  C   UNL     1       7.341   5.682  18.740  0.00  0.00    +0.000 C 
ATOM     10  O   UNL     1       7.024   4.434  18.127  0.00  0.00    +0.000 OA
ENDBRANCH   3  10
ENDBRANCH   1   8
BRANCH   2  11
ATOM     11  C   UNL     1       2.855   3.938  19.354  0.00  0.00    +0.000 A 
ATOM     12  C   UNL     1       1.456   4.101  19.413  0.00  0.00    +0.000 A 
ATOM     13  C   UNL     1       0.699   3.542  20.442  0.00  0.00    +0.000 A 
ATOM     14  C   UNL     1       1.321   2.786  21.428  0.00  0.00    +0.000 A 
ATOM     15  C   UNL     1       2.700   2.593  21.384  0.00  0.00    +0.000 A 
ATOM     16  C   UNL     1       3.464   3.164  20.356  0.00  0.00    +0.000 A 
ENDBRANCH   2  11
BRANCH   2  17
ATOM     17  C   UNL     1       3.545   5.933  17.964  0.00  0.00    +0.000 C 
ATOM     18  N   UNL     1       3.518   7.072  17.745  0.00  0.00    +0.000 NA
ENDBRANCH   2  17
TORSDOF 4
ENDMDL
MODEL 2
REMARK VINA RESULT:      -7.0      2.008      6.381
REMARK  Name = 
REMARK  5 active torsions:
REMARK  status: ('A' for Active; 'I' for Inactive)
REMARK    1  A    between atoms: C_1  and  O_2
REMARK    2  A    between atoms: O_2  and  C_3
REMARK    3  A    between atoms: C_8  and  C_9
REMARK    4  A    between atoms: C_10  and  C_11
REMARK    5  A    between atoms: C_10  and  C_13
REMARK                            x       y       z     vdW  Elec       q    Type
REMARK                         _______ _______ _______ _____ _____    ______ ____
ROOT
ATOM      1  C   UNL     1       4.613   4.629  16.189  0.00  0.00    +0.000 C 
ATOM      2  C   UNL     1       5.944   4.523  15.965  0.00  0.00    +0.000 C 
ENDROOT
BRANCH   1   8
ATOM      3  C   UNL     1       3.645   3.828  18.352  0.00  0.00    +0.000 A 
ATOM      4  C   UNL     1       2.997   4.099  19.562  0.00  0.00    +0.000 A 
ATOM      5  C   UNL     1       2.728   5.415  19.938  0.00  0.00    +0.000 A 
ATOM      6  C   UNL     1       3.091   6.468  19.103  0.00  0.00    +0.000 A 
ATOM      7  C   UNL     1       3.690   6.207  17.869  0.00  0.00    +0.000 A 
ATOM      8  C   UNL     1       3.954   4.889  17.478  0.00  0.00    +0.000 A 
BRANCH   3  10
ATOM      9  C   UNL     1       3.298   1.493  18.582  0.00  0.00    +0.000 C 
ATOM     10  O   UNL     1       4.005   2.561  17.954  0.00  0.00    +0.000 OA
ENDBRANCH   3  10
ENDBRANCH   1   8
BRANCH   2  11
ATOM     11  C   UNL     1       6.432   4.452  14.558  0.00  0.00    +0.000 A 
ATOM     12  C   UNL     1       5.805   3.582  13.642  0.00  0.00    +0.000 A 
ATOM     13  C   UNL     1       6.212   3.509  12.310  0.00  0.00    +0.000 A 
ATOM     14  C   UNL     1       7.244   4.321  11.855  0.00  0.00    +0.000 A 
ATOM     15  C   UNL     1       7.867   5.205  12.735  0.00  0.00    +0.000 A 
ATOM     16  C   UNL     1       7.467   5.270  14.077  0.00  0.00    +0.000 A 
ENDBRANCH   2  11
BRANCH   2  17
ATOM     17  C   UNL     1       6.890   4.525  17.042  0.00  0.00    +0.000 C 
ATOM     18  N   UNL     1       7.683   4.537  17.888  0.00  0.00    +0.000 NA
ENDBRANCH   2  17
TORSDOF 4
ENDMDL
MODEL 3
REMARK VINA RESULT:      -7.0      0.071      1.137
REMARK  Name = 
REMARK  5 active torsions:
REMARK  status: ('A' for Active; 'I' for Inactive)
REMARK    1  A    between atoms: C_1  and  O_2
REMARK    2  A    between atoms: O_2  and  C_3
REMARK    3  A    between atoms: C_8  and  C_9
REMARK    4  A    between atoms: C_10  and  C_11
REMARK    5  A    between atoms: C_10  and  C_13
REMARK                            x       y       z     vdW  Elec       q    Type
REMARK                         _______ _______ _______ _____ _____    ______ ____
ROOT
ATOM      1  C   UNL     1       4.374   3.675  17.436  0.00  0.00    +0.000 C 
ATOM      2  C   UNL     1       3.578   4.473  18.186  0.00  0.00    +0.000 C 
ENDROOT
BRANCH   1   8
ATOM      3  C   UNL     1       6.658   4.495  16.827  0.00  0.00    +0.000 A 
ATOM      4  C   UNL     1       7.572   4.921  15.858  0.00  0.00    +0.000 A 
ATOM      5  C   UNL     1       7.232   4.887  14.506  0.00  0.00    +0.000 A 
ATOM      6  C   UNL     1       5.974   4.440  14.113  0.00  0.00    +0.000 A 
ATOM      7  C   UNL     1       5.034   4.062  15.074  0.00  0.00    +0.000 A 
ATOM      8  C   UNL     1       5.362   4.104  16.434  0.00  0.00    +0.000 A 
BRANCH   3  10
ATOM      9  C   UNL     1       7.397   5.654  18.759  0.00  0.00    +0.000 C 
ATOM     10  O   UNL     1       6.952   4.434  18.170  0.00  0.00    +0.000 OA
ENDBRANCH   3  10
ENDBRANCH   1   8
BRANCH   2  11
ATOM     11  C   UNL     1       2.781   3.862  19.288  0.00  0.00    +0.000 A 
ATOM     12  C   UNL     1       3.435   3.156  20.318  0.00  0.00    +0.000 A 
ATOM     13  C   UNL     1       2.728   2.596  21.382  0.00  0.00    +0.000 A 
ATOM     14  C   UNL     1       1.348   2.749  21.453  0.00  0.00    +0.000 A 
ATOM     15  C   UNL     1       0.679   3.458  20.458  0.00  0.00    +0.000 A 
ATOM     16  C   UNL     1       1.388   4.011  19.381  0.00  0.00    +0.000 A 
ENDBRANCH   2  11
BRANCH   2  17
ATOM     17  C   UNL     1       3.521   5.890  17.973  0.00  0.00    +0.000 C 
ATOM     18  N   UNL     1       3.455   7.029  17.768  0.00  0.00    +0.000 NA
ENDBRANCH   2  17
TORSDOF 4
ENDMDL
MODEL 4
REMARK VINA RESULT:      -7.0      1.411      5.989
REMARK  Name = 
REMARK  5 active torsions:
REMARK  status: ('A' for Active; 'I' for Inactive)
REMARK    1  A    between atoms: C_1  and  O_2
REMARK    2  A    between atoms: O_2  and  C_3
REMARK    3  A    between atoms: C_8  and  C_9
REMARK    4  A    between atoms: C_10  and  C_11
REMARK    5  A    between atoms: C_10  and  C_13
REMARK                            x       y       z     vdW  Elec       q    Type
REMARK                         _______ _______ _______ _____ _____    ______ ____
ROOT
ATOM      1  C   UNL     1       4.727   3.669  16.384  0.00  0.00    +0.000 C 
ATOM      2  C   UNL     1       5.215   4.735  15.709  0.00  0.00    +0.000 C 
ENDROOT
BRANCH   1   8
ATOM      3  C   UNL     1       4.347   3.829  18.852  0.00  0.00    +0.000 A 
ATOM      4  C   UNL     1       3.473   3.829  19.944  0.00  0.00    +0.000 A 
ATOM      5  C   UNL     1       2.094   3.780  19.743  0.00  0.00    +0.000 A 
ATOM      6  C   UNL     1       1.578   3.715  18.452  0.00  0.00    +0.000 A 
ATOM      7  C   UNL     1       2.442   3.659  17.356  0.00  0.00    +0.000 A 
ATOM      8  C   UNL     1       3.828   3.697  17.548  0.00  0.00    +0.000 A 
BRANCH   3  10
ATOM      9  C   UNL     1       6.184   5.231  19.383  0.00  0.00    +0.000 C 
ATOM     10  O   UNL     1       5.712   3.948  18.975  0.00  0.00    +0.000 OA
ENDBRANCH   3  10
ENDBRANCH   1   8
BRANCH   2  11
ATOM     11  C   UNL     1       5.954   4.503  14.435  0.00  0.00    +0.000 A 
ATOM     12  C   UNL     1       5.426   3.625  13.468  0.00  0.00    +0.000 A 
ATOM     13  C   UNL     1       6.072   3.405  12.251  0.00  0.00    +0.000 A 
ATOM     14  C   UNL     1       7.254   4.076  11.964  0.00  0.00    +0.000 A 
ATOM     15  C   UNL     1       7.789   4.964  12.895  0.00  0.00    +0.000 A 
ATOM     16  C   UNL     1       7.146   5.177  14.123  0.00  0.00    +0.000 A 
ENDBRANCH   2  11
BRANCH   2  17
ATOM     17  C   UNL     1       4.997   6.077  16.165  0.00  0.00    +0.000 C 
ATOM     18  N   UNL     1       4.791   7.149  16.557  0.00  0.00    +0.000 NA
ENDBRANCH   2  17
TORSDOF 4
ENDMDL
MODEL 5
REMARK VINA RESULT:      -6.9      2.010      6.434
REMARK  Name = 
REMARK  5 active torsions:
REMARK  status: ('A' for Active; 'I' for Inactive)
REMARK    1  A    between atoms: C_1  and  O_2
REMARK    2  A    between atoms: O_2  and  C_3
REMARK    3  A    between atoms: C_8  and  C_9
REMARK    4  A    between atoms: C_10  and  C_11
REMARK    5  A    between atoms: C_10  and  C_13
REMARK                            x       y       z     vdW  Elec       q    Type
REMARK                         _______ _______ _______ _____ _____    ______ ____
ROOT
ATOM      1  C   UNL     1       4.585   4.573  16.124  0.00  0.00    +0.000 C 
ATOM      2  C   UNL     1       5.906   4.526  15.831  0.00  0.00    +0.000 C 
ENDROOT
BRANCH   1   8
ATOM      3  C   UNL     1       3.727   3.794  18.341  0.00  0.00    +0.000 A 
ATOM      4  C   UNL     1       3.131   4.075  19.575  0.00  0.00    +0.000 A 
ATOM      5  C   UNL     1       2.862   5.393  19.943  0.00  0.00    +0.000 A 
ATOM      6  C   UNL     1       3.173   6.438  19.077  0.00  0.00    +0.000 A 
ATOM      7  C   UNL     1       3.719   6.166  17.821  0.00  0.00    +0.000 A 
ATOM      8  C   UNL     1       3.982   4.846  17.438  0.00  0.00    +0.000 A 
BRANCH   3  10
ATOM      9  C   UNL     1       3.348   1.462  18.544  0.00  0.00    +0.000 C 
ATOM     10  O   UNL     1       4.086   2.526  17.946  0.00  0.00    +0.000 OA
ENDBRANCH   3  10
ENDBRANCH   1   8
BRANCH   2  11
ATOM     11  C   UNL     1       6.322   4.430  14.403  0.00  0.00    +0.000 A 
ATOM     12  C   UNL     1       7.410   5.196  13.937  0.00  0.00    +0.000 A 
ATOM     13  C   UNL     1       7.850   5.111  12.616  0.00  0.00    +0.000 A 
ATOM     14  C   UNL     1       7.224   4.240  11.732  0.00  0.00    +0.000 A 
ATOM     15  C   UNL     1       6.158   3.457  12.172  0.00  0.00    +0.000 A 
ATOM     16  C   UNL     1       5.708   3.550  13.497  0.00  0.00    +0.000 A 
ENDBRANCH   2  11
BRANCH   2  17
ATOM     17  C   UNL     1       6.906   4.612  16.856  0.00  0.00    +0.000 C 
ATOM     18  N   UNL     1       7.735   4.705  17.661  0.00  0.00    +0.000 NA
ENDBRANCH   2  17
TORSDOF 4
ENDMDL
MODEL 6
REMARK VINA RESULT:      -6.8      1.998      6.373
REMARK  Name = 
REMARK  5 active torsions:
REMARK  status: ('A' for Active; 'I' for Inactive)
REMARK    1  A    between atoms: C_1  and  O_2
REMARK    2  A    between atoms: O_2  and  C_3
REMARK    3  A    between atoms: C_8  and  C_9
REMARK    4  A    between atoms: C_10  and  C_11
REMARK    5  A    between atoms: C_10  and  C_13
REMARK                            x       y       z     vdW  Elec       q    Type
REMARK                         _______ _______ _______ _____ _____    ______ ____
ROOT
ATOM      1  C   UNL     1       4.695   4.135  16.337  0.00  0.00    +0.000 C 
ATOM      2  C   UNL     1       5.998   4.283  16.000  0.00  0.00    +0.000 C 
ENDROOT
BRANCH   1   8
ATOM      3  C   UNL     1       3.729   5.513  18.188  0.00  0.00    +0.000 A 
ATOM      4  C   UNL     1       3.199   5.603  19.479  0.00  0.00    +0.000 A 
ATOM      5  C   UNL     1       2.978   4.451  20.233  0.00  0.00    +0.000 A 
ATOM      6  C   UNL     1       3.297   3.201  19.708  0.00  0.00    +0.000 A 
ATOM      7  C   UNL     1       3.876   3.102  18.441  0.00  0.00    +0.000 A 
ATOM      8  C   UNL     1       4.112   4.254  17.683  0.00  0.00    +0.000 A 
BRANCH   3  10
ATOM      9  C   UNL     1       3.159   7.765  17.714  0.00  0.00    +0.000 C 
ATOM     10  O   UNL     1       3.904   6.601  17.365  0.00  0.00    +0.000 OA
ENDBRANCH   3  10
ENDBRANCH   1   8
BRANCH   2  11
ATOM     11  C   UNL     1       6.367   4.319  14.556  0.00  0.00    +0.000 A 
ATOM     12  C   UNL     1       7.440   5.126  14.127  0.00  0.00    +0.000 A 
ATOM     13  C   UNL     1       7.835   5.163  12.790  0.00  0.00    +0.000 A 
ATOM     14  C   UNL     1       7.180   4.375  11.851  0.00  0.00    +0.000 A 
ATOM     15  C   UNL     1       6.129   3.553  12.252  0.00  0.00    +0.000 A 
ATOM     16  C   UNL     1       5.722   3.524  13.594  0.00  0.00    +0.000 A 
ENDBRANCH   2  11
BRANCH   2  17
ATOM     17  C   UNL     1       7.017   4.451  16.995  0.00  0.00    +0.000 C 
ATOM     18  N   UNL     1       7.842   4.547  17.804  0.00  0.00    +0.000 NA
ENDBRANCH   2  17
TORSDOF 4
ENDMDL
MODEL 7
REMARK VINA RESULT:      -6.8      1.395      6.009
REMARK  Name = 
REMARK  5 active torsions:
REMARK  status: ('A' for Active; 'I' for Inactive)
REMARK    1  A    between atoms: C_1  and  O_2
REMARK    2  A    between atoms: O_2  and  C_3
REMARK    3  A    between atoms: C_8  and  C_9
REMARK    4  A    between atoms: C_10  and  C_11
REMARK    5  A    between atoms: C_10  and  C_13
REMARK                            x       y       z     vdW  Elec       q    Type
REMARK                         _______ _______ _______ _____ _____    ______ ____
ROOT
ATOM      1  C   UNL     1       4.585   3.712  16.437  0.00  0.00    +0.000 C 
ATOM      2  C   UNL     1       5.095   4.770  15.764  0.00  0.00    +0.000 C 
ENDROOT
BRANCH   1   8
ATOM      3  C   UNL     1       4.273   3.853  18.915  0.00  0.00    +0.000 A 
ATOM      4  C   UNL     1       3.428   3.870  20.029  0.00  0.00    +0.000 A 
ATOM      5  C   UNL     1       2.043   3.870  19.863  0.00  0.00    +0.000 A 
ATOM      6  C   UNL     1       1.493   3.840  18.585  0.00  0.00    +0.000 A 
ATOM      7  C   UNL     1       2.326   3.769  17.466  0.00  0.00    +0.000 A 
ATOM      8  C   UNL     1       3.717   3.756  17.623  0.00  0.00    +0.000 A 
BRANCH   3  10
ATOM      9  C   UNL     1       6.172   5.194  19.383  0.00  0.00    +0.000 C 
ATOM     10  O   UNL     1       5.644   3.924  19.004  0.00  0.00    +0.000 OA
ENDBRANCH   3  10
ENDBRANCH   1   8
BRANCH   2  11
ATOM     11  C   UNL     1       5.793   4.529  14.469  0.00  0.00    +0.000 A 
ATOM     12  C   UNL     1       7.038   5.141  14.220  0.00  0.00    +0.000 A 
ATOM     13  C   UNL     1       7.737   4.917  13.033  0.00  0.00    +0.000 A 
ATOM     14  C   UNL     1       7.217   4.056  12.075  0.00  0.00    +0.000 A 
ATOM     15  C   UNL     1       5.997   3.422  12.305  0.00  0.00    +0.000 A 
ATOM     16  C   UNL     1       5.288   3.657  13.491  0.00  0.00    +0.000 A 
ENDBRANCH   2  11
BRANCH   2  17
ATOM     17  C   UNL     1       4.939   6.112  16.245  0.00  0.00    +0.000 C 
ATOM     18  N   UNL     1       4.777   7.188  16.647  0.00  0.00    +0.000 NA
ENDBRANCH   2  17
TORSDOF 4
ENDMDL
MODEL 8
REMARK VINA RESULT:      -6.8      2.571      3.750
REMARK  Name = 
REMARK  5 active torsions:
REMARK  status: ('A' for Active; 'I' for Inactive)
REMARK    1  A    between atoms: C_1  and  O_2
REMARK    2  A    between atoms: O_2  and  C_3
REMARK    3  A    between atoms: C_8  and  C_9
REMARK    4  A    between atoms: C_10  and  C_11
REMARK    5  A    between atoms: C_10  and  C_13
REMARK                            x       y       z     vdW  Elec       q    Type
REMARK                         _______ _______ _______ _____ _____    ______ ____
ROOT
ATOM      1  C   UNL     1       4.415   6.973  17.539  0.00  0.00    +0.000 C 
ATOM      2  C   UNL     1       3.199   6.642  18.032  0.00  0.00    +0.000 C 
ENDROOT
BRANCH   1   8
ATOM      3  C   UNL     1       6.357   5.398  17.479  0.00  0.00    +0.000 A 
ATOM      4  C   UNL     1       7.236   4.588  16.752  0.00  0.00    +0.000 A 
ATOM      5  C   UNL     1       7.057   4.406  15.381  0.00  0.00    +0.000 A 
ATOM      6  C   UNL     1       6.009   5.044  14.723  0.00  0.00    +0.000 A 
ATOM      7  C   UNL     1       5.158   5.898  15.427  0.00  0.00    +0.000 A 
ATOM      8  C   UNL     1       5.336   6.095  16.801  0.00  0.00    +0.000 A 
BRANCH   3  10
ATOM      9  C   UNL     1       7.746   5.720  19.373  0.00  0.00    +0.000 C 
ATOM     10  O   UNL     1       6.432   5.563  18.842  0.00  0.00    +0.000 OA
ENDBRANCH   3  10
ENDBRANCH   1   8
BRANCH   2  11
ATOM     11  C   UNL     1       2.327   7.721  18.579  0.00  0.00    +0.000 A 
ATOM     12  C   UNL     1       1.944   7.693  19.935  0.00  0.00    +0.000 A 
ATOM     13  C   UNL     1       1.155   8.700  20.492  0.00  0.00    +0.000 A 
ATOM     14  C   UNL     1       0.748   9.773  19.709  0.00  0.00    +0.000 A 
ATOM     15  C   UNL     1       1.129   9.836  18.370  0.00  0.00    +0.000 A 
ATOM     16  C   UNL     1       1.912   8.818  17.806  0.00  0.00    +0.000 A 
ENDBRANCH   2  11
BRANCH   2  17
ATOM     17  C   UNL     1       2.716   5.292  17.999  0.00  0.00    +0.000 C 
ATOM     18  N   UNL     1       2.356   4.191  17.949  0.00  0.00    +0.000 NA
ENDBRANCH   2  17
TORSDOF 4
ENDMDL
MODEL 9
REMARK VINA RESULT:      -6.8      2.589      3.670
REMARK  Name = 
REMARK  5 active torsions:
REMARK  status: ('A' for Active; 'I' for Inactive)
REMARK    1  A    between atoms: C_1  and  O_2
REMARK    2  A    between atoms: O_2  and  C_3
REMARK    3  A    between atoms: C_8  and  C_9
REMARK    4  A    between atoms: C_10  and  C_11
REMARK    5  A    between atoms: C_10  and  C_13
REMARK                            x       y       z     vdW  Elec       q    Type
REMARK                         _______ _______ _______ _____ _____    ______ ____
ROOT
ATOM      1  C   UNL     1       4.418   6.982  17.592  0.00  0.00    +0.000 C 
ATOM      2  C   UNL     1       3.195   6.664  18.076  0.00  0.00    +0.000 C 
ENDROOT
BRANCH   1   8
ATOM      3  C   UNL     1       6.335   5.377  17.495  0.00  0.00    +0.000 A 
ATOM      4  C   UNL     1       7.198   4.567  16.750  0.00  0.00    +0.000 A 
ATOM      5  C   UNL     1       7.013   4.415  15.377  0.00  0.00    +0.000 A 
ATOM      6  C   UNL     1       5.973   5.082  14.734  0.00  0.00    +0.000 A 
ATOM      7  C   UNL     1       5.138   5.936  15.458  0.00  0.00    +0.000 A 
ATOM      8  C   UNL     1       5.324   6.103  16.835  0.00  0.00    +0.000 A 
BRANCH   3  10
ATOM      9  C   UNL     1       7.725   5.736  19.382  0.00  0.00    +0.000 C 
ATOM     10  O   UNL     1       6.416   5.514  18.862  0.00  0.00    +0.000 OA
ENDBRANCH   3  10
ENDBRANCH   1   8
BRANCH   2  11
ATOM     11  C   UNL     1       2.345   7.747  18.647  0.00  0.00    +0.000 A 
ATOM     12  C   UNL     1       1.875   8.782  17.814  0.00  0.00    +0.000 A 
ATOM     13  C   UNL     1       1.051   9.796  18.305  0.00  0.00    +0.000 A 
ATOM     14  C   UNL     1       0.660   9.787  19.638  0.00  0.00    +0.000 A 
ATOM     15  C   UNL     1       1.095   8.764  20.479  0.00  0.00    +0.000 A 
ATOM     16  C   UNL     1       1.932   7.751  19.990  0.00  0.00    +0.000 A 
ENDBRANCH   2  11
BRANCH   2  17
ATOM     17  C   UNL     1       2.685   5.325  18.009  0.00  0.00    +0.000 C 
ATOM     18  N   UNL     1       2.263   4.245  17.992  0.00  0.00    +0.000 NA
ENDBRANCH   2  17
TORSDOF 4
ENDMDL
