MODEL 1
REMARK VINA RESULT:      -6.0      0.000      0.000
REMARK  Name = 
REMARK  2 active torsions:
REMARK  status: ('A' for Active; 'I' for Inactive)
REMARK    1  A    between atoms: N_2  and  C_4
REMARK    2  A    between atoms: C_11  and  N_12
REMARK                            x       y       z     vdW  Elec       q    Type
REMARK                         _______ _______ _______ _____ _____    ______ ____
ROOT
ATOM      1  C   UNL     1       3.707   3.613  19.368  0.00  0.00    +0.000 A 
ATOM      2  C   UNL     1       4.414   4.433  18.483  0.00  0.00    +0.000 A 
ATOM      3  C   UNL     1       3.995   5.756  18.297  0.00  0.00    +0.000 A 
ATOM      4 CL   UNL     1       4.891   6.726  17.187  0.00  0.00    +0.000 Cl
ATOM      5  C   UNL     1       2.874   6.247  18.991  0.00  0.00    +0.000 A 
ATOM      6 CL   UNL     1       2.310   7.868  18.797  0.00  0.00    +0.000 Cl
ATOM      7  C   UNL     1       2.174   5.421  19.878  0.00  0.00    +0.000 A 
ATOM      8  C   UNL     1       2.602   4.100  20.058  0.00  0.00    +0.000 A 
ENDROOT
BRANCH   1  10
ATOM      9  O   UNL     1       4.949   1.960  20.343  0.00  0.00    +0.000 OA
ATOM     10  N   UNL     1       4.109   2.229  19.481  0.00  0.00    +0.000 N 
ATOM     11  O   UNL     1       3.620   1.444  18.661  0.00  0.00    +0.000 OA
ENDBRANCH   1  10
BRANCH   8  12
ATOM     12  N   UNL     1       1.907   3.280  21.026  0.00  0.00    +0.000 N 
ATOM     13  O   UNL     1       2.290   3.366  22.196  0.00  0.00    +0.000 OA
ATOM     14  O   UNL     1       0.961   2.605  20.608  0.00  0.00    +0.000 OA
ENDBRANCH   8  12
TORSDOF 2
ENDMDL
MODEL 2
REMARK VINA RESULT:      -6.0      0.175      2.801
REMARK  Name = 
REMARK  2 active torsions:
REMARK  status: ('A' for Active; 'I' for Inactive)
REMARK    1  A    between atoms: N_2  and  C_4
REMARK    2  A    between atoms: C_11  and  N_12
REMARK                            x       y       z     vdW  Elec       q    Type
REMARK                         _______ _______ _______ _____ _____    ______ ____
ROOT
ATOM      1  C   UNL     1       2.597   4.089  20.186  0.00  0.00    +0.000 A 
ATOM      2  C   UNL     1       2.140   5.405  20.062  0.00  0.00    +0.000 A 
ATOM      3  C   UNL     1       2.796   6.275  19.183  0.00  0.00    +0.000 A 
ATOM      4 CL   UNL     1       2.204   7.891  19.073  0.00  0.00    +0.000 Cl
ATOM      5  C   UNL     1       3.903   5.826  18.440  0.00  0.00    +0.000 A 
ATOM      6 CL   UNL     1       4.753   6.856  17.345  0.00  0.00    +0.000 Cl
ATOM      7  C   UNL     1       4.351   4.506  18.566  0.00  0.00    +0.000 A 
ATOM      8  C   UNL     1       3.687   3.645  19.447  0.00  0.00    +0.000 A 
ENDROOT
BRANCH   1  10
ATOM      9  O   UNL     1       2.457   3.191  22.284  0.00  0.00    +0.000 OA
ATOM     10  N   UNL     1       1.954   3.235  21.159  0.00  0.00    +0.000 N 
ATOM     11  O   UNL     1       0.988   2.574  20.760  0.00  0.00    +0.000 OA
ENDBRANCH   1  10
BRANCH   8  12
ATOM     12  N   UNL     1       4.124   2.267  19.517  0.00  0.00    +0.000 N 
ATOM     13  O   UNL     1       4.971   2.001  20.374  0.00  0.00    +0.000 OA
ATOM     14  O   UNL     1       3.577   1.469  18.749  0.00  0.00    +0.000 OA
ENDBRANCH   8  12
TORSDOF 2
ENDMDL
MODEL 3
REMARK VINA RESULT:      -6.0      0.087      3.050
REMARK  Name = 
REMARK  2 active torsions:
REMARK  status: ('A' for Active; 'I' for Inactive)
REMARK    1  A    between atoms: N_2  and  C_4
REMARK    2  A    between atoms: C_11  and  N_12
REMARK                            x       y       z     vdW  Elec       q    Type
REMARK                         _______ _______ _______ _____ _____    ______ ____
ROOT
ATOM      1  C   UNL     1       2.625   4.063  20.083  0.00  0.00    +0.000 A 
ATOM      2  C   UNL     1       2.185   5.380  19.914  0.00  0.00    +0.000 A 
ATOM      3  C   UNL     1       2.897   6.233  19.061  0.00  0.00    +0.000 A 
ATOM      4 CL   UNL     1       2.323   7.851  18.893  0.00  0.00    +0.000 Cl
ATOM      5  C   UNL     1       4.041   5.766  18.389  0.00  0.00    +0.000 A 
ATOM      6 CL   UNL     1       4.960   6.774  17.329  0.00  0.00    +0.000 Cl
ATOM      7  C   UNL     1       4.472   4.445  18.560  0.00  0.00    +0.000 A 
ATOM      8  C   UNL     1       3.753   3.601  19.414  0.00  0.00    +0.000 A 
ENDROOT
BRANCH   1  10
ATOM      9  O   UNL     1       0.973   2.569  20.597  0.00  0.00    +0.000 OA
ATOM     10  N   UNL     1       1.921   3.228  21.030  0.00  0.00    +0.000 N 
ATOM     11  O   UNL     1       2.295   3.294  22.207  0.00  0.00    +0.000 OA
ENDBRANCH   1  10
BRANCH   8  12
ATOM     12  N   UNL     1       4.174   2.222  19.529  0.00  0.00    +0.000 N 
ATOM     13  O   UNL     1       3.717   1.435  18.696  0.00  0.00    +0.000 OA
ATOM     14  O   UNL     1       4.991   1.961  20.418  0.00  0.00    +0.000 OA
ENDBRANCH   8  12
TORSDOF 2
ENDMDL
MODEL 4
REMARK VINA RESULT:      -6.0      0.042      1.180
REMARK  Name = 
REMARK  2 active torsions:
REMARK  status: ('A' for Active; 'I' for Inactive)
REMARK    1  A    between atoms: N_2  and  C_4
REMARK    2  A    between atoms: C_11  and  N_12
REMARK                            x       y       z     vdW  Elec       q    Type
REMARK                         _______ _______ _______ _____ _____    ______ ____
ROOT
ATOM      1  C   UNL     1       3.721   3.634  19.373  0.00  0.00    +0.000 A 
ATOM      2  C   UNL     1       4.430   4.466  18.500  0.00  0.00    +0.000 A 
ATOM      3  C   UNL     1       4.005   5.788  18.322  0.00  0.00    +0.000 A 
ATOM      4 CL   UNL     1       4.904   6.773  17.227  0.00  0.00    +0.000 Cl
ATOM      5  C   UNL     1       2.876   6.267  19.012  0.00  0.00    +0.000 A 
ATOM      6 CL   UNL     1       2.304   7.886  18.827  0.00  0.00    +0.000 Cl
ATOM      7  C   UNL     1       2.175   5.429  19.887  0.00  0.00    +0.000 A 
ATOM      8  C   UNL     1       2.609   4.110  20.059  0.00  0.00    +0.000 A 
ENDROOT
BRANCH   1  10
ATOM      9  O   UNL     1       3.599   1.452  18.705  0.00  0.00    +0.000 OA
ATOM     10  N   UNL     1       4.131   2.252  19.477  0.00  0.00    +0.000 N 
ATOM     11  O   UNL     1       4.937   1.983  20.376  0.00  0.00    +0.000 OA
ENDBRANCH   1  10
BRANCH   8  12
ATOM     12  N   UNL     1       1.912   3.278  21.016  0.00  0.00    +0.000 N 
ATOM     13  O   UNL     1       0.995   2.581  20.573  0.00  0.00    +0.000 OA
ATOM     14  O   UNL     1       2.325   3.301  22.179  0.00  0.00    +0.000 OA
ENDBRANCH   8  12
TORSDOF 2
ENDMDL
MODEL 5
REMARK VINA RESULT:      -6.0      4.268      4.977
REMARK  Name = 
REMARK  2 active torsions:
REMARK  status: ('A' for Active; 'I' for Inactive)
REMARK    1  A    between atoms: N_2  and  C_4
REMARK    2  A    between atoms: C_11  and  N_12
REMARK                            x       y       z     vdW  Elec       q    Type
REMARK                         _______ _______ _______ _____ _____    ______ ____
ROOT
ATOM      1  C   UNL     1       6.132   4.702  18.260  0.00  0.00    +0.000 A 
ATOM      2  C   UNL     1       5.376   3.874  19.097  0.00  0.00    +0.000 A 
ATOM      3  C   UNL     1       3.983   3.847  18.952  0.00  0.00    +0.000 A 
ATOM      4 CL   UNL     1       3.093   2.819  20.014  0.00  0.00    +0.000 Cl
ATOM      5  C   UNL     1       3.358   4.647  17.979  0.00  0.00    +0.000 A 
ATOM      6 CL   UNL     1       1.645   4.657  17.760  0.00  0.00    +0.000 Cl
ATOM      7  C   UNL     1       4.122   5.469  17.142  0.00  0.00    +0.000 A 
ATOM      8  C   UNL     1       5.513   5.488  17.294  0.00  0.00    +0.000 A 
ENDROOT
BRANCH   1  10
ATOM      9  O   UNL     1       8.276   4.127  17.715  0.00  0.00    +0.000 OA
ATOM     10  N   UNL     1       7.558   4.773  18.482  0.00  0.00    +0.000 N 
ATOM     11  O   UNL     1       7.931   5.429  19.462  0.00  0.00    +0.000 OA
ENDBRANCH   1  10
BRANCH   8  12
ATOM     12  N   UNL     1       6.291   6.294  16.379  0.00  0.00    +0.000 N 
ATOM     13  O   UNL     1       6.665   7.394  16.796  0.00  0.00    +0.000 OA
ATOM     14  O   UNL     1       6.555   5.794  15.281  0.00  0.00    +0.000 OA
ENDBRANCH   8  12
TORSDOF 2
ENDMDL
MODEL 6
REMARK VINA RESULT:      -5.9      4.379      5.256
REMARK  Name = 
REMARK  2 active torsions:
REMARK  status: ('A' for Active; 'I' for Inactive)
REMARK    1  A    between atoms: N_2  and  C_4
REMARK    2  A    between atoms: C_11  and  N_12
REMARK                            x       y       z     vdW  Elec       q    Type
REMARK                         _______ _______ _______ _____ _____    ______ ____
ROOT
ATOM      1  C   UNL     1       6.204   5.376  18.515  0.00  0.00    +0.000 A 
ATOM      2  C   UNL     1       5.196   5.348  19.484  0.00  0.00    +0.000 A 
ATOM      3  C   UNL     1       3.928   4.868  19.135  0.00  0.00    +0.000 A 
ATOM      4 CL   UNL     1       2.714   4.864  20.361  0.00  0.00    +0.000 Cl
ATOM      5  C   UNL     1       3.676   4.424  17.824  0.00  0.00    +0.000 A 
ATOM      6 CL   UNL     1       2.130   3.827  17.337  0.00  0.00    +0.000 Cl
ATOM      7  C   UNL     1       4.692   4.451  16.861  0.00  0.00    +0.000 A 
ATOM      8  C   UNL     1       5.956   4.932  17.221  0.00  0.00    +0.000 A 
ENDROOT
BRANCH   1  10
ATOM      9  O   UNL     1       7.778   7.025  18.352  0.00  0.00    +0.000 OA
ATOM     10  N   UNL     1       7.480   5.950  18.877  0.00  0.00    +0.000 N 
ATOM     11  O   UNL     1       8.189   5.282  19.639  0.00  0.00    +0.000 OA
ENDBRANCH   1  10
BRANCH   8  12
ATOM     12  N   UNL     1       7.011   4.892  16.231  0.00  0.00    +0.000 N 
ATOM     13  O   UNL     1       6.897   5.664  15.274  0.00  0.00    +0.000 OA
ATOM     14  O   UNL     1       7.955   4.128  16.453  0.00  0.00    +0.000 OA
ENDBRANCH   8  12
TORSDOF 2
ENDMDL
MODEL 7
REMARK VINA RESULT:      -5.9      0.551      2.969
REMARK  Name = 
REMARK  2 active torsions:
REMARK  status: ('A' for Active; 'I' for Inactive)
REMARK    1  A    between atoms: N_2  and  C_4
REMARK    2  A    between atoms: C_11  and  N_12
REMARK                            x       y       z     vdW  Elec       q    Type
REMARK                         _______ _______ _______ _____ _____    ______ ____
ROOT
ATOM      1  C   UNL     1       2.612   4.257  19.602  0.00  0.00    +0.000 A 
ATOM      2  C   UNL     1       2.242   5.560  19.249  0.00  0.00    +0.000 A 
ATOM      3  C   UNL     1       2.988   6.241  18.279  0.00  0.00    +0.000 A 
ATOM      4 CL   UNL     1       2.502   7.848  17.885  0.00  0.00    +0.000 Cl
ATOM      5  C   UNL     1       4.096   5.619  17.674  0.00  0.00    +0.000 A 
ATOM      6 CL   UNL     1       5.054   6.413  16.477  0.00  0.00    +0.000 Cl
ATOM      7  C   UNL     1       4.456   4.314  18.030  0.00  0.00    +0.000 A 
ATOM      8  C   UNL     1       3.704   3.642  18.999  0.00  0.00    +0.000 A 
ENDROOT
BRANCH   1  10
ATOM      9  O   UNL     1       2.311   3.741  21.808  0.00  0.00    +0.000 OA
ATOM     10  N   UNL     1       1.876   3.606  20.662  0.00  0.00    +0.000 N 
ATOM     11  O   UNL     1       0.907   2.919  20.319  0.00  0.00    +0.000 OA
ENDBRANCH   1  10
BRANCH   8  12
ATOM     12  N   UNL     1       4.051   2.272  19.308  0.00  0.00    +0.000 N 
ATOM     13  O   UNL     1       3.523   1.400  18.612  0.00  0.00    +0.000 OA
ATOM     14  O   UNL     1       4.880   2.096  20.206  0.00  0.00    +0.000 OA
ENDBRANCH   8  12
TORSDOF 2
ENDMDL
MODEL 8
REMARK VINA RESULT:      -5.9      0.543      2.969
REMARK  Name = 
REMARK  2 active torsions:
REMARK  status: ('A' for Active; 'I' for Inactive)
REMARK    1  A    between atoms: N_2  and  C_4
REMARK    2  A    between atoms: C_11  and  N_12
REMARK                            x       y       z     vdW  Elec       q    Type
REMARK                         _______ _______ _______ _____ _____    ______ ____
ROOT
ATOM      1  C   UNL     1       2.614   4.251  19.594  0.00  0.00    +0.000 A 
ATOM      2  C   UNL     1       2.225   5.551  19.253  0.00  0.00    +0.000 A 
ATOM      3  C   UNL     1       2.961   6.253  18.290  0.00  0.00    +0.000 A 
ATOM      4 CL   UNL     1       2.450   7.856  17.912  0.00  0.00    +0.000 Cl
ATOM      5  C   UNL     1       4.078   5.654  17.680  0.00  0.00    +0.000 A 
ATOM      6 CL   UNL     1       5.024   6.474  16.490  0.00  0.00    +0.000 Cl
ATOM      7  C   UNL     1       4.458   4.351  18.023  0.00  0.00    +0.000 A 
ATOM      8  C   UNL     1       3.716   3.659  18.985  0.00  0.00    +0.000 A 
ENDROOT
BRANCH   1  10
ATOM      9  O   UNL     1       0.900   2.922  20.314  0.00  0.00    +0.000 OA
ATOM     10  N   UNL     1       1.889   3.579  20.647  0.00  0.00    +0.000 N 
ATOM     11  O   UNL     1       2.289   3.771  21.802  0.00  0.00    +0.000 OA
ENDBRANCH   1  10
BRANCH   8  12
ATOM     12  N   UNL     1       4.083   2.291  19.281  0.00  0.00    +0.000 N 
ATOM     13  O   UNL     1       4.880   2.123  20.209  0.00  0.00    +0.000 OA
ATOM     14  O   UNL     1       3.533   1.409  18.614  0.00  0.00    +0.000 OA
ENDBRANCH   8  12
TORSDOF 2
ENDMDL
MODEL 9
REMARK VINA RESULT:      -5.9      4.277      5.083
REMARK  Name = 
REMARK  2 active torsions:
REMARK  status: ('A' for Active; 'I' for Inactive)
REMARK    1  A    between atoms: N_2  and  C_4
REMARK    2  A    between atoms: C_11  and  N_12
REMARK                            x       y       z     vdW  Elec       q    Type
REMARK                         _______ _______ _______ _____ _____    ______ ____
ROOT
ATOM      1  C   UNL     1       5.422   5.497  17.254  0.00  0.00    +0.000 A 
ATOM      2  C   UNL     1       4.027   5.474  17.155  0.00  0.00    +0.000 A 
ATOM      3  C   UNL     1       3.299   4.619  17.991  0.00  0.00    +0.000 A 
ATOM      4 CL   UNL     1       1.582   4.617  17.824  0.00  0.00    +0.000 Cl
ATOM      5  C   UNL     1       3.967   3.793  18.913  0.00  0.00    +0.000 A 
ATOM      6 CL   UNL     1       3.120   2.715  19.964  0.00  0.00    +0.000 Cl
ATOM      7  C   UNL     1       5.363   3.825  19.009  0.00  0.00    +0.000 A 
ATOM      8  C   UNL     1       6.082   4.684  18.170  0.00  0.00    +0.000 A 
ENDROOT
BRANCH   1  10
ATOM      9  O   UNL     1       6.597   7.395  16.760  0.00  0.00    +0.000 OA
ATOM     10  N   UNL     1       6.156   6.328  16.327  0.00  0.00    +0.000 N 
ATOM     11  O   UNL     1       6.226   5.923  15.160  0.00  0.00    +0.000 OA
ENDBRANCH   1  10
BRANCH   8  12
ATOM     12  N   UNL     1       7.518   4.752  18.327  0.00  0.00    +0.000 N 
ATOM     13  O   UNL     1       7.936   5.338  19.331  0.00  0.00    +0.000 OA
ATOM     14  O   UNL     1       8.200   4.178  17.473  0.00  0.00    +0.000 OA
ENDBRANCH   8  12
TORSDOF 2
ENDMDL
