MODEL 1
REMARK VINA RESULT:      -7.3      0.000      0.000
REMARK  Name = 
REMARK  5 active torsions:
REMARK  status: ('A' for Active; 'I' for Inactive)
REMARK    1  A    between atoms: C_2  and  C_3
REMARK    2  A    between atoms: C_6  and  O_7
REMARK    3  A    between atoms: O_7  and  C_8
REMARK    4  A    between atoms: C_8  and  C_9
REMARK    5  A    between atoms: C_18  and  N_19
REMARK                            x       y       z     vdW  Elec       q    Type
REMARK                         _______ _______ _______ _____ _____    ______ ____
ROOT
ATOM      1  O   UNL     1       3.971   5.432  19.898  0.00  0.00    +0.000 OA
ATOM      2  C   UNL     1       3.586   5.978  18.866  0.00  0.00    +0.000 C 
ATOM      3  N   UNL     1       2.456   6.803  18.830  0.00  0.00    +0.000 N 
ATOM      4  C   UNL     1       1.802   7.385  17.656  0.00  0.00    +0.000 C 
ATOM      5  C   UNL     1       1.882   8.909  17.751  0.00  0.00    +0.000 C 
ATOM      6  C   UNL     1       1.218   9.404  19.038  0.00  0.00    +0.000 C 
ATOM      7  C   UNL     1       1.749   8.670  20.288  0.00  0.00    +0.000 C 
ATOM      8  C   UNL     1       1.786   7.145  20.090  0.00  0.00    +0.000 C 
ENDROOT
BRANCH   2   9
ATOM      9  C   UNL     1       4.400   5.752  17.653  0.00  0.00    +0.000 A 
ATOM     10  C   UNL     1       4.336   4.541  16.955  0.00  0.00    +0.000 A 
ATOM     11  C   UNL     1       5.127   4.357  15.815  0.00  0.00    +0.000 A 
ATOM     12  C   UNL     1       5.972   5.386  15.430  0.00  0.00    +0.000 A 
ATOM     13  N   UNL     1       6.092   6.540  16.117  0.00  0.00    +0.000 NA
ATOM     14  C   UNL     1       5.334   6.678  17.221  0.00  0.00    +0.000 A 
BRANCH  12  15
ATOM     15  O   UNL     1       6.735   5.213  14.294  0.00  0.00    +0.000 OA
BRANCH  15  16
ATOM     16  C   UNL     1       6.683   3.853  13.845  0.00  0.00    +0.000 C 
BRANCH  16  17
ATOM     17  C   UNL     1       6.339   3.823  12.390  0.00  0.00    +0.000 C 
ATOM     18  C   UNL     1       6.263   2.514  11.648  0.00  0.00    +0.000 C 
ATOM     19  C   UNL     1       4.997   3.277  11.948  0.00  0.00    +0.000 C 
ENDBRANCH  16  17
ENDBRANCH  15  16
ENDBRANCH  12  15
ENDBRANCH   2   9
BRANCH   7  20
ATOM     20  N   UNL     1       0.977   9.014  21.473  0.00  0.00    +0.000 N 
ATOM     21  C   UNL     1      -0.380   9.152  21.559  0.00  0.00    +0.000 A 
ATOM     22  C   UNL     1      -0.647   9.492  22.861  0.00  0.00    +0.000 A 
ATOM     23  C   UNL     1       0.615   9.533  23.487  0.00  0.00    +0.000 A 
ATOM     24  N   UNL     1       1.607   9.240  22.647  0.00  0.00    +0.000 NA
ENDBRANCH   7  20
TORSDOF 5
ENDMDL
MODEL 2
REMARK VINA RESULT:      -6.7      0.952      1.307
REMARK  Name = 
REMARK  5 active torsions:
REMARK  status: ('A' for Active; 'I' for Inactive)
REMARK    1  A    between atoms: C_2  and  C_3
REMARK    2  A    between atoms: C_6  and  O_7
REMARK    3  A    between atoms: O_7  and  C_8
REMARK    4  A    between atoms: C_8  and  C_9
REMARK    5  A    between atoms: C_18  and  N_19
REMARK                            x       y       z     vdW  Elec       q    Type
REMARK                         _______ _______ _______ _____ _____    ______ ____
ROOT
ATOM      1  O   UNL     1       3.275   5.722  20.149  0.00  0.00    +0.000 OA
ATOM      2  C   UNL     1       3.112   6.321  19.087  0.00  0.00    +0.000 C 
ATOM      3  N   UNL     1       2.130   7.304  18.923  0.00  0.00    +0.000 N 
ATOM      4  C   UNL     1       1.727   7.979  17.686  0.00  0.00    +0.000 C 
ATOM      5  C   UNL     1       2.016   9.474  17.823  0.00  0.00    +0.000 C 
ATOM      6  C   UNL     1       1.269  10.059  19.023  0.00  0.00    +0.000 C 
ATOM      7  C   UNL     1       1.518   9.253  20.316  0.00  0.00    +0.000 C 
ATOM      8  C   UNL     1       1.357   7.740  20.091  0.00  0.00    +0.000 C 
ENDROOT
BRANCH   2   9
ATOM      9  C   UNL     1       4.037   5.980  17.985  0.00  0.00    +0.000 A 
ATOM     10  C   UNL     1       4.997   6.893  17.538  0.00  0.00    +0.000 A 
ATOM     11  C   UNL     1       5.850   6.541  16.486  0.00  0.00    +0.000 A 
ATOM     12  C   UNL     1       5.693   5.293  15.903  0.00  0.00    +0.000 A 
ATOM     13  N   UNL     1       4.740   4.417  16.279  0.00  0.00    +0.000 NA
ATOM     14  C   UNL     1       3.920   4.795  17.279  0.00  0.00    +0.000 A 
BRANCH  12  15
ATOM     15  O   UNL     1       6.549   4.939  14.882  0.00  0.00    +0.000 OA
BRANCH  15  16
ATOM     16  C   UNL     1       6.119   3.726  14.251  0.00  0.00    +0.000 C 
BRANCH  16  17
ATOM     17  C   UNL     1       6.103   3.915  12.768  0.00  0.00    +0.000 C 
ATOM     18  C   UNL     1       6.522   2.798  11.849  0.00  0.00    +0.000 C 
ATOM     19  C   UNL     1       5.069   3.192  11.931  0.00  0.00    +0.000 C 
ENDBRANCH  16  17
ENDBRANCH  15  16
ENDBRANCH  12  15
ENDBRANCH   2   9
BRANCH   7  20
ATOM     20  N   UNL     1       0.656   9.704  21.398  0.00  0.00    +0.000 N 
ATOM     21  C   UNL     1       0.030   8.925  22.330  0.00  0.00    +0.000 A 
ATOM     22  C   UNL     1      -0.678   9.785  23.132  0.00  0.00    +0.000 A 
ATOM     23  C   UNL     1      -0.415  11.065  22.604  0.00  0.00    +0.000 A 
ATOM     24  N   UNL     1       0.398  11.023  21.550  0.00  0.00    +0.000 NA
ENDBRANCH   7  20
TORSDOF 5
ENDMDL
MODEL 3
REMARK VINA RESULT:      -6.7      0.773      1.096
REMARK  Name = 
REMARK  5 active torsions:
REMARK  status: ('A' for Active; 'I' for Inactive)
REMARK    1  A    between atoms: C_2  and  C_3
REMARK    2  A    between atoms: C_6  and  O_7
REMARK    3  A    between atoms: O_7  and  C_8
REMARK    4  A    between atoms: C_8  and  C_9
REMARK    5  A    between atoms: C_18  and  N_19
REMARK                            x       y       z     vdW  Elec       q    Type
REMARK                         _______ _______ _______ _____ _____    ______ ____
ROOT
ATOM      1  O   UNL     1       3.639   5.254  20.253  0.00  0.00    +0.000 OA
ATOM      2  C   UNL     1       3.502   5.813  19.166  0.00  0.00    +0.000 C 
ATOM      3  N   UNL     1       2.503   6.764  18.930  0.00  0.00    +0.000 N 
ATOM      4  C   UNL     1       2.133   7.386  17.657  0.00  0.00    +0.000 C 
ATOM      5  C   UNL     1       2.379   8.892  17.754  0.00  0.00    +0.000 C 
ATOM      6  C   UNL     1       1.571   9.497  18.904  0.00  0.00    +0.000 C 
ATOM      7  C   UNL     1       1.790   8.741  20.232  0.00  0.00    +0.000 C 
ATOM      8  C   UNL     1       1.675   7.218  20.053  0.00  0.00    +0.000 C 
ENDROOT
BRANCH   2   9
ATOM      9  C   UNL     1       4.478   5.459  18.112  0.00  0.00    +0.000 A 
ATOM     10  C   UNL     1       4.304   4.319  17.320  0.00  0.00    +0.000 A 
ATOM     11  C   UNL     1       5.251   4.008  16.337  0.00  0.00    +0.000 A 
ATOM     12  C   UNL     1       6.351   4.840  16.200  0.00  0.00    +0.000 A 
ATOM     13  N   UNL     1       6.569   5.913  16.988  0.00  0.00    +0.000 NA
ATOM     14  C   UNL     1       5.651   6.172  17.938  0.00  0.00    +0.000 A 
BRANCH  12  15
ATOM     15  O   UNL     1       7.272   4.546  15.217  0.00  0.00    +0.000 OA
BRANCH  15  16
ATOM     16  C   UNL     1       6.737   4.821  13.916  0.00  0.00    +0.000 C 
BRANCH  16  17
ATOM     17  C   UNL     1       6.343   3.536  13.259  0.00  0.00    +0.000 C 
ATOM     18  C   UNL     1       5.264   3.513  12.209  0.00  0.00    +0.000 C 
ATOM     19  C   UNL     1       6.701   3.296  11.808  0.00  0.00    +0.000 C 
ENDBRANCH  16  17
ENDBRANCH  15  16
ENDBRANCH  12  15
ENDBRANCH   2   9
BRANCH   7  20
ATOM     20  N   UNL     1       0.875   9.206  21.264  0.00  0.00    +0.000 N 
ATOM     21  C   UNL     1       1.051   9.123  22.617  0.00  0.00    +0.000 A 
ATOM     22  C   UNL     1      -0.072   9.675  23.181  0.00  0.00    +0.000 A 
ATOM     23  C   UNL     1      -0.869  10.065  22.086  0.00  0.00    +0.000 A 
ATOM     24  N   UNL     1      -0.297   9.784  20.916  0.00  0.00    +0.000 NA
ENDBRANCH   7  20
TORSDOF 5
ENDMDL
MODEL 4
REMARK VINA RESULT:      -6.3      4.843      7.233
REMARK  Name = 
REMARK  5 active torsions:
REMARK  status: ('A' for Active; 'I' for Inactive)
REMARK    1  A    between atoms: C_2  and  C_3
REMARK    2  A    between atoms: C_6  and  O_7
REMARK    3  A    between atoms: O_7  and  C_8
REMARK    4  A    between atoms: C_8  and  C_9
REMARK    5  A    between atoms: C_18  and  N_19
REMARK                            x       y       z     vdW  Elec       q    Type
REMARK                         _______ _______ _______ _____ _____    ______ ____
ROOT
ATOM      1  O   UNL     1      -1.076  11.010  18.205  0.00  0.00    +0.000 OA
ATOM      2  C   UNL     1       0.106  11.123  18.524  0.00  0.00    +0.000 C 
ATOM      3  N   UNL     1       0.748  12.364  18.601  0.00  0.00    +0.000 N 
ATOM      4  C   UNL     1       2.172  12.630  18.813  0.00  0.00    +0.000 C 
ATOM      5  C   UNL     1       2.339  13.401  20.124  0.00  0.00    +0.000 C 
ATOM      6  C   UNL     1       1.547  14.710  20.084  0.00  0.00    +0.000 C 
ATOM      7  C   UNL     1       0.076  14.488  19.671  0.00  0.00    +0.000 C 
ATOM      8  C   UNL     1      -0.046  13.586  18.431  0.00  0.00    +0.000 C 
ENDROOT
BRANCH   2   9
ATOM      9  C   UNL     1       0.822   9.875  18.866  0.00  0.00    +0.000 A 
ATOM     10  C   UNL     1       1.455   9.112  17.879  0.00  0.00    +0.000 A 
ATOM     11  C   UNL     1       2.117   7.932  18.236  0.00  0.00    +0.000 A 
ATOM     12  C   UNL     1       2.099   7.545  19.567  0.00  0.00    +0.000 A 
ATOM     13  N   UNL     1       1.449   8.234  20.527  0.00  0.00    +0.000 NA
ATOM     14  C   UNL     1       0.803   9.354  20.148  0.00  0.00    +0.000 A 
BRANCH  12  15
ATOM     15  O   UNL     1       2.769   6.394  19.921  0.00  0.00    +0.000 OA
BRANCH  15  16
ATOM     16  C   UNL     1       1.958   5.567  20.765  0.00  0.00    +0.000 C 
BRANCH  16  17
ATOM     17  C   UNL     1       2.159   4.132  20.396  0.00  0.00    +0.000 C 
ATOM     18  C   UNL     1       1.646   3.033  21.289  0.00  0.00    +0.000 C 
ATOM     19  C   UNL     1       0.971   3.296  19.966  0.00  0.00    +0.000 C 
ENDBRANCH  16  17
ENDBRANCH  15  16
ENDBRANCH  12  15
ENDBRANCH   2   9
BRANCH   7  20
ATOM     20  N   UNL     1      -0.610  15.754  19.453  0.00  0.00    +0.000 N 
ATOM     21  C   UNL     1      -1.553  16.328  20.259  0.00  0.00    +0.000 A 
ATOM     22  C   UNL     1      -1.917  17.499  19.643  0.00  0.00    +0.000 A 
ATOM     23  C   UNL     1      -1.136  17.546  18.471  0.00  0.00    +0.000 A 
ATOM     24  N   UNL     1      -0.337  16.487  18.350  0.00  0.00    +0.000 NA
ENDBRANCH   7  20
TORSDOF 5
ENDMDL
MODEL 5
REMARK VINA RESULT:      -6.3      2.033      9.098
REMARK  Name = 
REMARK  5 active torsions:
REMARK  status: ('A' for Active; 'I' for Inactive)
REMARK    1  A    between atoms: C_2  and  C_3
REMARK    2  A    between atoms: C_6  and  O_7
REMARK    3  A    between atoms: O_7  and  C_8
REMARK    4  A    between atoms: C_8  and  C_9
REMARK    5  A    between atoms: C_18  and  N_19
REMARK                            x       y       z     vdW  Elec       q    Type
REMARK                         _______ _______ _______ _____ _____    ______ ____
ROOT
ATOM      1  O   UNL     1       2.288   3.621  17.004  0.00  0.00    +0.000 OA
ATOM      2  C   UNL     1       3.097   4.414  17.483  0.00  0.00    +0.000 C 
ATOM      3  N   UNL     1       4.401   4.545  16.991  0.00  0.00    +0.000 N 
ATOM      4  C   UNL     1       5.504   5.326  17.555  0.00  0.00    +0.000 C 
ATOM      5  C   UNL     1       5.909   6.405  16.551  0.00  0.00    +0.000 C 
ATOM      6  C   UNL     1       6.323   5.774  15.220  0.00  0.00    +0.000 C 
ATOM      7  C   UNL     1       5.261   4.789  14.686  0.00  0.00    +0.000 C 
ATOM      8  C   UNL     1       4.778   3.816  15.774  0.00  0.00    +0.000 C 
ENDROOT
BRANCH   2   9
ATOM      9  C   UNL     1       2.617   5.263  18.594  0.00  0.00    +0.000 A 
ATOM     10  C   UNL     1       2.096   4.698  19.762  0.00  0.00    +0.000 A 
ATOM     11  C   UNL     1       1.641   5.530  20.791  0.00  0.00    +0.000 A 
ATOM     12  C   UNL     1       1.703   6.902  20.600  0.00  0.00    +0.000 A 
ATOM     13  N   UNL     1       2.149   7.470  19.462  0.00  0.00    +0.000 NA
ATOM     14  C   UNL     1       2.559   6.641  18.482  0.00  0.00    +0.000 A 
BRANCH  12  15
ATOM     15  O   UNL     1       1.276   7.722  21.623  0.00  0.00    +0.000 OA
BRANCH  15  16
ATOM     16  C   UNL     1       0.989   9.040  21.137  0.00  0.00    +0.000 C 
BRANCH  16  17
ATOM     17  C   UNL     1      -0.295   9.521  21.734  0.00  0.00    +0.000 C 
ATOM     18  C   UNL     1      -0.440   9.665  23.226  0.00  0.00    +0.000 C 
ATOM     19  C   UNL     1      -0.361  10.897  22.361  0.00  0.00    +0.000 C 
ENDBRANCH  16  17
ENDBRANCH  15  16
ENDBRANCH  12  15
ENDBRANCH   2   9
BRANCH   7  20
ATOM     20  N   UNL     1       5.751   4.058  13.526  0.00  0.00    +0.000 N 
ATOM     21  C   UNL     1       7.037   4.011  13.067  0.00  0.00    +0.000 A 
ATOM     22  C   UNL     1       7.014   3.213  11.950  0.00  0.00    +0.000 A 
ATOM     23  C   UNL     1       5.666   2.824  11.816  0.00  0.00    +0.000 A 
ATOM     24  N   UNL     1       4.892   3.333  12.774  0.00  0.00    +0.000 NA
ENDBRANCH   7  20
TORSDOF 5
ENDMDL
MODEL 6
REMARK VINA RESULT:      -6.3      2.600      9.543
REMARK  Name = 
REMARK  5 active torsions:
REMARK  status: ('A' for Active; 'I' for Inactive)
REMARK    1  A    between atoms: C_2  and  C_3
REMARK    2  A    between atoms: C_6  and  O_7
REMARK    3  A    between atoms: O_7  and  C_8
REMARK    4  A    between atoms: C_8  and  C_9
REMARK    5  A    between atoms: C_18  and  N_19
REMARK                            x       y       z     vdW  Elec       q    Type
REMARK                         _______ _______ _______ _____ _____    ______ ____
ROOT
ATOM      1  O   UNL     1       2.535   9.093  17.908  0.00  0.00    +0.000 OA
ATOM      2  C   UNL     1       2.125   8.277  18.731  0.00  0.00    +0.000 C 
ATOM      3  N   UNL     1       2.420   6.911  18.647  0.00  0.00    +0.000 N 
ATOM      4  C   UNL     1       1.878   5.819  19.459  0.00  0.00    +0.000 C 
ATOM      5  C   UNL     1       3.023   5.166  20.235  0.00  0.00    +0.000 C 
ATOM      6  C   UNL     1       4.094   4.643  19.275  0.00  0.00    +0.000 C 
ATOM      7  C   UNL     1       4.554   5.721  18.270  0.00  0.00    +0.000 C 
ATOM      8  C   UNL     1       3.365   6.451  17.623  0.00  0.00    +0.000 C 
ENDROOT
BRANCH   2   9
ATOM      9  C   UNL     1       1.325   8.812  19.854  0.00  0.00    +0.000 A 
ATOM     10  C   UNL     1       0.348   9.789  19.643  0.00  0.00    +0.000 A 
ATOM     11  C   UNL     1      -0.385  10.281  20.729  0.00  0.00    +0.000 A 
ATOM     12  C   UNL     1      -0.094   9.792  21.993  0.00  0.00    +0.000 A 
ATOM     13  N   UNL     1       0.881   8.891  22.229  0.00  0.00    +0.000 NA
ATOM     14  C   UNL     1       1.583   8.454  21.166  0.00  0.00    +0.000 A 
BRANCH  12  15
ATOM     15  O   UNL     1      -0.831  10.260  23.059  0.00  0.00    +0.000 OA
BRANCH  15  16
ATOM     16  C   UNL     1      -1.125  11.655  22.907  0.00  0.00    +0.000 C 
BRANCH  16  17
ATOM     17  C   UNL     1      -2.551  11.907  23.280  0.00  0.00    +0.000 C 
ATOM     18  C   UNL     1      -3.016  13.295  23.632  0.00  0.00    +0.000 C 
ATOM     19  C   UNL     1      -3.450  12.670  22.330  0.00  0.00    +0.000 C 
ENDBRANCH  16  17
ENDBRANCH  15  16
ENDBRANCH  12  15
ENDBRANCH   2   9
BRANCH   7  20
ATOM     20  N   UNL     1       5.426   5.157  17.250  0.00  0.00    +0.000 N 
ATOM     21  C   UNL     1       6.662   5.610  16.883  0.00  0.00    +0.000 A 
ATOM     22  C   UNL     1       7.091   4.776  15.881  0.00  0.00    +0.000 A 
ATOM     23  C   UNL     1       6.044   3.848  15.715  0.00  0.00    +0.000 A 
ATOM     24  N   UNL     1       5.028   4.073  16.547  0.00  0.00    +0.000 NA
ENDBRANCH   7  20
TORSDOF 5
ENDMDL
MODEL 7
REMARK VINA RESULT:      -6.3      4.673      6.784
REMARK  Name = 
REMARK  5 active torsions:
REMARK  status: ('A' for Active; 'I' for Inactive)
REMARK    1  A    between atoms: C_2  and  C_3
REMARK    2  A    between atoms: C_6  and  O_7
REMARK    3  A    between atoms: O_7  and  C_8
REMARK    4  A    between atoms: C_8  and  C_9
REMARK    5  A    between atoms: C_18  and  N_19
REMARK                            x       y       z     vdW  Elec       q    Type
REMARK                         _______ _______ _______ _____ _____    ______ ____
ROOT
ATOM      1  O   UNL     1      -1.199  10.836  18.696  0.00  0.00    +0.000 OA
ATOM      2  C   UNL     1       0.021  10.986  18.714  0.00  0.00    +0.000 C 
ATOM      3  N   UNL     1       0.627  12.237  18.547  0.00  0.00    +0.000 N 
ATOM      4  C   UNL     1       2.053  12.535  18.393  0.00  0.00    +0.000 C 
ATOM      5  C   UNL     1       2.505  13.402  19.569  0.00  0.00    +0.000 C 
ATOM      6  C   UNL     1       1.689  14.695  19.629  0.00  0.00    +0.000 C 
ATOM      7  C   UNL     1       0.169  14.427  19.598  0.00  0.00    +0.000 C 
ATOM      8  C   UNL     1      -0.219  13.434  18.489  0.00  0.00    +0.000 C 
ENDROOT
BRANCH   2   9
ATOM      9  C   UNL     1       0.834   9.775  18.959  0.00  0.00    +0.000 A 
ATOM     10  C   UNL     1       1.480   9.114  17.909  0.00  0.00    +0.000 A 
ATOM     11  C   UNL     1       2.234   7.965  18.175  0.00  0.00    +0.000 A 
ATOM     12  C   UNL     1       2.294   7.507  19.482  0.00  0.00    +0.000 A 
ATOM     13  N   UNL     1       1.636   8.096  20.502  0.00  0.00    +0.000 NA
ATOM     14  C   UNL     1       0.901   9.186  20.209  0.00  0.00    +0.000 A 
BRANCH  12  15
ATOM     15  O   UNL     1       3.055   6.389  19.747  0.00  0.00    +0.000 OA
BRANCH  15  16
ATOM     16  C   UNL     1       2.223   5.242  19.964  0.00  0.00    +0.000 C 
BRANCH  16  17
ATOM     17  C   UNL     1       2.415   4.270  18.845  0.00  0.00    +0.000 C 
ATOM     18  C   UNL     1       1.419   3.163  18.614  0.00  0.00    +0.000 C 
ATOM     19  C   UNL     1       1.491   4.317  17.646  0.00  0.00    +0.000 C 
ENDBRANCH  16  17
ENDBRANCH  15  16
ENDBRANCH  12  15
ENDBRANCH   2   9
BRANCH   7  20
ATOM     20  N   UNL     1      -0.585  15.665  19.463  0.00  0.00    +0.000 N 
ATOM     21  C   UNL     1      -0.404  16.640  18.523  0.00  0.00    +0.000 A 
ATOM     22  C   UNL     1      -1.332  17.613  18.799  0.00  0.00    +0.000 A 
ATOM     23  C   UNL     1      -2.030  17.132  19.925  0.00  0.00    +0.000 A 
ATOM     24  N   UNL     1      -1.582  15.945  20.332  0.00  0.00    +0.000 NA
ENDBRANCH   7  20
TORSDOF 5
ENDMDL
MODEL 8
REMARK VINA RESULT:      -6.2      1.979      8.847
REMARK  Name = 
REMARK  5 active torsions:
REMARK  status: ('A' for Active; 'I' for Inactive)
REMARK    1  A    between atoms: C_2  and  C_3
REMARK    2  A    between atoms: C_6  and  O_7
REMARK    3  A    between atoms: O_7  and  C_8
REMARK    4  A    between atoms: C_8  and  C_9
REMARK    5  A    between atoms: C_18  and  N_19
REMARK                            x       y       z     vdW  Elec       q    Type
REMARK                         _______ _______ _______ _____ _____    ______ ____
ROOT
ATOM      1  O   UNL     1       2.239   4.490  17.113  0.00  0.00    +0.000 OA
ATOM      2  C   UNL     1       3.062   5.142  17.752  0.00  0.00    +0.000 C 
ATOM      3  N   UNL     1       4.424   5.153  17.432  0.00  0.00    +0.000 N 
ATOM      4  C   UNL     1       5.524   5.752  18.191  0.00  0.00    +0.000 C 
ATOM      5  C   UNL     1       6.170   6.849  17.342  0.00  0.00    +0.000 C 
ATOM      6  C   UNL     1       6.680   6.275  16.019  0.00  0.00    +0.000 C 
ATOM      7  C   UNL     1       5.593   5.467  15.277  0.00  0.00    +0.000 C 
ATOM      8  C   UNL     1       4.872   4.478  16.209  0.00  0.00    +0.000 C 
ENDROOT
BRANCH   2   9
ATOM      9  C   UNL     1       2.538   5.957  18.870  0.00  0.00    +0.000 A 
ATOM     10  C   UNL     1       2.069   5.356  20.043  0.00  0.00    +0.000 A 
ATOM     11  C   UNL     1       1.571   6.156  21.078  0.00  0.00    +0.000 A 
ATOM     12  C   UNL     1       1.540   7.529  20.890  0.00  0.00    +0.000 A 
ATOM     13  N   UNL     1       1.935   8.127  19.747  0.00  0.00    +0.000 NA
ATOM     14  C   UNL     1       2.388   7.328  18.762  0.00  0.00    +0.000 A 
BRANCH  12  15
ATOM     15  O   UNL     1       1.071   8.318  21.919  0.00  0.00    +0.000 OA
BRANCH  15  16
ATOM     16  C   UNL     1      -0.270   8.752  21.661  0.00  0.00    +0.000 C 
BRANCH  16  17
ATOM     17  C   UNL     1      -0.349  10.238  21.810  0.00  0.00    +0.000 C 
ATOM     18  C   UNL     1       0.658  11.129  21.132  0.00  0.00    +0.000 C 
ATOM     19  C   UNL     1      -0.761  11.089  20.627  0.00  0.00    +0.000 C 
ENDBRANCH  16  17
ENDBRANCH  15  16
ENDBRANCH  12  15
ENDBRANCH   2   9
BRANCH   7  20
ATOM     20  N   UNL     1       6.145   4.772  14.122  0.00  0.00    +0.000 N 
ATOM     21  C   UNL     1       5.597   3.706  13.465  0.00  0.00    +0.000 A 
ATOM     22  C   UNL     1       6.474   3.388  12.459  0.00  0.00    +0.000 A 
ATOM     23  C   UNL     1       7.522   4.321  12.588  0.00  0.00    +0.000 A 
ATOM     24  N   UNL     1       7.326   5.168  13.598  0.00  0.00    +0.000 NA
ENDBRANCH   7  20
TORSDOF 5
ENDMDL
MODEL 9
REMARK VINA RESULT:      -6.2      2.122      9.115
REMARK  Name = 
REMARK  5 active torsions:
REMARK  status: ('A' for Active; 'I' for Inactive)
REMARK    1  A    between atoms: C_2  and  C_3
REMARK    2  A    between atoms: C_6  and  O_7
REMARK    3  A    between atoms: O_7  and  C_8
REMARK    4  A    between atoms: C_8  and  C_9
REMARK    5  A    between atoms: C_18  and  N_19
REMARK                            x       y       z     vdW  Elec       q    Type
REMARK                         _______ _______ _______ _____ _____    ______ ____
ROOT
ATOM      1  O   UNL     1       2.153   3.978  16.985  0.00  0.00    +0.000 OA
ATOM      2  C   UNL     1       2.983   4.698  17.538  0.00  0.00    +0.000 C 
ATOM      3  N   UNL     1       4.320   4.754  17.128  0.00  0.00    +0.000 N 
ATOM      4  C   UNL     1       5.437   5.438  17.784  0.00  0.00    +0.000 C 
ATOM      5  C   UNL     1       5.973   6.519  16.844  0.00  0.00    +0.000 C 
ATOM      6  C   UNL     1       6.425   5.903  15.517  0.00  0.00    +0.000 C 
ATOM      7  C   UNL     1       5.333   5.012  14.887  0.00  0.00    +0.000 C 
ATOM      8  C   UNL     1       4.721   4.040  15.910  0.00  0.00    +0.000 C 
ENDROOT
BRANCH   2   9
ATOM      9  C   UNL     1       2.494   5.542  18.649  0.00  0.00    +0.000 A 
ATOM     10  C   UNL     1       2.518   6.937  18.560  0.00  0.00    +0.000 A 
ATOM     11  C   UNL     1       2.056   7.707  19.634  0.00  0.00    +0.000 A 
ATOM     12  C   UNL     1       1.608   7.049  20.769  0.00  0.00    +0.000 A 
ATOM     13  N   UNL     1       1.627   5.707  20.899  0.00  0.00    +0.000 NA
ATOM     14  C   UNL     1       2.098   4.996  19.857  0.00  0.00    +0.000 A 
BRANCH  12  15
ATOM     15  O   UNL     1       1.132   7.807  21.817  0.00  0.00    +0.000 OA
BRANCH  15  16
ATOM     16  C   UNL     1       1.063   9.193  21.458  0.00  0.00    +0.000 C 
BRANCH  16  17
ATOM     17  C   UNL     1      -0.307   9.714  21.751  0.00  0.00    +0.000 C 
ATOM     18  C   UNL     1      -0.697  10.095  23.155  0.00  0.00    +0.000 C 
ATOM     19  C   UNL     1      -0.491  11.171  22.119  0.00  0.00    +0.000 C 
ENDBRANCH  16  17
ENDBRANCH  15  16
ENDBRANCH  12  15
ENDBRANCH   2   9
BRANCH   7  20
ATOM     20  N   UNL     1       5.842   4.286  13.733  0.00  0.00    +0.000 N 
ATOM     21  C   UNL     1       7.113   4.326  13.231  0.00  0.00    +0.000 A 
ATOM     22  C   UNL     1       7.117   3.495  12.139  0.00  0.00    +0.000 A 
ATOM     23  C   UNL     1       5.801   2.997  12.062  0.00  0.00    +0.000 A 
ATOM     24  N   UNL     1       5.021   3.473  13.031  0.00  0.00    +0.000 NA
ENDBRANCH   7  20
TORSDOF 5
ENDMDL
