MODEL 1
REMARK VINA RESULT:     -10.3      0.000      0.000
REMARK  Name = 
REMARK  7 active torsions:
REMARK  status: ('A' for Active; 'I' for Inactive)
REMARK    1  A    between atoms: C_1  and  O_2
REMARK    2  A    between atoms: O_2  and  C_3
REMARK    3  A    between atoms: C_6  and  C_7
REMARK    4  A    between atoms: C_7  and  C_8
REMARK    5  A    between atoms: C_11  and  N_12
REMARK    6  A    between atoms: N_12  and  C_13
REMARK    7  A    between atoms: C_18  and  C_19
REMARK                            x       y       z     vdW  Elec       q    Type
REMARK                         _______ _______ _______ _____ _____    ______ ____
ROOT
ATOM      1  C   UNL     1       7.491   7.750  17.509  0.00  0.00    +0.000 A 
ATOM      2  N   UNL     1       8.352   7.145  18.350  0.00  0.00    +0.000 NA
ATOM      3  N   UNL     1       7.852   6.091  18.994  0.00  0.00    +0.000 NA
ATOM      4  C   UNL     1       6.712   5.622  18.500  0.00  0.00    +0.000 A 
ATOM      5  C   UNL     1       6.777   5.637  17.101  0.00  0.00    +0.000 A 
ATOM      6  C   UNL     1       7.546   4.969  16.027  0.00  0.00    +0.000 A 
ATOM      7  C   UNL     1       6.798   4.385  14.999  0.00  0.00    +0.000 A 
ATOM      8  C   UNL     1       5.478   4.550  15.173  0.00  0.00    +0.000 A 
ATOM      9  C   UNL     1       5.126   5.765  15.952  0.00  0.00    +0.000 A 
ATOM     10  C   UNL     1       6.337   6.760  16.741  0.00  0.00    +0.000 A 
ENDROOT
BRANCH   4  11
ATOM     11  N   UNL     1       5.431   6.070  19.088  0.00  0.00    +0.000 N 
ATOM     12  H   UNL     1       5.300   7.096  19.074  0.00  0.00    +0.000 HD
BRANCH  11  13
ATOM     13  C   UNL     1       4.282   5.320  19.382  0.00  0.00    +0.000 A 
ATOM     14  C   UNL     1       3.171   5.949  19.951  0.00  0.00    +0.000 A 
ATOM     15  C   UNL     1       1.959   5.264  20.063  0.00  0.00    +0.000 A 
ATOM     16  C   UNL     1       1.826   3.954  19.590  0.00  0.00    +0.000 A 
ATOM     17 CL   UNL     1       0.227   3.295  19.560  0.00  0.00    +0.000 Cl
ATOM     18  C   UNL     1       2.939   3.251  19.132  0.00  0.00    +0.000 A 
ATOM     19  C   UNL     1       4.178   3.939  19.107  0.00  0.00    +0.000 A 
BRANCH  18  20
ATOM     20  C   UNL     1       2.797   1.834  18.612  0.00  0.00    +0.000 C 
ATOM     21  F   UNL     1       3.957   1.112  18.638  0.00  0.00    +0.000 F 
ATOM     22  F   UNL     1       1.906   1.093  19.332  0.00  0.00    +0.000 F 
ATOM     23  F   UNL     1       2.381   1.749  17.322  0.00  0.00    +0.000 F 
ENDBRANCH  18  20
ENDBRANCH  11  13
ENDBRANCH   4  11
BRANCH   1  24
ATOM     24  C   UNL     1       7.643   9.386  18.012  0.00  0.00    +0.000 C 
BRANCH  24  28
ATOM     25  C   UNL     1      11.262  12.062  19.447  0.00  0.00    +0.000 A 
ATOM     26  C   UNL     1      10.483  11.417  20.385  0.00  0.00    +0.000 A 
ATOM     27  C   UNL     1       9.400  10.497  19.982  0.00  0.00    +0.000 A 
ATOM     28  C   UNL     1       9.004  10.224  18.648  0.00  0.00    +0.000 A 
ATOM     29  C   UNL     1       9.918  10.821  17.712  0.00  0.00    +0.000 A 
ATOM     30  C   UNL     1      10.985  11.711  18.103  0.00  0.00    +0.000 A 
BRANCH  25  32
ATOM     31  C   UNL     1      12.192  14.290  19.405  0.00  0.00    +0.000 C 
ATOM     32  O   UNL     1      12.257  12.919  19.838  0.00  0.00    +0.000 OA
ENDBRANCH  25  32
ENDBRANCH  24  28
ENDBRANCH   1  24
TORSDOF 6
ENDMDL
MODEL 2
REMARK VINA RESULT:     -10.0      1.150      1.392
REMARK  Name = 
REMARK  7 active torsions:
REMARK  status: ('A' for Active; 'I' for Inactive)
REMARK    1  A    between atoms: C_1  and  O_2
REMARK    2  A    between atoms: O_2  and  C_3
REMARK    3  A    between atoms: C_6  and  C_7
REMARK    4  A    between atoms: C_7  and  C_8
REMARK    5  A    between atoms: C_11  and  N_12
REMARK    6  A    between atoms: N_12  and  C_13
REMARK    7  A    between atoms: C_18  and  C_19
REMARK                            x       y       z     vdW  Elec       q    Type
REMARK                         _______ _______ _______ _____ _____    ______ ____
ROOT
ATOM      1  C   UNL     1       7.400   7.615  17.504  0.00  0.00    +0.000 A 
ATOM      2  N   UNL     1       8.082   7.019  18.501  0.00  0.00    +0.000 NA
ATOM      3  N   UNL     1       7.426   6.032  19.111  0.00  0.00    +0.000 NA
ATOM      4  C   UNL     1       6.351   5.592  18.467  0.00  0.00    +0.000 A 
ATOM      5  C   UNL     1       6.634   5.519  17.097  0.00  0.00    +0.000 A 
ATOM      6  C   UNL     1       7.520   4.750  16.195  0.00  0.00    +0.000 A 
ATOM      7  C   UNL     1       6.908   4.144  15.093  0.00  0.00    +0.000 A 
ATOM      8  C   UNL     1       5.589   4.385  15.046  0.00  0.00    +0.000 A 
ATOM      9  C   UNL     1       5.194   5.661  15.695  0.00  0.00    +0.000 A 
ATOM     10  C   UNL     1       6.323   6.640  16.614  0.00  0.00    +0.000 A 
ENDROOT
BRANCH   4  11
ATOM     11  N   UNL     1       5.023   6.140  18.819  0.00  0.00    +0.000 N 
ATOM     12  H   UNL     1       4.970   7.172  18.775  0.00  0.00    +0.000 HD
BRANCH  11  13
ATOM     13  C   UNL     1       3.790   5.476  18.915  0.00  0.00    +0.000 A 
ATOM     14  C   UNL     1       2.860   5.590  17.877  0.00  0.00    +0.000 A 
ATOM     15  C   UNL     1       1.722   4.782  17.865  0.00  0.00    +0.000 A 
ATOM     16  C   UNL     1       1.501   3.833  18.869  0.00  0.00    +0.000 A 
ATOM     17 CL   UNL     1       0.192   2.730  18.624  0.00  0.00    +0.000 Cl
ATOM     18  C   UNL     1       2.336   3.776  19.983  0.00  0.00    +0.000 A 
ATOM     19  C   UNL     1       3.440   4.665  20.015  0.00  0.00    +0.000 A 
BRANCH  18  20
ATOM     20  C   UNL     1       2.105   2.744  21.069  0.00  0.00    +0.000 C 
ATOM     21  F   UNL     1       3.133   2.635  21.962  0.00  0.00    +0.000 F 
ATOM     22  F   UNL     1       1.006   3.017  21.832  0.00  0.00    +0.000 F 
ATOM     23  F   UNL     1       1.925   1.479  20.612  0.00  0.00    +0.000 F 
ENDBRANCH  18  20
ENDBRANCH  11  13
ENDBRANCH   4  11
BRANCH   1  24
ATOM     24  C   UNL     1       7.569   9.268  17.939  0.00  0.00    +0.000 C 
BRANCH  24  28
ATOM     25  C   UNL     1      11.206  11.971  19.276  0.00  0.00    +0.000 A 
ATOM     26  C   UNL     1      10.445  11.337  20.235  0.00  0.00    +0.000 A 
ATOM     27  C   UNL     1       9.357  10.410  19.864  0.00  0.00    +0.000 A 
ATOM     28  C   UNL     1       8.939  10.118  18.540  0.00  0.00    +0.000 A 
ATOM     29  C   UNL     1       9.835  10.704  17.580  0.00  0.00    +0.000 A 
ATOM     30  C   UNL     1      10.907  11.601  17.941  0.00  0.00    +0.000 A 
BRANCH  25  32
ATOM     31  C   UNL     1      11.895  14.237  19.750  0.00  0.00    +0.000 C 
ATOM     32  O   UNL     1      12.205  12.836  19.638  0.00  0.00    +0.000 OA
ENDBRANCH  25  32
ENDBRANCH  24  28
ENDBRANCH   1  24
TORSDOF 6
ENDMDL
MODEL 3
REMARK VINA RESULT:      -9.5      5.941      7.834
REMARK  Name = 
REMARK  7 active torsions:
REMARK  status: ('A' for Active; 'I' for Inactive)
REMARK    1  A    between atoms: C_1  and  O_2
REMARK    2  A    between atoms: O_2  and  C_3
REMARK    3  A    between atoms: C_6  and  C_7
REMARK    4  A    between atoms: C_7  and  C_8
REMARK    5  A    between atoms: C_11  and  N_12
REMARK    6  A    between atoms: N_12  and  C_13
REMARK    7  A    between atoms: C_18  and  C_19
REMARK                            x       y       z     vdW  Elec       q    Type
REMARK                         _______ _______ _______ _____ _____    ______ ____
ROOT
ATOM      1  C   UNL     1       4.733   4.724  17.708  0.00  0.00    +0.000 A 
ATOM      2  N   UNL     1       5.361   5.172  18.812  0.00  0.00    +0.000 NA
ATOM      3  N   UNL     1       4.582   5.838  19.664  0.00  0.00    +0.000 NA
ATOM      4  C   UNL     1       3.278   5.704  19.452  0.00  0.00    +0.000 A 
ATOM      5  C   UNL     1       3.001   4.369  19.128  0.00  0.00    +0.000 A 
ATOM      6  C   UNL     1       3.057   3.042  19.781  0.00  0.00    +0.000 A 
ATOM      7  C   UNL     1       1.895   2.266  19.710  0.00  0.00    +0.000 A 
ATOM      8  C   UNL     1       0.913   2.881  19.034  0.00  0.00    +0.000 A 
ATOM      9  C   UNL     1       1.403   3.847  18.017  0.00  0.00    +0.000 A 
ATOM     10  C   UNL     1       3.095   4.286  17.875  0.00  0.00    +0.000 A 
ENDROOT
BRANCH   4  11
ATOM     11  N   UNL     1       2.568   6.721  18.647  0.00  0.00    +0.000 N 
ATOM     12  H   UNL     1       2.292   6.393  17.706  0.00  0.00    +0.000 HD
BRANCH  11  13
ATOM     13  C   UNL     1       1.976   7.923  19.064  0.00  0.00    +0.000 A 
ATOM     14  C   UNL     1       1.693   8.918  18.124  0.00  0.00    +0.000 A 
ATOM     15  C   UNL     1       0.927  10.028  18.488  0.00  0.00    +0.000 A 
ATOM     16  C   UNL     1       0.411  10.155  19.782  0.00  0.00    +0.000 A 
ATOM     17 CL   UNL     1      -0.716  11.439  20.050  0.00  0.00    +0.000 Cl
ATOM     18  C   UNL     1       0.775   9.250  20.779  0.00  0.00    +0.000 A 
ATOM     19  C   UNL     1       1.623   8.177  20.407  0.00  0.00    +0.000 A 
BRANCH  18  20
ATOM     20  C   UNL     1       0.212   9.379  22.181  0.00  0.00    +0.000 C 
ATOM     21  F   UNL     1      -0.868   8.579  22.423  0.00  0.00    +0.000 F 
ATOM     22  F   UNL     1       1.118   9.049  23.147  0.00  0.00    +0.000 F 
ATOM     23  F   UNL     1      -0.220  10.627  22.499  0.00  0.00    +0.000 F 
ENDBRANCH  18  20
ENDBRANCH  11  13
ENDBRANCH   4  11
BRANCH   1  24
ATOM     24  C   UNL     1       5.784   5.306  16.479  0.00  0.00    +0.000 C 
BRANCH  24  28
ATOM     25  C   UNL     1       6.873   3.613  12.205  0.00  0.00    +0.000 A 
ATOM     26  C   UNL     1       5.630   3.349  12.742  0.00  0.00    +0.000 A 
ATOM     27  C   UNL     1       5.211   3.933  14.032  0.00  0.00    +0.000 A 
ATOM     28  C   UNL     1       6.016   4.747  14.868  0.00  0.00    +0.000 A 
ATOM     29  C   UNL     1       7.248   5.091  14.213  0.00  0.00    +0.000 A 
ATOM     30  C   UNL     1       7.656   4.531  12.947  0.00  0.00    +0.000 A 
BRANCH  25  32
ATOM     31  C   UNL     1       7.168   1.626  10.865  0.00  0.00    +0.000 C 
ATOM     32  O   UNL     1       7.249   3.055  11.012  0.00  0.00    +0.000 OA
ENDBRANCH  25  32
ENDBRANCH  24  28
ENDBRANCH   1  24
TORSDOF 6
ENDMDL
MODEL 4
REMARK VINA RESULT:      -9.4      1.617      2.048
REMARK  Name = 
REMARK  7 active torsions:
REMARK  status: ('A' for Active; 'I' for Inactive)
REMARK    1  A    between atoms: C_1  and  O_2
REMARK    2  A    between atoms: O_2  and  C_3
REMARK    3  A    between atoms: C_6  and  C_7
REMARK    4  A    between atoms: C_7  and  C_8
REMARK    5  A    between atoms: C_11  and  N_12
REMARK    6  A    between atoms: N_12  and  C_13
REMARK    7  A    between atoms: C_18  and  C_19
REMARK                            x       y       z     vdW  Elec       q    Type
REMARK                         _______ _______ _______ _____ _____    ______ ____
ROOT
ATOM      1  C   UNL     1       7.759   7.231  17.905  0.00  0.00    +0.000 A 
ATOM      2  N   UNL     1       8.351   6.266  18.634  0.00  0.00    +0.000 NA
ATOM      3  N   UNL     1       7.560   5.239  18.945  0.00  0.00    +0.000 NA
ATOM      4  C   UNL     1       6.428   5.175  18.254  0.00  0.00    +0.000 A 
ATOM      5  C   UNL     1       6.688   5.493  16.915  0.00  0.00    +0.000 A 
ATOM      6  C   UNL     1       7.445   4.928  15.776  0.00  0.00    +0.000 A 
ATOM      7  C   UNL     1       6.743   4.786  14.574  0.00  0.00    +0.000 A 
ATOM      8  C   UNL     1       5.474   5.210  14.673  0.00  0.00    +0.000 A 
ATOM      9  C   UNL     1       5.275   6.263  15.702  0.00  0.00    +0.000 A 
ATOM     10  C   UNL     1       6.543   6.740  16.817  0.00  0.00    +0.000 A 
ENDROOT
BRANCH   4  11
ATOM     11  N   UNL     1       5.198   5.764  18.827  0.00  0.00    +0.000 N 
ATOM     12  H   UNL     1       5.252   6.786  18.974  0.00  0.00    +0.000 HD
BRANCH  11  13
ATOM     13  C   UNL     1       3.912   5.209  18.920  0.00  0.00    +0.000 A 
ATOM     14  C   UNL     1       3.017   5.352  17.856  0.00  0.00    +0.000 A 
ATOM     15  C   UNL     1       1.816   4.640  17.851  0.00  0.00    +0.000 A 
ATOM     16  C   UNL     1       1.496   3.758  18.889  0.00  0.00    +0.000 A 
ATOM     17 CL   UNL     1       0.106   2.756  18.659  0.00  0.00    +0.000 Cl
ATOM     18  C   UNL     1       2.301   3.683  20.025  0.00  0.00    +0.000 A 
ATOM     19  C   UNL     1       3.474   4.479  20.046  0.00  0.00    +0.000 A 
BRANCH  18  20
ATOM     20  C   UNL     1       1.962   2.723  21.148  0.00  0.00    +0.000 C 
ATOM     21  F   UNL     1       0.795   3.012  21.795  0.00  0.00    +0.000 F 
ATOM     22  F   UNL     1       1.815   1.436  20.717  0.00  0.00    +0.000 F 
ATOM     23  F   UNL     1       2.888   2.670  22.139  0.00  0.00    +0.000 F 
ENDBRANCH  18  20
ENDBRANCH  11  13
ENDBRANCH   4  11
BRANCH   1  24
ATOM     24  C   UNL     1       8.173   8.627  18.817  0.00  0.00    +0.000 C 
BRANCH  24  28
ATOM     25  C   UNL     1       9.617  12.972  17.654  0.00  0.00    +0.000 A 
ATOM     26  C   UNL     1      10.544  12.037  18.065  0.00  0.00    +0.000 A 
ATOM     27  C   UNL     1      10.154  10.642  18.349  0.00  0.00    +0.000 A 
ATOM     28  C   UNL     1       8.833  10.129  18.299  0.00  0.00    +0.000 A 
ATOM     29  C   UNL     1       7.927  11.103  17.752  0.00  0.00    +0.000 A 
ATOM     30  C   UNL     1       8.308  12.464  17.462  0.00  0.00    +0.000 A 
BRANCH  25  32
ATOM     31  C   UNL     1       9.426  15.315  18.206  0.00  0.00    +0.000 C 
ATOM     32  O   UNL     1       9.995  14.265  17.403  0.00  0.00    +0.000 OA
ENDBRANCH  25  32
ENDBRANCH  24  28
ENDBRANCH   1  24
TORSDOF 6
ENDMDL
MODEL 5
REMARK VINA RESULT:      -9.4      1.020      1.405
REMARK  Name = 
REMARK  7 active torsions:
REMARK  status: ('A' for Active; 'I' for Inactive)
REMARK    1  A    between atoms: C_1  and  O_2
REMARK    2  A    between atoms: O_2  and  C_3
REMARK    3  A    between atoms: C_6  and  C_7
REMARK    4  A    between atoms: C_7  and  C_8
REMARK    5  A    between atoms: C_11  and  N_12
REMARK    6  A    between atoms: N_12  and  C_13
REMARK    7  A    between atoms: C_18  and  C_19
REMARK                            x       y       z     vdW  Elec       q    Type
REMARK                         _______ _______ _______ _____ _____    ______ ____
ROOT
ATOM      1  C   UNL     1       7.780   7.562  17.939  0.00  0.00    +0.000 A 
ATOM      2  N   UNL     1       8.536   6.698  18.642  0.00  0.00    +0.000 NA
ATOM      3  N   UNL     1       7.894   5.607  19.060  0.00  0.00    +0.000 NA
ATOM      4  C   UNL     1       6.718   5.394  18.479  0.00  0.00    +0.000 A 
ATOM      5  C   UNL     1       6.822   5.680  17.112  0.00  0.00    +0.000 A 
ATOM      6  C   UNL     1       7.532   5.149  15.927  0.00  0.00    +0.000 A 
ATOM      7  C   UNL     1       6.746   4.881  14.801  0.00  0.00    +0.000 A 
ATOM      8  C   UNL     1       5.452   5.172  15.003  0.00  0.00    +0.000 A 
ATOM      9  C   UNL     1       5.232   6.242  16.010  0.00  0.00    +0.000 A 
ATOM     10  C   UNL     1       6.534   6.899  16.985  0.00  0.00    +0.000 A 
ENDROOT
BRANCH   4  11
ATOM     11  N   UNL     1       5.487   5.874  19.143  0.00  0.00    +0.000 N 
ATOM     12  H   UNL     1       5.420   6.904  19.209  0.00  0.00    +0.000 HD
BRANCH  11  13
ATOM     13  C   UNL     1       4.302   5.174  19.423  0.00  0.00    +0.000 A 
ATOM     14  C   UNL     1       3.222   5.845  20.002  0.00  0.00    +0.000 A 
ATOM     15  C   UNL     1       1.979   5.217  20.101  0.00  0.00    +0.000 A 
ATOM     16  C   UNL     1       1.783   3.924  19.604  0.00  0.00    +0.000 A 
ATOM     17 CL   UNL     1       0.155   3.343  19.561  0.00  0.00    +0.000 Cl
ATOM     18  C   UNL     1       2.863   3.177  19.134  0.00  0.00    +0.000 A 
ATOM     19  C   UNL     1       4.133   3.806  19.122  0.00  0.00    +0.000 A 
BRANCH  18  20
ATOM     20  C   UNL     1       2.654   1.779  18.588  0.00  0.00    +0.000 C 
ATOM     21  F   UNL     1       2.206   1.746  17.298  0.00  0.00    +0.000 F 
ATOM     22  F   UNL     1       3.800   1.037  18.580  0.00  0.00    +0.000 F 
ATOM     23  F   UNL     1       1.746   1.038  19.274  0.00  0.00    +0.000 F 
ENDBRANCH  18  20
ENDBRANCH  11  13
ENDBRANCH   4  11
BRANCH   1  24
ATOM     24  C   UNL     1       8.118   9.033  18.762  0.00  0.00    +0.000 C 
BRANCH  24  28
ATOM     25  C   UNL     1      10.115  13.143  17.563  0.00  0.00    +0.000 A 
ATOM     26  C   UNL     1      10.917  12.071  17.896  0.00  0.00    +0.000 A 
ATOM     27  C   UNL     1      10.343  10.743  18.187  0.00  0.00    +0.000 A 
ATOM     28  C   UNL     1       8.960  10.432  18.220  0.00  0.00    +0.000 A 
ATOM     29  C   UNL     1       8.176  11.542  17.750  0.00  0.00    +0.000 A 
ATOM     30  C   UNL     1       8.736  12.839  17.453  0.00  0.00    +0.000 A 
BRANCH  25  32
ATOM     31  C   UNL     1      12.088  14.459  17.110  0.00  0.00    +0.000 C 
ATOM     32  O   UNL     1      10.665  14.371  17.304  0.00  0.00    +0.000 OA
ENDBRANCH  25  32
ENDBRANCH  24  28
ENDBRANCH   1  24
TORSDOF 6
ENDMDL
MODEL 6
REMARK VINA RESULT:      -9.2      1.275      1.843
REMARK  Name = 
REMARK  7 active torsions:
REMARK  status: ('A' for Active; 'I' for Inactive)
REMARK    1  A    between atoms: C_1  and  O_2
REMARK    2  A    between atoms: O_2  and  C_3
REMARK    3  A    between atoms: C_6  and  C_7
REMARK    4  A    between atoms: C_7  and  C_8
REMARK    5  A    between atoms: C_11  and  N_12
REMARK    6  A    between atoms: N_12  and  C_13
REMARK    7  A    between atoms: C_18  and  C_19
REMARK                            x       y       z     vdW  Elec       q    Type
REMARK                         _______ _______ _______ _____ _____    ______ ____
ROOT
ATOM      1  C   UNL     1       7.744   7.224  18.184  0.00  0.00    +0.000 A 
ATOM      2  N   UNL     1       8.283   6.230  18.915  0.00  0.00    +0.000 NA
ATOM      3  N   UNL     1       7.472   5.195  19.131  0.00  0.00    +0.000 NA
ATOM      4  C   UNL     1       6.390   5.162  18.361  0.00  0.00    +0.000 A 
ATOM      5  C   UNL     1       6.743   5.531  17.056  0.00  0.00    +0.000 A 
ATOM      6  C   UNL     1       7.576   5.007  15.951  0.00  0.00    +0.000 A 
ATOM      7  C   UNL     1       6.959   4.914  14.699  0.00  0.00    +0.000 A 
ATOM      8  C   UNL     1       5.686   5.339  14.726  0.00  0.00    +0.000 A 
ATOM      9  C   UNL     1       5.418   6.352  15.779  0.00  0.00    +0.000 A 
ATOM     10  C   UNL     1       6.606   6.781  16.996  0.00  0.00    +0.000 A 
ENDROOT
BRANCH   4  11
ATOM     11  N   UNL     1       5.124   5.733  18.869  0.00  0.00    +0.000 N 
ATOM     12  H   UNL     1       5.141   6.761  18.976  0.00  0.00    +0.000 HD
BRANCH  11  13
ATOM     13  C   UNL     1       3.853   5.140  18.944  0.00  0.00    +0.000 A 
ATOM     14  C   UNL     1       2.968   5.263  17.870  0.00  0.00    +0.000 A 
ATOM     15  C   UNL     1       1.788   4.517  17.847  0.00  0.00    +0.000 A 
ATOM     16  C   UNL     1       1.481   3.621  18.876  0.00  0.00    +0.000 A 
ATOM     17 CL   UNL     1       0.123   2.580  18.626  0.00  0.00    +0.000 Cl
ATOM     18  C   UNL     1       2.274   3.563  20.022  0.00  0.00    +0.000 A 
ATOM     19  C   UNL     1       3.423   4.392  20.061  0.00  0.00    +0.000 A 
BRANCH  18  20
ATOM     20  C   UNL     1       1.950   2.587  21.136  0.00  0.00    +0.000 C 
ATOM     21  F   UNL     1       0.791   2.867  21.802  0.00  0.00    +0.000 F 
ATOM     22  F   UNL     1       1.798   1.306  20.690  0.00  0.00    +0.000 F 
ATOM     23  F   UNL     1       2.888   2.521  22.115  0.00  0.00    +0.000 F 
ENDBRANCH  18  20
ENDBRANCH  11  13
ENDBRANCH   4  11
BRANCH   1  24
ATOM     24  C   UNL     1       8.095   8.583  19.177  0.00  0.00    +0.000 C 
BRANCH  24  28
ATOM     25  C   UNL     1      11.208  12.098  18.653  0.00  0.00    +0.000 A 
ATOM     26  C   UNL     1      10.590  11.569  17.540  0.00  0.00    +0.000 A 
ATOM     27  C   UNL     1       9.543  10.535  17.661  0.00  0.00    +0.000 A 
ATOM     28  C   UNL     1       9.108   9.940  18.872  0.00  0.00    +0.000 A 
ATOM     29  C   UNL     1       9.691  10.606  20.006  0.00  0.00    +0.000 A 
ATOM     30  C   UNL     1      10.706  11.626  19.891  0.00  0.00    +0.000 A 
BRANCH  25  32
ATOM     31  C   UNL     1      11.828  14.430  18.729  0.00  0.00    +0.000 C 
ATOM     32  O   UNL     1      12.184  13.051  18.522  0.00  0.00    +0.000 OA
ENDBRANCH  25  32
ENDBRANCH  24  28
ENDBRANCH   1  24
TORSDOF 6
ENDMDL
MODEL 7
REMARK VINA RESULT:      -9.2      4.734      5.686
REMARK  Name = 
REMARK  7 active torsions:
REMARK  status: ('A' for Active; 'I' for Inactive)
REMARK    1  A    between atoms: C_1  and  O_2
REMARK    2  A    between atoms: O_2  and  C_3
REMARK    3  A    between atoms: C_6  and  C_7
REMARK    4  A    between atoms: C_7  and  C_8
REMARK    5  A    between atoms: C_11  and  N_12
REMARK    6  A    between atoms: N_12  and  C_13
REMARK    7  A    between atoms: C_18  and  C_19
REMARK                            x       y       z     vdW  Elec       q    Type
REMARK                         _______ _______ _______ _____ _____    ______ ____
ROOT
ATOM      1  C   UNL     1       5.651   6.177  15.422  0.00  0.00    +0.000 A 
ATOM      2  N   UNL     1       6.625   5.865  16.298  0.00  0.00    +0.000 NA
ATOM      3  N   UNL     1       6.694   4.572  16.615  0.00  0.00    +0.000 NA
ATOM      4  C   UNL     1       6.012   3.762  15.814  0.00  0.00    +0.000 A 
ATOM      5  C   UNL     1       6.179   4.180  14.487  0.00  0.00    +0.000 A 
ATOM      6  C   UNL     1       7.272   4.283  13.494  0.00  0.00    +0.000 A 
ATOM      7  C   UNL     1       7.029   3.709  12.242  0.00  0.00    +0.000 A 
ATOM      8  C   UNL     1       5.807   3.161  12.162  0.00  0.00    +0.000 A 
ATOM      9  C   UNL     1       4.809   3.795  13.061  0.00  0.00    +0.000 A 
ATOM     10  C   UNL     1       5.251   4.999  14.258  0.00  0.00    +0.000 A 
ENDROOT
BRANCH   4  11
ATOM     11  N   UNL     1       4.640   3.359  16.191  0.00  0.00    +0.000 N 
ATOM     12  H   UNL     1       4.053   3.069  15.391  0.00  0.00    +0.000 HD
BRANCH  11  13
ATOM     13  C   UNL     1       4.129   3.041  17.460  0.00  0.00    +0.000 A 
ATOM     14  C   UNL     1       5.006   2.845  18.530  0.00  0.00    +0.000 A 
ATOM     15  C   UNL     1       4.510   2.727  19.830  0.00  0.00    +0.000 A 
ATOM     16  C   UNL     1       3.138   2.827  20.089  0.00  0.00    +0.000 A 
ATOM     17 CL   UNL     1       2.663   2.908  21.750  0.00  0.00    +0.000 Cl
ATOM     18  C   UNL     1       2.224   2.896  19.039  0.00  0.00    +0.000 A 
ATOM     19  C   UNL     1       2.747   2.928  17.722  0.00  0.00    +0.000 A 
BRANCH  18  20
ATOM     20  C   UNL     1       0.738   3.012  19.316  0.00  0.00    +0.000 C 
ATOM     21  F   UNL     1      -0.032   3.111  18.192  0.00  0.00    +0.000 F 
ATOM     22  F   UNL     1       0.240   1.933  19.989  0.00  0.00    +0.000 F 
ATOM     23  F   UNL     1       0.388   4.095  20.055  0.00  0.00    +0.000 F 
ENDBRANCH  18  20
ENDBRANCH  11  13
ENDBRANCH   4  11
BRANCH   1  24
ATOM     24  C   UNL     1       4.885   7.480  16.240  0.00  0.00    +0.000 C 
BRANCH  24  28
ATOM     25  C   UNL     1       1.965   7.347  19.952  0.00  0.00    +0.000 A 
ATOM     26  C   UNL     1       1.802   8.328  18.996  0.00  0.00    +0.000 A 
ATOM     27  C   UNL     1       2.629   8.354  17.773  0.00  0.00    +0.000 A 
ATOM     28  C   UNL     1       3.685   7.457  17.473  0.00  0.00    +0.000 A 
ATOM     29  C   UNL     1       3.735   6.388  18.433  0.00  0.00    +0.000 A 
ATOM     30  C   UNL     1       2.919   6.353  19.624  0.00  0.00    +0.000 A 
BRANCH  25  32
ATOM     31  C   UNL     1       0.580   8.575  21.502  0.00  0.00    +0.000 C 
ATOM     32  O   UNL     1       1.195   7.342  21.084  0.00  0.00    +0.000 OA
ENDBRANCH  25  32
ENDBRANCH  24  28
ENDBRANCH   1  24
TORSDOF 6
ENDMDL
MODEL 8
REMARK VINA RESULT:      -9.1      6.163      7.979
REMARK  Name = 
REMARK  7 active torsions:
REMARK  status: ('A' for Active; 'I' for Inactive)
REMARK    1  A    between atoms: C_1  and  O_2
REMARK    2  A    between atoms: O_2  and  C_3
REMARK    3  A    between atoms: C_6  and  C_7
REMARK    4  A    between atoms: C_7  and  C_8
REMARK    5  A    between atoms: C_11  and  N_12
REMARK    6  A    between atoms: N_12  and  C_13
REMARK    7  A    between atoms: C_18  and  C_19
REMARK                            x       y       z     vdW  Elec       q    Type
REMARK                         _______ _______ _______ _____ _____    ______ ____
ROOT
ATOM      1  C   UNL     1       4.707   4.718  17.582  0.00  0.00    +0.000 A 
ATOM      2  N   UNL     1       5.496   4.968  18.644  0.00  0.00    +0.000 NA
ATOM      3  N   UNL     1       4.885   5.580  19.659  0.00  0.00    +0.000 NA
ATOM      4  C   UNL     1       3.559   5.579  19.597  0.00  0.00    +0.000 A 
ATOM      5  C   UNL     1       3.120   4.324  19.154  0.00  0.00    +0.000 A 
ATOM      6  C   UNL     1       3.124   2.924  19.634  0.00  0.00    +0.000 A 
ATOM      7  C   UNL     1       1.894   2.259  19.618  0.00  0.00    +0.000 A 
ATOM      8  C   UNL     1       0.903   3.032  19.145  0.00  0.00    +0.000 A 
ATOM      9  C   UNL     1       1.365   4.078  18.197  0.00  0.00    +0.000 A 
ATOM     10  C   UNL     1       3.064   4.395  17.898  0.00  0.00    +0.000 A 
ENDROOT
BRANCH   4  11
ATOM     11  N   UNL     1       2.862   6.745  19.012  0.00  0.00    +0.000 N 
ATOM     12  H   UNL     1       2.878   6.768  17.978  0.00  0.00    +0.000 HD
BRANCH  11  13
ATOM     13  C   UNL     1       1.962   7.635  19.621  0.00  0.00    +0.000 A 
ATOM     14  C   UNL     1       1.370   7.294  20.840  0.00  0.00    +0.000 A 
ATOM     15  C   UNL     1       0.636   8.245  21.551  0.00  0.00    +0.000 A 
ATOM     16  C   UNL     1       0.498   9.553  21.075  0.00  0.00    +0.000 A 
ATOM     17 CL   UNL     1      -0.223  10.702  22.149  0.00  0.00    +0.000 Cl
ATOM     18  C   UNL     1       0.965   9.896  19.807  0.00  0.00    +0.000 A 
ATOM     19  C   UNL     1       1.635   8.890  19.066  0.00  0.00    +0.000 A 
BRANCH  18  20
ATOM     20  C   UNL     1       0.825  11.315  19.291  0.00  0.00    +0.000 C 
ATOM     21  F   UNL     1       1.485  11.548  18.118  0.00  0.00    +0.000 F 
ATOM     22  F   UNL     1      -0.471  11.660  19.039  0.00  0.00    +0.000 F 
ATOM     23  F   UNL     1       1.297  12.268  20.134  0.00  0.00    +0.000 F 
ENDBRANCH  18  20
ENDBRANCH  11  13
ENDBRANCH   4  11
BRANCH   1  24
ATOM     24  C   UNL     1       5.662   5.367  16.309  0.00  0.00    +0.000 C 
BRANCH  24  28
ATOM     25  C   UNL     1       6.912   3.545  12.133  0.00  0.00    +0.000 A 
ATOM     26  C   UNL     1       5.655   3.286  12.637  0.00  0.00    +0.000 A 
ATOM     27  C   UNL     1       5.186   3.907  13.891  0.00  0.00    +0.000 A 
ATOM     28  C   UNL     1       5.954   4.757  14.727  0.00  0.00    +0.000 A 
ATOM     29  C   UNL     1       7.205   5.093  14.103  0.00  0.00    +0.000 A 
ATOM     30  C   UNL     1       7.661   4.496  12.870  0.00  0.00    +0.000 A 
BRANCH  25  32
ATOM     31  C   UNL     1       7.118   1.540  10.804  0.00  0.00    +0.000 C 
ATOM     32  O   UNL     1       7.334   2.953  10.972  0.00  0.00    +0.000 OA
ENDBRANCH  25  32
ENDBRANCH  24  28
ENDBRANCH   1  24
TORSDOF 6
ENDMDL
MODEL 9
REMARK VINA RESULT:      -9.1      4.980      5.726
REMARK  Name = 
REMARK  7 active torsions:
REMARK  status: ('A' for Active; 'I' for Inactive)
REMARK    1  A    between atoms: C_1  and  O_2
REMARK    2  A    between atoms: O_2  and  C_3
REMARK    3  A    between atoms: C_6  and  C_7
REMARK    4  A    between atoms: C_7  and  C_8
REMARK    5  A    between atoms: C_11  and  N_12
REMARK    6  A    between atoms: N_12  and  C_13
REMARK    7  A    between atoms: C_18  and  C_19
REMARK                            x       y       z     vdW  Elec       q    Type
REMARK                         _______ _______ _______ _____ _____    ______ ____
ROOT
ATOM      1  C   UNL     1       5.225   6.395  15.465  0.00  0.00    +0.000 A 
ATOM      2  N   UNL     1       6.148   6.383  16.446  0.00  0.00    +0.000 NA
ATOM      3  N   UNL     1       6.537   5.167  16.829  0.00  0.00    +0.000 NA
ATOM      4  C   UNL     1       6.195   4.184  16.003  0.00  0.00    +0.000 A 
ATOM      5  C   UNL     1       6.381   4.608  14.681  0.00  0.00    +0.000 A 
ATOM      6  C   UNL     1       7.503   4.995  13.796  0.00  0.00    +0.000 A 
ATOM      7  C   UNL     1       7.562   4.354  12.554  0.00  0.00    +0.000 A 
ATOM      8  C   UNL     1       6.555   3.484  12.381  0.00  0.00    +0.000 A 
ATOM      9  C   UNL     1       5.330   3.831  13.148  0.00  0.00    +0.000 A 
ATOM     10  C   UNL     1       5.293   5.131  14.324  0.00  0.00    +0.000 A 
ENDROOT
BRANCH   4  11
ATOM     11  N   UNL     1       4.956   3.420  16.264  0.00  0.00    +0.000 N 
ATOM     12  H   UNL     1       4.640   2.847  15.463  0.00  0.00    +0.000 HD
BRANCH  11  13
ATOM     13  C   UNL     1       4.330   3.140  17.489  0.00  0.00    +0.000 A 
ATOM     14  C   UNL     1       5.106   2.973  18.640  0.00  0.00    +0.000 A 
ATOM     15  C   UNL     1       4.493   2.894  19.892  0.00  0.00    +0.000 A 
ATOM     16  C   UNL     1       3.105   3.003  20.023  0.00  0.00    +0.000 A 
ATOM     17 CL   UNL     1       2.481   3.133  21.630  0.00  0.00    +0.000 Cl
ATOM     18  C   UNL     1       2.290   3.043  18.892  0.00  0.00    +0.000 A 
ATOM     19  C   UNL     1       2.930   3.036  17.628  0.00  0.00    +0.000 A 
BRANCH  18  20
ATOM     20  C   UNL     1       0.785   3.168  19.030  0.00  0.00    +0.000 C 
ATOM     21  F   UNL     1       0.385   3.991  20.044  0.00  0.00    +0.000 F 
ATOM     22  F   UNL     1       0.193   3.677  17.910  0.00  0.00    +0.000 F 
ATOM     23  F   UNL     1       0.145   1.998  19.279  0.00  0.00    +0.000 F 
ENDBRANCH  18  20
ENDBRANCH  11  13
ENDBRANCH   4  11
BRANCH   1  24
ATOM     24  C   UNL     1       4.046   7.446  16.143  0.00  0.00    +0.000 C 
BRANCH  24  28
ATOM     25  C   UNL     1       1.692   7.591  20.236  0.00  0.00    +0.000 A 
ATOM     26  C   UNL     1       2.539   6.533  19.979  0.00  0.00    +0.000 A 
ATOM     27  C   UNL     1       3.366   6.491  18.756  0.00  0.00    +0.000 A 
ATOM     28  C   UNL     1       3.346   7.453  17.714  0.00  0.00    +0.000 A 
ATOM     29  C   UNL     1       2.544   8.588  18.083  0.00  0.00    +0.000 A 
ATOM     30  C   UNL     1       1.745   8.638  19.284  0.00  0.00    +0.000 A 
BRANCH  25  32
ATOM     31  C   UNL     1      -0.021   8.680  21.544  0.00  0.00    +0.000 C 
ATOM     32  O   UNL     1       0.926   7.610  21.372  0.00  0.00    +0.000 OA
ENDBRANCH  25  32
ENDBRANCH  24  28
ENDBRANCH   1  24
TORSDOF 6
ENDMDL
