MODEL 1
REMARK VINA RESULT:      -8.1      0.000      0.000
REMARK  Name = 
REMARK  5 active torsions:
REMARK  status: ('A' for Active; 'I' for Inactive)
REMARK    1  A    between atoms: C_1  and  C_2
REMARK    2  A    between atoms: C_7  and  C_8
REMARK    3  A    between atoms: C_8  and  N_9
REMARK    4  A    between atoms: N_12  and  C_13
REMARK    5  A    between atoms: C_24  and  C_25
REMARK                            x       y       z     vdW  Elec       q    Type
REMARK                         _______ _______ _______ _____ _____    ______ ____
ROOT
ATOM      1  N   UNL     1       0.878  10.270  18.838  0.00  0.00    +0.000 NA
ATOM      2  C   UNL     1       0.933   9.657  20.187  0.00  0.00    +0.000 C 
ATOM      3  C   UNL     1       1.099   8.111  20.276  0.00  0.00    +0.000 C 
ATOM      4  N   UNL     1       2.161   7.622  19.368  0.00  0.00    +0.000 N 
ATOM      5  C   UNL     1       2.076   8.159  18.001  0.00  0.00    +0.000 C 
ATOM      6  C   UNL     1       1.985   9.702  18.032  0.00  0.00    +0.000 C 
ENDROOT
BRANCH   4   7
ATOM      7  C   UNL     1       2.711   6.357  19.578  0.00  0.00    +0.000 A 
ATOM      8  C   UNL     1       3.845   5.938  18.862  0.00  0.00    +0.000 A 
ATOM      9  C   UNL     1       4.348   4.633  18.956  0.00  0.00    +0.000 A 
ATOM     10  C   UNL     1       3.730   3.700  19.784  0.00  0.00    +0.000 A 
ATOM     11 CL   UNL     1       4.366   2.096  19.819  0.00  0.00    +0.000 Cl
ATOM     12  C   UNL     1       2.618   4.088  20.528  0.00  0.00    +0.000 A 
ATOM     13 CL   UNL     1       1.784   2.994  21.580  0.00  0.00    +0.000 Cl
ATOM     14  C   UNL     1       2.124   5.399  20.424  0.00  0.00    +0.000 A 
ENDBRANCH   4   7
BRANCH   1  15
ATOM     15  C   UNL     1      -0.405  10.112  18.154  0.00  0.00    +0.000 C 
BRANCH  15  22
ATOM     16  C   UNL     1      -6.818  12.303  17.657  0.00  0.00    +0.000 C 
ATOM     17  C   UNL     1      -5.392  11.910  17.921  0.00  0.00    +0.000 A 
ATOM     18  C   UNL     1      -4.742  12.352  19.007  0.00  0.00    +0.000 A 
ATOM     19  C   UNL     1      -3.374  12.043  19.164  0.00  0.00    +0.000 A 
ATOM     20  N   UNL     1      -2.530  12.455  20.078  0.00  0.00    +0.000 NA
ATOM     21  C   UNL     1      -1.350  11.864  19.760  0.00  0.00    +0.000 A 
ATOM     22  C   UNL     1      -1.461  11.041  18.652  0.00  0.00    +0.000 A 
ATOM     23  N   UNL     1      -2.779  11.217  18.210  0.00  0.00    +0.000 N 
ATOM     24  C   UNL     1      -3.554  10.775  17.114  0.00  0.00    +0.000 A 
ATOM     25  C   UNL     1      -2.929   9.933  16.047  0.00  0.00    +0.000 C 
ATOM     26  N   UNL     1      -4.806  11.108  16.969  0.00  0.00    +0.000 NA
ENDBRANCH  15  22
ENDBRANCH   1  15
TORSDOF 3
ENDMDL
MODEL 2
REMARK VINA RESULT:      -7.6      0.878      1.577
REMARK  Name = 
REMARK  5 active torsions:
REMARK  status: ('A' for Active; 'I' for Inactive)
REMARK    1  A    between atoms: C_1  and  C_2
REMARK    2  A    between atoms: C_7  and  C_8
REMARK    3  A    between atoms: C_8  and  N_9
REMARK    4  A    between atoms: N_12  and  C_13
REMARK    5  A    between atoms: C_24  and  C_25
REMARK                            x       y       z     vdW  Elec       q    Type
REMARK                         _______ _______ _______ _____ _____    ______ ____
ROOT
ATOM      1  N   UNL     1       0.951  10.404  19.025  0.00  0.00    +0.000 NA
ATOM      2  C   UNL     1       1.100   9.701  20.323  0.00  0.00    +0.000 C 
ATOM      3  C   UNL     1       1.213   8.148  20.297  0.00  0.00    +0.000 C 
ATOM      4  N   UNL     1       2.171   7.686  19.269  0.00  0.00    +0.000 N 
ATOM      5  C   UNL     1       1.987   8.315  17.951  0.00  0.00    +0.000 C 
ATOM      6  C   UNL     1       1.960   9.854  18.089  0.00  0.00    +0.000 C 
ENDROOT
BRANCH   4   7
ATOM      7  C   UNL     1       2.688   6.392  19.347  0.00  0.00    +0.000 A 
ATOM      8  C   UNL     1       2.090   5.427  20.176  0.00  0.00    +0.000 A 
ATOM      9  C   UNL     1       2.653   4.159  20.374  0.00  0.00    +0.000 A 
ATOM     10  C   UNL     1       3.841   3.811  19.736  0.00  0.00    +0.000 A 
ATOM     11 CL   UNL     1       4.511   2.254  20.059  0.00  0.00    +0.000 Cl
ATOM     12  C   UNL     1       4.449   4.734  18.887  0.00  0.00    +0.000 A 
ATOM     13 CL   UNL     1       5.928   4.389  18.056  0.00  0.00    +0.000 Cl
ATOM     14  C   UNL     1       3.873   6.001  18.697  0.00  0.00    +0.000 A 
ENDBRANCH   4   7
BRANCH   1  15
ATOM     15  C   UNL     1      -0.392  10.335  18.451  0.00  0.00    +0.000 C 
BRANCH  15  22
ATOM     16  C   UNL     1      -6.802  12.518  19.022  0.00  0.00    +0.000 C 
ATOM     17  C   UNL     1      -5.345  12.148  19.029  0.00  0.00    +0.000 A 
ATOM     18  C   UNL     1      -4.487  12.734  19.875  0.00  0.00    +0.000 A 
ATOM     19  C   UNL     1      -3.112  12.432  19.780  0.00  0.00    +0.000 A 
ATOM     20  N   UNL     1      -2.100  12.962  20.423  0.00  0.00    +0.000 NA
ATOM     21  C   UNL     1      -1.005  12.315  19.950  0.00  0.00    +0.000 A 
ATOM     22  C   UNL     1      -1.334  11.341  19.023  0.00  0.00    +0.000 A 
ATOM     23  N   UNL     1      -2.719  11.469  18.852  0.00  0.00    +0.000 N 
ATOM     24  C   UNL     1      -3.702  10.882  18.023  0.00  0.00    +0.000 A 
ATOM     25  C   UNL     1      -3.304   9.885  16.980  0.00  0.00    +0.000 C 
ATOM     26  N   UNL     1      -4.961  11.208  18.101  0.00  0.00    +0.000 NA
ENDBRANCH  15  22
ENDBRANCH   1  15
TORSDOF 3
ENDMDL
MODEL 3
REMARK VINA RESULT:      -7.5      4.695      9.301
REMARK  Name = 
REMARK  5 active torsions:
REMARK  status: ('A' for Active; 'I' for Inactive)
REMARK    1  A    between atoms: C_1  and  C_2
REMARK    2  A    between atoms: C_7  and  C_8
REMARK    3  A    between atoms: C_8  and  N_9
REMARK    4  A    between atoms: N_12  and  C_13
REMARK    5  A    between atoms: C_24  and  C_25
REMARK                            x       y       z     vdW  Elec       q    Type
REMARK                         _______ _______ _______ _____ _____    ______ ____
ROOT
ATOM      1  N   UNL     1       3.403   5.365  18.768  0.00  0.00    +0.000 NA
ATOM      2  C   UNL     1       2.447   5.129  19.876  0.00  0.00    +0.000 C 
ATOM      3  C   UNL     1       2.105   6.329  20.808  0.00  0.00    +0.000 C 
ATOM      4  N   UNL     1       1.810   7.555  20.033  0.00  0.00    +0.000 N 
ATOM      5  C   UNL     1       2.793   7.850  18.979  0.00  0.00    +0.000 C 
ATOM      6  C   UNL     1       3.001   6.613  18.075  0.00  0.00    +0.000 C 
ENDROOT
BRANCH   4   7
ATOM      7  C   UNL     1       1.125   8.604  20.648  0.00  0.00    +0.000 A 
ATOM      8  C   UNL     1       0.961   8.637  22.043  0.00  0.00    +0.000 A 
ATOM      9  C   UNL     1       0.174   9.606  22.680  0.00  0.00    +0.000 A 
ATOM     10  C   UNL     1      -0.473  10.587  21.934  0.00  0.00    +0.000 A 
ATOM     11 CL   UNL     1      -1.467  11.723  22.771  0.00  0.00    +0.000 Cl
ATOM     12  C   UNL     1      -0.312  10.601  20.549  0.00  0.00    +0.000 A 
ATOM     13 CL   UNL     1      -1.082  11.780  19.542  0.00  0.00    +0.000 Cl
ATOM     14  C   UNL     1       0.479   9.623  19.924  0.00  0.00    +0.000 A 
ENDBRANCH   4   7
BRANCH   1  15
ATOM     15  C   UNL     1       4.805   5.420  19.180  0.00  0.00    +0.000 C 
BRANCH  15  22
ATOM     16  C   UNL     1       6.471   3.556  12.861  0.00  0.00    +0.000 C 
ATOM     17  C   UNL     1       6.225   4.099  14.241  0.00  0.00    +0.000 A 
ATOM     18  C   UNL     1       6.918   5.147  14.706  0.00  0.00    +0.000 A 
ATOM     19  C   UNL     1       6.728   5.561  16.041  0.00  0.00    +0.000 A 
ATOM     20  N   UNL     1       7.368   6.478  16.725  0.00  0.00    +0.000 NA
ATOM     21  C   UNL     1       6.793   6.465  17.955  0.00  0.00    +0.000 A 
ATOM     22  C   UNL     1       5.755   5.554  18.036  0.00  0.00    +0.000 A 
ATOM     23  N   UNL     1       5.759   4.900  16.796  0.00  0.00    +0.000 N 
ATOM     24  C   UNL     1       5.056   3.824  16.209  0.00  0.00    +0.000 A 
ATOM     25  C   UNL     1       4.050   3.060  17.012  0.00  0.00    +0.000 C 
ATOM     26  N   UNL     1       5.279   3.433  14.986  0.00  0.00    +0.000 NA
ENDBRANCH  15  22
ENDBRANCH   1  15
TORSDOF 3
ENDMDL
MODEL 4
REMARK VINA RESULT:      -7.4      1.628      1.932
REMARK  Name = 
REMARK  5 active torsions:
REMARK  status: ('A' for Active; 'I' for Inactive)
REMARK    1  A    between atoms: C_1  and  C_2
REMARK    2  A    between atoms: C_7  and  C_8
REMARK    3  A    between atoms: C_8  and  N_9
REMARK    4  A    between atoms: N_12  and  C_13
REMARK    5  A    between atoms: C_24  and  C_25
REMARK                            x       y       z     vdW  Elec       q    Type
REMARK                         _______ _______ _______ _____ _____    ______ ____
ROOT
ATOM      1  N   UNL     1       0.809  10.154  19.477  0.00  0.00    +0.000 NA
ATOM      2  C   UNL     1       1.230   9.015  20.328  0.00  0.00    +0.000 C 
ATOM      3  C   UNL     1       1.634   7.689  19.619  0.00  0.00    +0.000 C 
ATOM      4  N   UNL     1       2.545   7.935  18.479  0.00  0.00    +0.000 N 
ATOM      5  C   UNL     1       2.102   9.010  17.577  0.00  0.00    +0.000 C 
ATOM      6  C   UNL     1       1.796  10.295  18.380  0.00  0.00    +0.000 C 
ENDROOT
BRANCH   4   7
ATOM      7  C   UNL     1       3.305   6.880  17.971  0.00  0.00    +0.000 A 
ATOM      8  C   UNL     1       4.513   7.123  17.296  0.00  0.00    +0.000 A 
ATOM      9  C   UNL     1       5.237   6.101  16.667  0.00  0.00    +0.000 A 
ATOM     10  C   UNL     1       4.772   4.789  16.700  0.00  0.00    +0.000 A 
ATOM     11 CL   UNL     1       5.681   3.583  15.865  0.00  0.00    +0.000 Cl
ATOM     12  C   UNL     1       3.590   4.506  17.383  0.00  0.00    +0.000 A 
ATOM     13 CL   UNL     1       2.936   2.906  17.473  0.00  0.00    +0.000 Cl
ATOM     14  C   UNL     1       2.875   5.541  18.009  0.00  0.00    +0.000 A 
ENDBRANCH   4   7
BRANCH   1  15
ATOM     15  C   UNL     1      -0.551  10.044  18.949  0.00  0.00    +0.000 C 
BRANCH  15  22
ATOM     16  C   UNL     1      -6.687  12.943  18.594  0.00  0.00    +0.000 C 
ATOM     17  C   UNL     1      -5.300  12.408  18.814  0.00  0.00    +0.000 A 
ATOM     18  C   UNL     1      -4.525  12.879  19.802  0.00  0.00    +0.000 A 
ATOM     19  C   UNL     1      -3.194  12.422  19.910  0.00  0.00    +0.000 A 
ATOM     20  N   UNL     1      -2.243  12.821  20.720  0.00  0.00    +0.000 NA
ATOM     21  C   UNL     1      -1.167  12.059  20.400  0.00  0.00    +0.000 A 
ATOM     22  C   UNL     1      -1.453  11.144  19.402  0.00  0.00    +0.000 A 
ATOM     23  N   UNL     1      -2.771  11.433  19.023  0.00  0.00    +0.000 N 
ATOM     24  C   UNL     1      -3.670  10.976  18.033  0.00  0.00    +0.000 A 
ATOM     25  C   UNL     1      -3.226   9.956  17.032  0.00  0.00    +0.000 C 
ATOM     26  N   UNL     1      -4.882  11.444  17.926  0.00  0.00    +0.000 NA
ENDBRANCH  15  22
ENDBRANCH   1  15
TORSDOF 3
ENDMDL
MODEL 5
REMARK VINA RESULT:      -7.4      1.531      2.113
REMARK  Name = 
REMARK  5 active torsions:
REMARK  status: ('A' for Active; 'I' for Inactive)
REMARK    1  A    between atoms: C_1  and  C_2
REMARK    2  A    between atoms: C_7  and  C_8
REMARK    3  A    between atoms: C_8  and  N_9
REMARK    4  A    between atoms: N_12  and  C_13
REMARK    5  A    between atoms: C_24  and  C_25
REMARK                            x       y       z     vdW  Elec       q    Type
REMARK                         _______ _______ _______ _____ _____    ______ ____
ROOT
ATOM      1  N   UNL     1       0.494  11.435  19.303  0.00  0.00    +0.000 NA
ATOM      2  C   UNL     1       0.480  10.434  20.398  0.00  0.00    +0.000 C 
ATOM      3  C   UNL     1       0.702   8.940  20.019  0.00  0.00    +0.000 C 
ATOM      4  N   UNL     1       1.842   8.775  19.091  0.00  0.00    +0.000 N 
ATOM      5  C   UNL     1       1.830   9.708  17.953  0.00  0.00    +0.000 C 
ATOM      6  C   UNL     1       1.676  11.163  18.451  0.00  0.00    +0.000 C 
ENDROOT
BRANCH   4   7
ATOM      7  C   UNL     1       2.427   7.516  18.943  0.00  0.00    +0.000 A 
ATOM      8  C   UNL     1       2.305   6.544  19.949  0.00  0.00    +0.000 A 
ATOM      9  C   UNL     1       2.981   5.317  19.889  0.00  0.00    +0.000 A 
ATOM     10  C   UNL     1       3.803   5.021  18.805  0.00  0.00    +0.000 A 
ATOM     11 CL   UNL     1       4.648   3.516  18.812  0.00  0.00    +0.000 Cl
ATOM     12  C   UNL     1       3.928   5.952  17.776  0.00  0.00    +0.000 A 
ATOM     13 CL   UNL     1       4.930   5.670  16.392  0.00  0.00    +0.000 Cl
ATOM     14  C   UNL     1       3.244   7.178  17.849  0.00  0.00    +0.000 A 
ENDBRANCH   4   7
BRANCH   1  15
ATOM     15  C   UNL     1      -0.731  11.475  18.506  0.00  0.00    +0.000 C 
BRANCH  15  22
ATOM     16  C   UNL     1      -7.449  11.915  19.428  0.00  0.00    +0.000 C 
ATOM     17  C   UNL     1      -5.948  11.924  19.368  0.00  0.00    +0.000 A 
ATOM     18  C   UNL     1      -5.224  12.625  20.252  0.00  0.00    +0.000 A 
ATOM     19  C   UNL     1      -3.823  12.689  20.098  0.00  0.00    +0.000 A 
ATOM     20  N   UNL     1      -2.945  13.393  20.771  0.00  0.00    +0.000 NA
ATOM     21  C   UNL     1      -1.747  13.088  20.212  0.00  0.00    +0.000 A 
ATOM     22  C   UNL     1      -1.866  12.154  19.197  0.00  0.00    +0.000 A 
ATOM     23  N   UNL     1      -3.246  11.946  19.068  0.00  0.00    +0.000 N 
ATOM     24  C   UNL     1      -4.089  11.211  18.204  0.00  0.00    +0.000 A 
ATOM     25  C   UNL     1      -3.504  10.449  17.057  0.00  0.00    +0.000 C 
ATOM     26  N   UNL     1      -5.385  11.202  18.341  0.00  0.00    +0.000 NA
ENDBRANCH  15  22
ENDBRANCH   1  15
TORSDOF 3
ENDMDL
MODEL 6
REMARK VINA RESULT:      -7.4      4.481      9.254
REMARK  Name = 
REMARK  5 active torsions:
REMARK  status: ('A' for Active; 'I' for Inactive)
REMARK    1  A    between atoms: C_1  and  C_2
REMARK    2  A    between atoms: C_7  and  C_8
REMARK    3  A    between atoms: C_8  and  N_9
REMARK    4  A    between atoms: N_12  and  C_13
REMARK    5  A    between atoms: C_24  and  C_25
REMARK                            x       y       z     vdW  Elec       q    Type
REMARK                         _______ _______ _______ _____ _____    ______ ____
ROOT
ATOM      1  N   UNL     1       3.436   5.414  18.684  0.00  0.00    +0.000 NA
ATOM      2  C   UNL     1       2.459   5.358  19.799  0.00  0.00    +0.000 C 
ATOM      3  C   UNL     1       2.103   6.692  20.519  0.00  0.00    +0.000 C 
ATOM      4  N   UNL     1       1.825   7.778  19.553  0.00  0.00    +0.000 N 
ATOM      5  C   UNL     1       2.828   7.901  18.483  0.00  0.00    +0.000 C 
ATOM      6  C   UNL     1       3.050   6.535  17.794  0.00  0.00    +0.000 C 
ENDROOT
BRANCH   4   7
ATOM      7  C   UNL     1       1.131   8.912  19.978  0.00  0.00    +0.000 A 
ATOM      8  C   UNL     1       1.104  10.076  19.192  0.00  0.00    +0.000 A 
ATOM      9  C   UNL     1       0.523  11.269  19.644  0.00  0.00    +0.000 A 
ATOM     10  C   UNL     1      -0.061  11.332  20.906  0.00  0.00    +0.000 A 
ATOM     11 CL   UNL     1      -0.715  12.843  21.425  0.00  0.00    +0.000 Cl
ATOM     12  C   UNL     1      -0.075  10.189  21.703  0.00  0.00    +0.000 A 
ATOM     13 CL   UNL     1      -0.776  10.176  23.286  0.00  0.00    +0.000 Cl
ATOM     14  C   UNL     1       0.510   9.000  21.238  0.00  0.00    +0.000 A 
ENDBRANCH   4   7
BRANCH   1  15
ATOM     15  C   UNL     1       4.831   5.536  19.108  0.00  0.00    +0.000 C 
BRANCH  15  22
ATOM     16  C   UNL     1       6.572   3.582  12.837  0.00  0.00    +0.000 C 
ATOM     17  C   UNL     1       6.308   4.146  14.205  0.00  0.00    +0.000 A 
ATOM     18  C   UNL     1       6.983   5.212  14.657  0.00  0.00    +0.000 A 
ATOM     19  C   UNL     1       6.777   5.646  15.984  0.00  0.00    +0.000 A 
ATOM     20  N   UNL     1       7.399   6.584  16.656  0.00  0.00    +0.000 NA
ATOM     21  C   UNL     1       6.815   6.585  17.881  0.00  0.00    +0.000 A 
ATOM     22  C   UNL     1       5.788   5.662  17.970  0.00  0.00    +0.000 A 
ATOM     23  N   UNL     1       5.810   4.986  16.742  0.00  0.00    +0.000 N 
ATOM     24  C   UNL     1       5.126   3.891  16.169  0.00  0.00    +0.000 A 
ATOM     25  C   UNL     1       4.124   3.129  16.977  0.00  0.00    +0.000 C 
ATOM     26  N   UNL     1       5.364   3.482  14.955  0.00  0.00    +0.000 NA
ENDBRANCH  15  22
ENDBRANCH   1  15
TORSDOF 3
ENDMDL
MODEL 7
REMARK VINA RESULT:      -7.2      1.068      1.101
REMARK  Name = 
REMARK  5 active torsions:
REMARK  status: ('A' for Active; 'I' for Inactive)
REMARK    1  A    between atoms: C_1  and  C_2
REMARK    2  A    between atoms: C_7  and  C_8
REMARK    3  A    between atoms: C_8  and  N_9
REMARK    4  A    between atoms: N_12  and  C_13
REMARK    5  A    between atoms: C_24  and  C_25
REMARK                            x       y       z     vdW  Elec       q    Type
REMARK                         _______ _______ _______ _____ _____    ______ ____
ROOT
ATOM      1  N   UNL     1       1.314   9.984  19.075  0.00  0.00    +0.000 NA
ATOM      2  C   UNL     1       1.322   9.207  20.338  0.00  0.00    +0.000 C 
ATOM      3  C   UNL     1       1.296   7.654  20.235  0.00  0.00    +0.000 C 
ATOM      4  N   UNL     1       2.268   7.155  19.237  0.00  0.00    +0.000 N 
ATOM      5  C   UNL     1       2.220   7.862  17.947  0.00  0.00    +0.000 C 
ATOM      6  C   UNL     1       2.324   9.389  18.166  0.00  0.00    +0.000 C 
ENDROOT
BRANCH   4   7
ATOM      7  C   UNL     1       2.661   5.816  19.273  0.00  0.00    +0.000 A 
ATOM      8  C   UNL     1       4.021   5.467  19.328  0.00  0.00    +0.000 A 
ATOM      9  C   UNL     1       4.454   4.137  19.240  0.00  0.00    +0.000 A 
ATOM     10  C   UNL     1       3.530   3.105  19.101  0.00  0.00    +0.000 A 
ATOM     11 CL   UNL     1       4.129   1.493  18.948  0.00  0.00    +0.000 Cl
ATOM     12  C   UNL     1       2.172   3.412  19.069  0.00  0.00    +0.000 A 
ATOM     13 CL   UNL     1       0.953   2.195  18.895  0.00  0.00    +0.000 Cl
ATOM     14  C   UNL     1       1.751   4.750  19.158  0.00  0.00    +0.000 A 
ENDBRANCH   4   7
BRANCH   1  15
ATOM     15  C   UNL     1       0.006  10.068  18.425  0.00  0.00    +0.000 C 
BRANCH  15  22
ATOM     16  C   UNL     1      -6.277  12.577  19.060  0.00  0.00    +0.000 C 
ATOM     17  C   UNL     1      -4.841  12.133  19.052  0.00  0.00    +0.000 A 
ATOM     18  C   UNL     1      -3.944  12.679  19.885  0.00  0.00    +0.000 A 
ATOM     19  C   UNL     1      -2.587  12.307  19.775  0.00  0.00    +0.000 A 
ATOM     20  N   UNL     1      -1.541  12.787  20.404  0.00  0.00    +0.000 NA
ATOM     21  C   UNL     1      -0.487  12.082  19.921  0.00  0.00    +0.000 A 
ATOM     22  C   UNL     1      -0.876  11.123  19.003  0.00  0.00    +0.000 A 
ATOM     23  N   UNL     1      -2.255  11.320  18.847  0.00  0.00    +0.000 N 
ATOM     24  C   UNL     1      -3.276  10.781  18.033  0.00  0.00    +0.000 A 
ATOM     25  C   UNL     1      -2.941   9.761  16.990  0.00  0.00    +0.000 C 
ATOM     26  N   UNL     1      -4.516  11.171  18.124  0.00  0.00    +0.000 NA
ENDBRANCH  15  22
ENDBRANCH   1  15
TORSDOF 3
ENDMDL
MODEL 8
REMARK VINA RESULT:      -7.2      1.240      1.472
REMARK  Name = 
REMARK  5 active torsions:
REMARK  status: ('A' for Active; 'I' for Inactive)
REMARK    1  A    between atoms: C_1  and  C_2
REMARK    2  A    between atoms: C_7  and  C_8
REMARK    3  A    between atoms: C_8  and  N_9
REMARK    4  A    between atoms: N_12  and  C_13
REMARK    5  A    between atoms: C_24  and  C_25
REMARK                            x       y       z     vdW  Elec       q    Type
REMARK                         _______ _______ _______ _____ _____    ______ ____
ROOT
ATOM      1  N   UNL     1       0.308  10.929  19.877  0.00  0.00    +0.000 NA
ATOM      2  C   UNL     1       0.582  10.080  21.062  0.00  0.00    +0.000 C 
ATOM      3  C   UNL     1       0.784   8.554  20.829  0.00  0.00    +0.000 C 
ATOM      4  N   UNL     1       1.700   8.290  19.697  0.00  0.00    +0.000 N 
ATOM      5  C   UNL     1       1.395   9.066  18.484  0.00  0.00    +0.000 C 
ATOM      6  C   UNL     1       1.285  10.571  18.822  0.00  0.00    +0.000 C 
ENDROOT
BRANCH   4   7
ATOM      7  C   UNL     1       2.296   7.034  19.577  0.00  0.00    +0.000 A 
ATOM      8  C   UNL     1       3.088   6.717  18.461  0.00  0.00    +0.000 A 
ATOM      9  C   UNL     1       3.599   5.429  18.248  0.00  0.00    +0.000 A 
ATOM     10  C   UNL     1       3.335   4.410  19.160  0.00  0.00    +0.000 A 
ATOM     11 CL   UNL     1       3.949   2.834  18.817  0.00  0.00    +0.000 Cl
ATOM     12  C   UNL     1       2.574   4.695  20.292  0.00  0.00    +0.000 A 
ATOM     13 CL   UNL     1       2.194   3.490  21.475  0.00  0.00    +0.000 Cl
ATOM     14  C   UNL     1       2.069   5.990  20.493  0.00  0.00    +0.000 A 
ENDBRANCH   4   7
BRANCH   1  15
ATOM     15  C   UNL     1      -1.063  10.843  19.376  0.00  0.00    +0.000 C 
BRANCH  15  22
ATOM     16  C   UNL     1      -7.227  13.704  19.341  0.00  0.00    +0.000 C 
ATOM     17  C   UNL     1      -5.825  13.183  19.483  0.00  0.00    +0.000 A 
ATOM     18  C   UNL     1      -4.985  13.695  20.394  0.00  0.00    +0.000 A 
ATOM     19  C   UNL     1      -3.647  13.248  20.426  0.00  0.00    +0.000 A 
ATOM     20  N   UNL     1      -2.644  13.683  21.149  0.00  0.00    +0.000 NA
ATOM     21  C   UNL     1      -1.588  12.912  20.785  0.00  0.00    +0.000 A 
ATOM     22  C   UNL     1      -1.938  11.957  19.847  0.00  0.00    +0.000 A 
ATOM     23  N   UNL     1      -3.281  12.226  19.551  0.00  0.00    +0.000 N 
ATOM     24  C   UNL     1      -4.245  11.726  18.646  0.00  0.00    +0.000 A 
ATOM     25  C   UNL     1      -3.867  10.669  17.658  0.00  0.00    +0.000 C 
ATOM     26  N   UNL     1      -5.464  12.185  18.607  0.00  0.00    +0.000 NA
ENDBRANCH  15  22
ENDBRANCH   1  15
TORSDOF 3
ENDMDL
MODEL 9
REMARK VINA RESULT:      -7.2      5.106      9.055
REMARK  Name = 
REMARK  5 active torsions:
REMARK  status: ('A' for Active; 'I' for Inactive)
REMARK    1  A    between atoms: C_1  and  C_2
REMARK    2  A    between atoms: C_7  and  C_8
REMARK    3  A    between atoms: C_8  and  N_9
REMARK    4  A    between atoms: N_12  and  C_13
REMARK    5  A    between atoms: C_24  and  C_25
REMARK                            x       y       z     vdW  Elec       q    Type
REMARK                         _______ _______ _______ _____ _____    ______ ____
ROOT
ATOM      1  N   UNL     1       1.301   9.276  21.614  0.00  0.00    +0.000 NA
ATOM      2  C   UNL     1       1.284  10.644  21.042  0.00  0.00    +0.000 C 
ATOM      3  C   UNL     1      -0.030  11.469  21.174  0.00  0.00    +0.000 C 
ATOM      4  N   UNL     1      -0.582  11.402  22.545  0.00  0.00    +0.000 N 
ATOM      5  C   UNL     1      -0.647  10.041  23.100  0.00  0.00    +0.000 C 
ATOM      6  C   UNL     1       0.727   9.344  22.979  0.00  0.00    +0.000 C 
ENDROOT
BRANCH   4   7
ATOM      7  C   UNL     1      -1.513  12.358  22.955  0.00  0.00    +0.000 A 
ATOM      8  C   UNL     1      -1.183  13.724  22.971  0.00  0.00    +0.000 A 
ATOM      9  C   UNL     1      -2.048  14.695  23.493  0.00  0.00    +0.000 A 
ATOM     10  C   UNL     1      -3.285  14.327  24.014  0.00  0.00    +0.000 A 
ATOM     11 CL   UNL     1      -4.284  15.563  24.687  0.00  0.00    +0.000 Cl
ATOM     12  C   UNL     1      -3.657  12.984  23.991  0.00  0.00    +0.000 A 
ATOM     13 CL   UNL     1      -5.173  12.435  24.621  0.00  0.00    +0.000 Cl
ATOM     14  C   UNL     1      -2.780  12.020  23.466  0.00  0.00    +0.000 A 
ENDBRANCH   4   7
BRANCH   1  15
ATOM     15  C   UNL     1       0.612   8.273  20.803  0.00  0.00    +0.000 C 
BRANCH  15  22
ATOM     16  C   UNL     1       5.270   6.321  16.257  0.00  0.00    +0.000 C 
ATOM     17  C   UNL     1       4.283   6.604  17.354  0.00  0.00    +0.000 A 
ATOM     18  C   UNL     1       4.135   5.762  18.386  0.00  0.00    +0.000 A 
ATOM     19  C   UNL     1       3.127   6.014  19.341  0.00  0.00    +0.000 A 
ATOM     20  N   UNL     1       2.741   5.277  20.354  0.00  0.00    +0.000 NA
ATOM     21  C   UNL     1       1.738   5.980  20.938  0.00  0.00    +0.000 A 
ATOM     22  C   UNL     1       1.513   7.191  20.307  0.00  0.00    +0.000 A 
ATOM     23  N   UNL     1       2.377   7.182  19.204  0.00  0.00    +0.000 N 
ATOM     24  C   UNL     1       2.627   8.025  18.098  0.00  0.00    +0.000 A 
ATOM     25  C   UNL     1       1.801   9.257  17.894  0.00  0.00    +0.000 C 
ATOM     26  N   UNL     1       3.536   7.750  17.206  0.00  0.00    +0.000 NA
ENDBRANCH  15  22
ENDBRANCH   1  15
TORSDOF 3
ENDMDL
