MODEL 1
REMARK VINA RESULT:      -6.9      0.000      0.000
REMARK  Name = 
REMARK  5 active torsions:
REMARK  status: ('A' for Active; 'I' for Inactive)
REMARK    1  A    between atoms: C_2  and  C_14
REMARK    2  A    between atoms: N_3  and  C_4
REMARK    3  A    between atoms: C_4  and  C_5
REMARK    4  A    between atoms: C_5  and  C_6
REMARK    5  A    between atoms: C_8  and  C_9
REMARK                            x       y       z     vdW  Elec       q    Type
REMARK                         _______ _______ _______ _____ _____    ______ ____
ROOT
ATOM      1  C   UNL     1       6.610   5.421  19.215  0.00  0.00    +0.000 C 
ENDROOT
BRANCH   1   4
ATOM      2  O   UNL     1       5.280   3.038  19.797  0.00  0.00    +0.000 OA
ATOM      3  C   UNL     1       4.681   3.877  19.127  0.00  0.00    +0.000 C 
ATOM      4  N   UNL     1       5.260   5.087  18.796  0.00  0.00    +0.000 N 
ATOM      5  H   UNL     1       4.706   5.757  18.273  0.00  0.00    +0.000 HD
BRANCH   3   6
ATOM      6  C   UNL     1       3.339   3.683  18.644  0.00  0.00    +0.000 A 
ATOM      7  C   UNL     1       2.650   4.301  17.623  0.00  0.00    +0.000 A 
ATOM      8  N   UNL     1       1.382   3.786  17.526  0.00  0.00    +0.000 NA
ATOM      9  C   UNL     1       1.346   2.887  18.481  0.00  0.00    +0.000 A 
ATOM     10  O   UNL     1       2.496   2.758  19.207  0.00  0.00    +0.000 OA
ENDBRANCH   3   6
ENDBRANCH   1   4
BRANCH   1  11
ATOM     11  C   UNL     1       7.416   6.092  18.105  0.00  0.00    +0.000 C 
BRANCH  11  12
ATOM     12  C   UNL     1       6.944   5.637  16.777  0.00  0.00    +0.000 A 
ATOM     13  N   UNL     1       7.203   4.521  16.136  0.00  0.00    +0.000 NA
ATOM     14  C   UNL     1       6.537   4.714  14.950  0.00  0.00    +0.000 A 
ATOM     15  N   UNL     1       5.888   5.880  14.852  0.00  0.00    +0.000 NA
ATOM     16  O   UNL     1       6.155   6.499  16.074  0.00  0.00    +0.000 OA
BRANCH  14  17
ATOM     17  C   UNL     1       6.549   3.703  13.814  0.00  0.00    +0.000 C 
ATOM     18  C   UNL     1       5.401   3.724  12.824  0.00  0.00    +0.000 C 
ATOM     19  C   UNL     1       6.747   4.197  12.396  0.00  0.00    +0.000 C 
ENDBRANCH  14  17
ENDBRANCH  11  12
ENDBRANCH   1  11
TORSDOF 5
ENDMDL
MODEL 2
REMARK VINA RESULT:      -6.9      1.590      5.504
REMARK  Name = 
REMARK  5 active torsions:
REMARK  status: ('A' for Active; 'I' for Inactive)
REMARK    1  A    between atoms: C_2  and  C_14
REMARK    2  A    between atoms: N_3  and  C_4
REMARK    3  A    between atoms: C_4  and  C_5
REMARK    4  A    between atoms: C_5  and  C_6
REMARK    5  A    between atoms: C_8  and  C_9
REMARK                            x       y       z     vdW  Elec       q    Type
REMARK                         _______ _______ _______ _____ _____    ______ ____
ROOT
ATOM      1  C   UNL     1       7.861   4.876  18.448  0.00  0.00    +0.000 C 
ENDROOT
BRANCH   1   4
ATOM      2  O   UNL     1       7.601   6.562  16.240  0.00  0.00    +0.000 OA
ATOM      3  C   UNL     1       7.367   5.366  16.076  0.00  0.00    +0.000 C 
ATOM      4  N   UNL     1       7.475   4.459  17.112  0.00  0.00    +0.000 N 
ATOM      5  H   UNL     1       7.306   3.479  16.911  0.00  0.00    +0.000 HD
BRANCH   3   6
ATOM      6  C   UNL     1       6.976   4.810  14.808  0.00  0.00    +0.000 A 
ATOM      7  C   UNL     1       6.070   3.818  14.499  0.00  0.00    +0.000 A 
ATOM      8  N   UNL     1       6.028   3.620  13.142  0.00  0.00    +0.000 NA
ATOM      9  C   UNL     1       6.901   4.484  12.681  0.00  0.00    +0.000 A 
ATOM     10  O   UNL     1       7.520   5.251  13.627  0.00  0.00    +0.000 OA
ENDBRANCH   3   6
ENDBRANCH   1   4
BRANCH   1  11
ATOM     11  C   UNL     1       6.770   5.689  19.143  0.00  0.00    +0.000 C 
BRANCH  11  12
ATOM     12  C   UNL     1       5.493   4.941  19.149  0.00  0.00    +0.000 A 
ATOM     13  N   UNL     1       4.267   5.378  18.973  0.00  0.00    +0.000 NA
ATOM     14  C   UNL     1       3.529   4.234  19.153  0.00  0.00    +0.000 A 
ATOM     15  N   UNL     1       4.247   3.136  19.419  0.00  0.00    +0.000 NA
ATOM     16  O   UNL     1       5.562   3.604  19.413  0.00  0.00    +0.000 OA
BRANCH  14  17
ATOM     17  C   UNL     1       2.010   4.205  19.088  0.00  0.00    +0.000 C 
ATOM     18  C   UNL     1       1.353   4.127  17.723  0.00  0.00    +0.000 C 
ATOM     19  C   UNL     1       1.321   2.939  18.620  0.00  0.00    +0.000 C 
ENDBRANCH  14  17
ENDBRANCH  11  12
ENDBRANCH   1  11
TORSDOF 5
ENDMDL
MODEL 3
REMARK VINA RESULT:      -6.7      1.897      2.263
REMARK  Name = 
REMARK  5 active torsions:
REMARK  status: ('A' for Active; 'I' for Inactive)
REMARK    1  A    between atoms: C_2  and  C_14
REMARK    2  A    between atoms: N_3  and  C_4
REMARK    3  A    between atoms: C_4  and  C_5
REMARK    4  A    between atoms: C_5  and  C_6
REMARK    5  A    between atoms: C_8  and  C_9
REMARK                            x       y       z     vdW  Elec       q    Type
REMARK                         _______ _______ _______ _____ _____    ______ ____
ROOT
ATOM      1  C   UNL     1       5.284   5.402  17.595  0.00  0.00    +0.000 C 
ENDROOT
BRANCH   1   4
ATOM      2  O   UNL     1       3.012   3.793  17.409  0.00  0.00    +0.000 OA
ATOM      3  C   UNL     1       3.441   4.047  18.533  0.00  0.00    +0.000 C 
ATOM      4  N   UNL     1       4.562   4.831  18.719  0.00  0.00    +0.000 N 
ATOM      5  H   UNL     1       4.894   4.978  19.666  0.00  0.00    +0.000 HD
BRANCH   3   6
ATOM      6  C   UNL     1       2.830   3.549  19.737  0.00  0.00    +0.000 A 
ATOM      7  C   UNL     1       3.352   2.804  20.772  0.00  0.00    +0.000 A 
ATOM      8  N   UNL     1       2.386   2.560  21.715  0.00  0.00    +0.000 NA
ATOM      9  C   UNL     1       1.324   3.155  21.224  0.00  0.00    +0.000 A 
ATOM     10  O   UNL     1       1.509   3.785  20.026  0.00  0.00    +0.000 OA
ENDBRANCH   3   6
ENDBRANCH   1   4
BRANCH   1  11
ATOM     11  C   UNL     1       6.473   4.543  17.168  0.00  0.00    +0.000 C 
BRANCH  11  12
ATOM     12  C   UNL     1       6.673   4.630  15.704  0.00  0.00    +0.000 A 
ATOM     13  N   UNL     1       6.091   3.955  14.740  0.00  0.00    +0.000 NA
ATOM     14  C   UNL     1       6.737   4.435  13.627  0.00  0.00    +0.000 A 
ATOM     15  N   UNL     1       7.666   5.366  13.873  0.00  0.00    +0.000 NA
ATOM     16  O   UNL     1       7.624   5.503  15.261  0.00  0.00    +0.000 OA
BRANCH  14  17
ATOM     17  C   UNL     1       6.451   3.938  12.218  0.00  0.00    +0.000 C 
ATOM     18  C   UNL     1       6.307   2.444  12.002  0.00  0.00    +0.000 C 
ATOM     19  C   UNL     1       5.102   3.315  11.921  0.00  0.00    +0.000 C 
ENDBRANCH  14  17
ENDBRANCH  11  12
ENDBRANCH   1  11
TORSDOF 5
ENDMDL
MODEL 4
REMARK VINA RESULT:      -6.7      1.663      1.826
REMARK  Name = 
REMARK  5 active torsions:
REMARK  status: ('A' for Active; 'I' for Inactive)
REMARK    1  A    between atoms: C_2  and  C_14
REMARK    2  A    between atoms: N_3  and  C_4
REMARK    3  A    between atoms: C_4  and  C_5
REMARK    4  A    between atoms: C_5  and  C_6
REMARK    5  A    between atoms: C_8  and  C_9
REMARK                            x       y       z     vdW  Elec       q    Type
REMARK                         _______ _______ _______ _____ _____    ______ ____
ROOT
ATOM      1  C   UNL     1       4.380   6.736  17.320  0.00  0.00    +0.000 C 
ENDROOT
BRANCH   1   4
ATOM      2  O   UNL     1       3.688   5.794  19.854  0.00  0.00    +0.000 OA
ATOM      3  C   UNL     1       3.181   5.239  18.881  0.00  0.00    +0.000 C 
ATOM      4  N   UNL     1       3.463   5.643  17.590  0.00  0.00    +0.000 N 
ATOM      5  H   UNL     1       2.988   5.174  16.826  0.00  0.00    +0.000 HD
BRANCH   3   6
ATOM      6  C   UNL     1       2.255   4.144  18.996  0.00  0.00    +0.000 A 
ATOM      7  C   UNL     1       1.175   3.961  19.833  0.00  0.00    +0.000 A 
ATOM      8  N   UNL     1       0.582   2.749  19.583  0.00  0.00    +0.000 NA
ATOM      9  C   UNL     1       1.315   2.245  18.618  0.00  0.00    +0.000 A 
ATOM     10  O   UNL     1       2.351   3.031  18.200  0.00  0.00    +0.000 OA
ENDBRANCH   3   6
ENDBRANCH   1   4
BRANCH   1  11
ATOM     11  C   UNL     1       5.842   6.299  17.380  0.00  0.00    +0.000 C 
BRANCH  11  12
ATOM     12  C   UNL     1       6.231   5.621  16.123  0.00  0.00    +0.000 A 
ATOM     13  N   UNL     1       5.612   4.671  15.460  0.00  0.00    +0.000 NA
ATOM     14  C   UNL     1       6.487   4.425  14.431  0.00  0.00    +0.000 A 
ATOM     15  N   UNL     1       7.591   5.183  14.438  0.00  0.00    +0.000 NA
ATOM     16  O   UNL     1       7.421   5.987  15.565  0.00  0.00    +0.000 OA
BRANCH  14  17
ATOM     17  C   UNL     1       6.251   3.359  13.373  0.00  0.00    +0.000 C 
ATOM     18  C   UNL     1       5.234   3.643  12.284  0.00  0.00    +0.000 C 
ATOM     19  C   UNL     1       6.685   3.632  11.947  0.00  0.00    +0.000 C 
ENDBRANCH  14  17
ENDBRANCH  11  12
ENDBRANCH   1  11
TORSDOF 5
ENDMDL
MODEL 5
REMARK VINA RESULT:      -6.7      1.245      1.523
REMARK  Name = 
REMARK  5 active torsions:
REMARK  status: ('A' for Active; 'I' for Inactive)
REMARK    1  A    between atoms: C_2  and  C_14
REMARK    2  A    between atoms: N_3  and  C_4
REMARK    3  A    between atoms: C_4  and  C_5
REMARK    4  A    between atoms: C_5  and  C_6
REMARK    5  A    between atoms: C_8  and  C_9
REMARK                            x       y       z     vdW  Elec       q    Type
REMARK                         _______ _______ _______ _____ _____    ______ ____
ROOT
ATOM      1  C   UNL     1       6.029   5.421  17.651  0.00  0.00    +0.000 C 
ENDROOT
BRANCH   1   4
ATOM      2  O   UNL     1       5.252   3.508  19.527  0.00  0.00    +0.000 OA
ATOM      3  C   UNL     1       4.415   3.874  18.705  0.00  0.00    +0.000 C 
ATOM      4  N   UNL     1       4.710   4.820  17.743  0.00  0.00    +0.000 N 
ATOM      5  H   UNL     1       3.971   5.113  17.114  0.00  0.00    +0.000 HD
BRANCH   3   6
ATOM      6  C   UNL     1       3.068   3.367  18.677  0.00  0.00    +0.000 A 
ATOM      7  C   UNL     1       2.010   3.662  17.845  0.00  0.00    +0.000 A 
ATOM      8  N   UNL     1       0.908   2.925  18.199  0.00  0.00    +0.000 NA
ATOM      9  C   UNL     1       1.330   2.220  19.223  0.00  0.00    +0.000 A 
ATOM     10  O   UNL     1       2.633   2.425  19.576  0.00  0.00    +0.000 OA
ENDBRANCH   3   6
ENDBRANCH   1   4
BRANCH   1  11
ATOM     11  C   UNL     1       7.055   4.483  17.017  0.00  0.00    +0.000 C 
BRANCH  11  12
ATOM     12  C   UNL     1       7.035   4.615  15.543  0.00  0.00    +0.000 A 
ATOM     13  N   UNL     1       6.409   3.889  14.647  0.00  0.00    +0.000 NA
ATOM     14  C   UNL     1       6.829   4.462  13.472  0.00  0.00    +0.000 A 
ATOM     15  N   UNL     1       7.665   5.497  13.618  0.00  0.00    +0.000 NA
ATOM     16  O   UNL     1       7.802   5.606  15.002  0.00  0.00    +0.000 OA
BRANCH  14  17
ATOM     17  C   UNL     1       6.410   3.955  12.101  0.00  0.00    +0.000 C 
ATOM     18  C   UNL     1       6.892   2.584  11.666  0.00  0.00    +0.000 C 
ATOM     19  C   UNL     1       5.457   2.780  12.014  0.00  0.00    +0.000 C 
ENDBRANCH  14  17
ENDBRANCH  11  12
ENDBRANCH   1  11
TORSDOF 5
ENDMDL
MODEL 6
REMARK VINA RESULT:      -6.7      1.792      1.981
REMARK  Name = 
REMARK  5 active torsions:
REMARK  status: ('A' for Active; 'I' for Inactive)
REMARK    1  A    between atoms: C_2  and  C_14
REMARK    2  A    between atoms: N_3  and  C_4
REMARK    3  A    between atoms: C_4  and  C_5
REMARK    4  A    between atoms: C_5  and  C_6
REMARK    5  A    between atoms: C_8  and  C_9
REMARK                            x       y       z     vdW  Elec       q    Type
REMARK                         _______ _______ _______ _____ _____    ______ ____
ROOT
ATOM      1  C   UNL     1       5.529   5.736  18.562  0.00  0.00    +0.000 C 
ENDROOT
BRANCH   1   4
ATOM      2  O   UNL     1       4.521   3.142  18.356  0.00  0.00    +0.000 OA
ATOM      3  C   UNL     1       4.041   3.874  19.220  0.00  0.00    +0.000 C 
ATOM      4  N   UNL     1       4.483   5.171  19.396  0.00  0.00    +0.000 N 
ATOM      5  H   UNL     1       4.077   5.718  20.148  0.00  0.00    +0.000 HD
BRANCH   3   6
ATOM      6  C   UNL     1       2.999   3.450  20.118  0.00  0.00    +0.000 A 
ATOM      7  C   UNL     1       3.049   2.669  21.252  0.00  0.00    +0.000 A 
ATOM      8  N   UNL     1       1.794   2.528  21.787  0.00  0.00    +0.000 NA
ATOM      9  C   UNL     1       1.035   3.218  20.968  0.00  0.00    +0.000 A 
ATOM     10  O   UNL     1       1.690   3.814  19.927  0.00  0.00    +0.000 OA
ENDBRANCH   3   6
ENDBRANCH   1   4
BRANCH   1  11
ATOM     11  C   UNL     1       4.988   6.308  17.254  0.00  0.00    +0.000 C 
BRANCH  11  12
ATOM     12  C   UNL     1       5.647   5.665  16.095  0.00  0.00    +0.000 A 
ATOM     13  N   UNL     1       5.218   4.694  15.323  0.00  0.00    +0.000 NA
ATOM     14  C   UNL     1       6.289   4.503  14.484  0.00  0.00    +0.000 A 
ATOM     15  N   UNL     1       7.331   5.313  14.709  0.00  0.00    +0.000 NA
ATOM     16  O   UNL     1       6.904   6.095  15.783  0.00  0.00    +0.000 OA
BRANCH  14  17
ATOM     17  C   UNL     1       6.317   3.440  13.398  0.00  0.00    +0.000 C 
ATOM     18  C   UNL     1       5.362   3.584  12.229  0.00  0.00    +0.000 C 
ATOM     19  C   UNL     1       6.818   3.814  12.018  0.00  0.00    +0.000 C 
ENDBRANCH  14  17
ENDBRANCH  11  12
ENDBRANCH   1  11
TORSDOF 5
ENDMDL
MODEL 7
REMARK VINA RESULT:      -6.6      1.797      5.959
REMARK  Name = 
REMARK  5 active torsions:
REMARK  status: ('A' for Active; 'I' for Inactive)
REMARK    1  A    between atoms: C_2  and  C_14
REMARK    2  A    between atoms: N_3  and  C_4
REMARK    3  A    between atoms: C_4  and  C_5
REMARK    4  A    between atoms: C_5  and  C_6
REMARK    5  A    between atoms: C_8  and  C_9
REMARK                            x       y       z     vdW  Elec       q    Type
REMARK                         _______ _______ _______ _____ _____    ______ ____
ROOT
ATOM      1  C   UNL     1       6.544   4.655  18.505  0.00  0.00    +0.000 C 
ENDROOT
BRANCH   1   4
ATOM      2  O   UNL     1       7.565   6.304  16.500  0.00  0.00    +0.000 OA
ATOM      3  C   UNL     1       7.041   5.246  16.157  0.00  0.00    +0.000 C 
ATOM      4  N   UNL     1       6.513   4.367  17.082  0.00  0.00    +0.000 N 
ATOM      5  H   UNL     1       6.126   3.491  16.746  0.00  0.00    +0.000 HD
BRANCH   3   6
ATOM      6  C   UNL     1       6.940   4.829  14.783  0.00  0.00    +0.000 A 
ATOM      7  C   UNL     1       6.097   3.925  14.174  0.00  0.00    +0.000 A 
ATOM      8  N   UNL     1       6.370   3.851  12.832  0.00  0.00    +0.000 NA
ATOM      9  C   UNL     1       7.359   4.699  12.675  0.00  0.00    +0.000 A 
ATOM     10  O   UNL     1       7.764   5.341  13.812  0.00  0.00    +0.000 OA
ENDBRANCH   3   6
ENDBRANCH   1   4
BRANCH   1  11
ATOM     11  C   UNL     1       5.582   5.776  18.894  0.00  0.00    +0.000 C 
BRANCH  11  12
ATOM     12  C   UNL     1       4.181   5.300  18.832  0.00  0.00    +0.000 A 
ATOM     13  N   UNL     1       3.429   4.792  19.780  0.00  0.00    +0.000 NA
ATOM     14  C   UNL     1       2.275   4.494  19.098  0.00  0.00    +0.000 A 
ATOM     15  N   UNL     1       2.294   4.804  17.796  0.00  0.00    +0.000 NA
ATOM     16  O   UNL     1       3.567   5.348  17.615  0.00  0.00    +0.000 OA
BRANCH  14  17
ATOM     17  C   UNL     1       1.069   3.835  19.749  0.00  0.00    +0.000 C 
ATOM     18  C   UNL     1       1.012   2.320  19.784  0.00  0.00    +0.000 C 
ATOM     19  C   UNL     1       1.261   3.073  21.045  0.00  0.00    +0.000 C 
ENDBRANCH  14  17
ENDBRANCH  11  12
ENDBRANCH   1  11
TORSDOF 5
ENDMDL
MODEL 8
REMARK VINA RESULT:      -6.5      1.398      1.479
REMARK  Name = 
REMARK  5 active torsions:
REMARK  status: ('A' for Active; 'I' for Inactive)
REMARK    1  A    between atoms: C_2  and  C_14
REMARK    2  A    between atoms: N_3  and  C_4
REMARK    3  A    between atoms: C_4  and  C_5
REMARK    4  A    between atoms: C_5  and  C_6
REMARK    5  A    between atoms: C_8  and  C_9
REMARK                            x       y       z     vdW  Elec       q    Type
REMARK                         _______ _______ _______ _____ _____    ______ ____
ROOT
ATOM      1  C   UNL     1       7.149   4.656  18.106  0.00  0.00    +0.000 C 
ENDROOT
BRANCH   1   4
ATOM      2  O   UNL     1       5.033   5.459  19.738  0.00  0.00    +0.000 OA
ATOM      3  C   UNL     1       4.871   4.456  19.045  0.00  0.00    +0.000 C 
ATOM      4  N   UNL     1       5.863   3.990  18.204  0.00  0.00    +0.000 N 
ATOM      5  H   UNL     1       5.661   3.180  17.628  0.00  0.00    +0.000 HD
BRANCH   3   6
ATOM      6  C   UNL     1       3.649   3.696  19.039  0.00  0.00    +0.000 A 
ATOM      7  C   UNL     1       2.345   4.088  18.829  0.00  0.00    +0.000 A 
ATOM      8  N   UNL     1       1.504   3.007  18.921  0.00  0.00    +0.000 NA
ATOM      9  C   UNL     1       2.318   2.011  19.183  0.00  0.00    +0.000 A 
ATOM     10  O   UNL     1       3.640   2.343  19.268  0.00  0.00    +0.000 OA
ENDBRANCH   3   6
ENDBRANCH   1   4
BRANCH   1  11
ATOM     11  C   UNL     1       7.152   5.767  17.057  0.00  0.00    +0.000 C 
BRANCH  11  12
ATOM     12  C   UNL     1       6.896   5.208  15.711  0.00  0.00    +0.000 A 
ATOM     13  N   UNL     1       6.015   4.312  15.332  0.00  0.00    +0.000 NA
ATOM     14  C   UNL     1       6.309   4.170  13.998  0.00  0.00    +0.000 A 
ATOM     15  N   UNL     1       7.312   4.938  13.558  0.00  0.00    +0.000 NA
ATOM     16  O   UNL     1       7.705   5.638  14.700  0.00  0.00    +0.000 OA
BRANCH  14  17
ATOM     17  C   UNL     1       5.580   3.198  13.083  0.00  0.00    +0.000 C 
ATOM     18  C   UNL     1       4.900   3.752  11.846  0.00  0.00    +0.000 C 
ATOM     19  C   UNL     1       6.138   2.937  11.699  0.00  0.00    +0.000 C 
ENDBRANCH  14  17
ENDBRANCH  11  12
ENDBRANCH   1  11
TORSDOF 5
ENDMDL
MODEL 9
REMARK VINA RESULT:      -6.5      2.064      5.772
REMARK  Name = 
REMARK  5 active torsions:
REMARK  status: ('A' for Active; 'I' for Inactive)
REMARK    1  A    between atoms: C_2  and  C_14
REMARK    2  A    between atoms: N_3  and  C_4
REMARK    3  A    between atoms: C_4  and  C_5
REMARK    4  A    between atoms: C_5  and  C_6
REMARK    5  A    between atoms: C_8  and  C_9
REMARK                            x       y       z     vdW  Elec       q    Type
REMARK                         _______ _______ _______ _____ _____    ______ ____
ROOT
ATOM      1  C   UNL     1       5.738   6.806  17.101  0.00  0.00    +0.000 C 
ENDROOT
BRANCH   1   4
ATOM      2  O   UNL     1       7.510   4.763  16.416  0.00  0.00    +0.000 OA
ATOM      3  C   UNL     1       6.807   5.232  15.523  0.00  0.00    +0.000 C 
ATOM      4  N   UNL     1       5.899   6.242  15.772  0.00  0.00    +0.000 N 
ATOM      5  H   UNL     1       5.318   6.566  15.006  0.00  0.00    +0.000 HD
BRANCH   3   6
ATOM      6  C   UNL     1       6.858   4.771  14.160  0.00  0.00    +0.000 A 
ATOM      7  C   UNL     1       6.189   3.744  13.530  0.00  0.00    +0.000 A 
ATOM      8  N   UNL     1       6.561   3.674  12.211  0.00  0.00    +0.000 NA
ATOM      9  C   UNL     1       7.434   4.647  12.090  0.00  0.00    +0.000 A 
ATOM     10  O   UNL     1       7.670   5.366  13.227  0.00  0.00    +0.000 OA
ENDBRANCH   3   6
ENDBRANCH   1   4
BRANCH   1  11
ATOM     11  C   UNL     1       4.290   7.192  17.399  0.00  0.00    +0.000 C 
BRANCH  11  12
ATOM     12  C   UNL     1       3.515   6.004  17.821  0.00  0.00    +0.000 A 
ATOM     13  N   UNL     1       3.547   4.776  17.357  0.00  0.00    +0.000 NA
ATOM     14  C   UNL     1       2.570   4.164  18.103  0.00  0.00    +0.000 A 
ATOM     15  N   UNL     1       1.963   4.956  18.994  0.00  0.00    +0.000 NA
ATOM     16  O   UNL     1       2.595   6.187  18.812  0.00  0.00    +0.000 OA
BRANCH  14  17
ATOM     17  C   UNL     1       2.176   2.706  17.924  0.00  0.00    +0.000 C 
ATOM     18  C   UNL     1       3.067   1.643  18.536  0.00  0.00    +0.000 C 
ATOM     19  C   UNL     1       1.731   1.913  19.135  0.00  0.00    +0.000 C 
ENDBRANCH  14  17
ENDBRANCH  11  12
ENDBRANCH   1  11
TORSDOF 5
ENDMDL
