MODEL 1
REMARK VINA RESULT:      -8.1      0.000      0.000
REMARK  Name = 
REMARK  6 active torsions:
REMARK  status: ('A' for Active; 'I' for Inactive)
REMARK    1  A    between atoms: C_1  and  C_2
REMARK    2  A    between atoms: C_2  and  C_3
REMARK    3  A    between atoms: C_3  and  C_4
REMARK    4  A    between atoms: C_9  and  C_10
REMARK    5  A    between atoms: N_14  and  N_15
REMARK    6  A    between atoms: C_16  and  C_18
REMARK                            x       y       z     vdW  Elec       q    Type
REMARK                         _______ _______ _______ _____ _____    ______ ____
ROOT
ATOM      1  C   UNL     1       7.941   6.304  18.973  0.00  0.00    +0.000 C 
ATOM      2  C   UNL     1       7.398   6.952  17.718  0.00  0.00    +0.000 C 
ATOM      3  N   UNL     1       7.645   8.180  17.370  0.00  0.00    +0.000 NA
ENDROOT
BRANCH   3   4
ATOM      4  N   UNL     1       8.514   8.899  18.135  0.00  0.00    +0.000 N 
ATOM      5  C   UNL     1       8.535  10.282  18.050  0.00  0.00    +0.000 C 
ATOM      6  O   UNL     1       7.769  10.976  17.397  0.00  0.00    +0.000 OA
ATOM      7  H   UNL     1       9.297   8.418  18.554  0.00  0.00    +0.000 HD
BRANCH   5   8
ATOM      8  C   UNL     1       9.639  10.932  18.818  0.00  0.00    +0.000 A 
ATOM      9  C   UNL     1       9.427  11.225  20.166  0.00  0.00    +0.000 A 
ATOM     10  C   UNL     1      10.446  11.847  20.861  0.00  0.00    +0.000 A 
ATOM     11  N   UNL     1      11.634  12.182  20.310  0.00  0.00    +0.000 NA
ATOM     12  C   UNL     1      11.823  11.865  19.013  0.00  0.00    +0.000 A 
ATOM     13  C   UNL     1      10.870  11.241  18.231  0.00  0.00    +0.000 A 
ENDBRANCH   5   8
ENDBRANCH   3   4
BRANCH   2  14
ATOM     14  C   UNL     1       6.582   6.104  16.780  0.00  0.00    +0.000 C 
BRANCH  14  15
ATOM     15  C   UNL     1       5.369   5.451  17.382  0.00  0.00    +0.000 C 
ATOM     16  O   UNL     1       4.305   6.069  17.421  0.00  0.00    +0.000 OA
ATOM     17  N   UNL     1       5.574   4.198  17.921  0.00  0.00    +0.000 N 
ATOM     18  C   UNL     1       4.556   3.517  18.604  0.00  0.00    +0.000 A 
ATOM     19  C   UNL     1       3.235   3.546  18.166  0.00  0.00    +0.000 A 
ATOM     20  C   UNL     1       2.238   2.978  18.960  0.00  0.00    +0.000 A 
ATOM     21  C   UNL     1       0.800   3.023  18.543  0.00  0.00    +0.000 C 
ATOM     22  C   UNL     1       2.613   2.408  20.175  0.00  0.00    +0.000 A 
ATOM     23  C   UNL     1       3.961   2.372  20.500  0.00  0.00    +0.000 A 
ATOM     24  N   UNL     1       4.945   2.879  19.724  0.00  0.00    +0.000 NA
ATOM     25  H   UNL     1       6.502   3.967  18.257  0.00  0.00    +0.000 HD
ENDBRANCH  14  15
ENDBRANCH   2  14
TORSDOF 4
ENDMDL
MODEL 2
REMARK VINA RESULT:      -8.1      4.723      7.326
REMARK  Name = 
REMARK  6 active torsions:
REMARK  status: ('A' for Active; 'I' for Inactive)
REMARK    1  A    between atoms: C_1  and  C_2
REMARK    2  A    between atoms: C_2  and  C_3
REMARK    3  A    between atoms: C_3  and  C_4
REMARK    4  A    between atoms: C_9  and  C_10
REMARK    5  A    between atoms: N_14  and  N_15
REMARK    6  A    between atoms: C_16  and  C_18
REMARK                            x       y       z     vdW  Elec       q    Type
REMARK                         _______ _______ _______ _____ _____    ______ ____
ROOT
ATOM      1  C   UNL     1       0.820   3.996  20.320  0.00  0.00    +0.000 C 
ATOM      2  C   UNL     1       2.284   4.322  20.116  0.00  0.00    +0.000 C 
ATOM      3  N   UNL     1       2.791   5.509  20.269  0.00  0.00    +0.000 NA
ENDROOT
BRANCH   3   4
ATOM      4  N   UNL     1       1.974   6.500  20.724  0.00  0.00    +0.000 N 
ATOM      5  C   UNL     1       1.854   7.684  20.013  0.00  0.00    +0.000 C 
ATOM      6  O   UNL     1       2.359   7.926  18.926  0.00  0.00    +0.000 OA
ATOM      7  H   UNL     1       1.670   6.470  21.687  0.00  0.00    +0.000 HD
BRANCH   5   8
ATOM      8  C   UNL     1       1.055   8.741  20.703  0.00  0.00    +0.000 A 
ATOM      9  C   UNL     1       0.978   8.712  22.096  0.00  0.00    +0.000 A 
ATOM     10  C   UNL     1       0.218   9.680  22.723  0.00  0.00    +0.000 A 
ATOM     11  N   UNL     1      -0.449  10.652  22.064  0.00  0.00    +0.000 NA
ATOM     12  C   UNL     1      -0.337  10.674  20.720  0.00  0.00    +0.000 A 
ATOM     13  C   UNL     1       0.399   9.754  19.998  0.00  0.00    +0.000 A 
ENDBRANCH   5   8
ENDBRANCH   3   4
BRANCH   2  14
ATOM     14  C   UNL     1       3.221   3.192  19.787  0.00  0.00    +0.000 C 
BRANCH  14  15
ATOM     15  C   UNL     1       3.919   3.292  18.459  0.00  0.00    +0.000 C 
ATOM     16  O   UNL     1       3.923   2.321  17.702  0.00  0.00    +0.000 OA
ATOM     17  N   UNL     1       4.578   4.480  18.222  0.00  0.00    +0.000 N 
ATOM     18  C   UNL     1       5.354   4.671  17.070  0.00  0.00    +0.000 A 
ATOM     19  C   UNL     1       4.951   4.190  15.827  0.00  0.00    +0.000 A 
ATOM     20  C   UNL     1       5.825   4.275  14.743  0.00  0.00    +0.000 A 
ATOM     21  C   UNL     1       5.444   3.733  13.400  0.00  0.00    +0.000 C 
ATOM     22  C   UNL     1       7.082   4.838  14.957  0.00  0.00    +0.000 A 
ATOM     23  C   UNL     1       7.373   5.345  16.214  0.00  0.00    +0.000 A 
ATOM     24  N   UNL     1       6.522   5.310  17.266  0.00  0.00    +0.000 NA
ATOM     25  H   UNL     1       4.911   5.011  19.018  0.00  0.00    +0.000 HD
ENDBRANCH  14  15
ENDBRANCH   2  14
TORSDOF 4
ENDMDL
MODEL 3
REMARK VINA RESULT:      -7.9      5.352      7.328
REMARK  Name = 
REMARK  6 active torsions:
REMARK  status: ('A' for Active; 'I' for Inactive)
REMARK    1  A    between atoms: C_1  and  C_2
REMARK    2  A    between atoms: C_2  and  C_3
REMARK    3  A    between atoms: C_3  and  C_4
REMARK    4  A    between atoms: C_9  and  C_10
REMARK    5  A    between atoms: N_14  and  N_15
REMARK    6  A    between atoms: C_16  and  C_18
REMARK                            x       y       z     vdW  Elec       q    Type
REMARK                         _______ _______ _______ _____ _____    ______ ____
ROOT
ATOM      1  C   UNL     1       2.725   2.758  17.420  0.00  0.00    +0.000 C 
ATOM      2  C   UNL     1       3.653   3.435  18.406  0.00  0.00    +0.000 C 
ATOM      3  N   UNL     1       4.860   3.823  18.118  0.00  0.00    +0.000 NA
ENDROOT
BRANCH   3   4
ATOM      4  N   UNL     1       5.284   3.689  16.830  0.00  0.00    +0.000 N 
ATOM      5  C   UNL     1       6.156   4.618  16.285  0.00  0.00    +0.000 C 
ATOM      6  O   UNL     1       6.684   5.547  16.880  0.00  0.00    +0.000 OA
ATOM      7  H   UNL     1       4.768   3.076  16.214  0.00  0.00    +0.000 HD
BRANCH   5   8
ATOM      8  C   UNL     1       6.412   4.443  14.823  0.00  0.00    +0.000 A 
ATOM      9  C   UNL     1       7.477   5.137  14.248  0.00  0.00    +0.000 A 
ATOM     10  C   UNL     1       7.690   4.987  12.892  0.00  0.00    +0.000 A 
ATOM     11  N   UNL     1       6.929   4.205  12.095  0.00  0.00    +0.000 NA
ATOM     12  C   UNL     1       5.921   3.526  12.680  0.00  0.00    +0.000 A 
ATOM     13  C   UNL     1       5.626   3.605  14.027  0.00  0.00    +0.000 A 
ENDBRANCH   5   8
ENDBRANCH   3   4
BRANCH   2  14
ATOM     14  C   UNL     1       3.122   3.744  19.779  0.00  0.00    +0.000 C 
BRANCH  14  15
ATOM     15  C   UNL     1       2.414   5.063  19.922  0.00  0.00    +0.000 C 
ATOM     16  O   UNL     1       1.365   5.122  20.564  0.00  0.00    +0.000 OA
ATOM     17  N   UNL     1       2.982   6.119  19.240  0.00  0.00    +0.000 N 
ATOM     18  C   UNL     1       2.371   7.381  19.202  0.00  0.00    +0.000 A 
ATOM     19  C   UNL     1       1.745   7.926  20.319  0.00  0.00    +0.000 A 
ATOM     20  C   UNL     1       1.025   9.114  20.190  0.00  0.00    +0.000 A 
ATOM     21  C   UNL     1       0.304   9.711  21.360  0.00  0.00    +0.000 C 
ATOM     22  C   UNL     1       0.958   9.706  18.930  0.00  0.00    +0.000 A 
ATOM     23  C   UNL     1       1.664   9.123  17.888  0.00  0.00    +0.000 A 
ATOM     24  N   UNL     1       2.401   7.995  18.004  0.00  0.00    +0.000 NA
ATOM     25  H   UNL     1       3.527   5.916  18.410  0.00  0.00    +0.000 HD
ENDBRANCH  14  15
ENDBRANCH   2  14
TORSDOF 4
ENDMDL
MODEL 4
REMARK VINA RESULT:      -7.9      5.366      7.293
REMARK  Name = 
REMARK  6 active torsions:
REMARK  status: ('A' for Active; 'I' for Inactive)
REMARK    1  A    between atoms: C_1  and  C_2
REMARK    2  A    between atoms: C_2  and  C_3
REMARK    3  A    between atoms: C_3  and  C_4
REMARK    4  A    between atoms: C_9  and  C_10
REMARK    5  A    between atoms: N_14  and  N_15
REMARK    6  A    between atoms: C_16  and  C_18
REMARK                            x       y       z     vdW  Elec       q    Type
REMARK                         _______ _______ _______ _____ _____    ______ ____
ROOT
ATOM      1  C   UNL     1       2.785   2.728  17.234  0.00  0.00    +0.000 C 
ATOM      2  C   UNL     1       3.552   3.321  18.396  0.00  0.00    +0.000 C 
ATOM      3  N   UNL     1       4.785   3.724  18.322  0.00  0.00    +0.000 NA
ENDROOT
BRANCH   3   4
ATOM      4  N   UNL     1       5.396   3.690  17.105  0.00  0.00    +0.000 N 
ATOM      5  C   UNL     1       5.408   4.819  16.301  0.00  0.00    +0.000 C 
ATOM      6  O   UNL     1       4.985   5.925  16.605  0.00  0.00    +0.000 OA
ATOM      7  H   UNL     1       5.604   2.791  16.695  0.00  0.00    +0.000 HD
BRANCH   5   8
ATOM      8  C   UNL     1       5.967   4.599  14.933  0.00  0.00    +0.000 A 
ATOM      9  C   UNL     1       5.277   3.753  14.063  0.00  0.00    +0.000 A 
ATOM     10  C   UNL     1       5.815   3.537  12.809  0.00  0.00    +0.000 A 
ATOM     11  N   UNL     1       6.965   4.101  12.379  0.00  0.00    +0.000 NA
ATOM     12  C   UNL     1       7.599   4.933  13.230  0.00  0.00    +0.000 A 
ATOM     13  C   UNL     1       7.145   5.217  14.503  0.00  0.00    +0.000 A 
ENDBRANCH   5   8
ENDBRANCH   3   4
BRANCH   2  14
ATOM     14  C   UNL     1       2.821   3.523  19.696  0.00  0.00    +0.000 C 
BRANCH  14  15
ATOM     15  C   UNL     1       2.217   4.885  19.897  0.00  0.00    +0.000 C 
ATOM     16  O   UNL     1       1.204   5.003  20.586  0.00  0.00    +0.000 OA
ATOM     17  N   UNL     1       2.830   5.914  19.214  0.00  0.00    +0.000 N 
ATOM     18  C   UNL     1       2.312   7.217  19.229  0.00  0.00    +0.000 A 
ATOM     19  C   UNL     1       1.774   7.778  20.385  0.00  0.00    +0.000 A 
ATOM     20  C   UNL     1       1.138   9.017  20.313  0.00  0.00    +0.000 A 
ATOM     21  C   UNL     1       0.513   9.635  21.526  0.00  0.00    +0.000 C 
ATOM     22  C   UNL     1       1.060   9.643  19.070  0.00  0.00    +0.000 A 
ATOM     23  C   UNL     1       1.677   9.037  17.986  0.00  0.00    +0.000 A 
ATOM     24  N   UNL     1       2.335   7.857  18.045  0.00  0.00    +0.000 NA
ATOM     25  H   UNL     1       3.324   5.693  18.357  0.00  0.00    +0.000 HD
ENDBRANCH  14  15
ENDBRANCH   2  14
TORSDOF 4
ENDMDL
MODEL 5
REMARK VINA RESULT:      -7.8      0.960      1.391
REMARK  Name = 
REMARK  6 active torsions:
REMARK  status: ('A' for Active; 'I' for Inactive)
REMARK    1  A    between atoms: C_1  and  C_2
REMARK    2  A    between atoms: C_2  and  C_3
REMARK    3  A    between atoms: C_3  and  C_4
REMARK    4  A    between atoms: C_9  and  C_10
REMARK    5  A    between atoms: N_14  and  N_15
REMARK    6  A    between atoms: C_16  and  C_18
REMARK                            x       y       z     vdW  Elec       q    Type
REMARK                         _______ _______ _______ _____ _____    ______ ____
ROOT
ATOM      1  C   UNL     1       8.223   5.711  19.995  0.00  0.00    +0.000 C 
ATOM      2  C   UNL     1       7.702   5.996  18.603  0.00  0.00    +0.000 C 
ATOM      3  N   UNL     1       7.817   7.145  18.006  0.00  0.00    +0.000 NA
ENDROOT
BRANCH   3   4
ATOM      4  N   UNL     1       8.524   8.125  18.637  0.00  0.00    +0.000 N 
ATOM      5  C   UNL     1       8.391   9.445  18.236  0.00  0.00    +0.000 C 
ATOM      6  O   UNL     1       7.613   9.869  17.394  0.00  0.00    +0.000 OA
ATOM      7  H   UNL     1       9.316   7.859  19.204  0.00  0.00    +0.000 HD
BRANCH   5   8
ATOM      8  C   UNL     1       9.339  10.391  18.900  0.00  0.00    +0.000 A 
ATOM      9  C   UNL     1      10.306  11.021  18.116  0.00  0.00    +0.000 A 
ATOM     10  C   UNL     1      11.192  11.875  18.743  0.00  0.00    +0.000 A 
ATOM     11  N   UNL     1      11.171  12.136  20.069  0.00  0.00    +0.000 NA
ATOM     12  C   UNL     1      10.210  11.534  20.800  0.00  0.00    +0.000 A 
ATOM     13  C   UNL     1       9.276  10.666  20.269  0.00  0.00    +0.000 A 
ENDBRANCH   5   8
ENDBRANCH   3   4
BRANCH   2  14
ATOM     14  C   UNL     1       7.078   4.862  17.836  0.00  0.00    +0.000 C 
BRANCH  14  15
ATOM     15  C   UNL     1       5.661   4.527  18.207  0.00  0.00    +0.000 C 
ATOM     16  O   UNL     1       4.752   5.291  17.882  0.00  0.00    +0.000 OA
ATOM     17  N   UNL     1       5.500   3.388  18.968  0.00  0.00    +0.000 N 
ATOM     18  C   UNL     1       4.245   3.013  19.470  0.00  0.00    +0.000 A 
ATOM     19  C   UNL     1       3.083   3.150  18.716  0.00  0.00    +0.000 A 
ATOM     20  C   UNL     1       1.846   2.903  19.312  0.00  0.00    +0.000 A 
ATOM     21  C   UNL     1       0.571   3.079  18.545  0.00  0.00    +0.000 C 
ATOM     22  C   UNL     1       1.828   2.534  20.656  0.00  0.00    +0.000 A 
ATOM     23  C   UNL     1       3.039   2.363  21.310  0.00  0.00    +0.000 A 
ATOM     24  N   UNL     1       4.248   2.557  20.737  0.00  0.00    +0.000 NA
ATOM     25  H   UNL     1       6.268   3.092  19.558  0.00  0.00    +0.000 HD
ENDBRANCH  14  15
ENDBRANCH   2  14
TORSDOF 4
ENDMDL
MODEL 6
REMARK VINA RESULT:      -7.6      1.165      1.810
REMARK  Name = 
REMARK  6 active torsions:
REMARK  status: ('A' for Active; 'I' for Inactive)
REMARK    1  A    between atoms: C_1  and  C_2
REMARK    2  A    between atoms: C_2  and  C_3
REMARK    3  A    between atoms: C_3  and  C_4
REMARK    4  A    between atoms: C_9  and  C_10
REMARK    5  A    between atoms: N_14  and  N_15
REMARK    6  A    between atoms: C_16  and  C_18
REMARK                            x       y       z     vdW  Elec       q    Type
REMARK                         _______ _______ _______ _____ _____    ______ ____
ROOT
ATOM      1  C   UNL     1       8.196   6.313  19.191  0.00  0.00    +0.000 C 
ATOM      2  C   UNL     1       7.453   6.899  18.010  0.00  0.00    +0.000 C 
ATOM      3  N   UNL     1       7.595   8.123  17.597  0.00  0.00    +0.000 NA
ENDROOT
BRANCH   3   4
ATOM      4  N   UNL     1       8.532   8.899  18.211  0.00  0.00    +0.000 N 
ATOM      5  C   UNL     1       8.540  10.271  18.008  0.00  0.00    +0.000 C 
ATOM      6  O   UNL     1       7.711  10.911  17.377  0.00  0.00    +0.000 OA
ATOM      7  H   UNL     1       9.354   8.452  18.591  0.00  0.00    +0.000 HD
BRANCH   5   8
ATOM      8  C   UNL     1       9.712  10.977  18.607  0.00  0.00    +0.000 A 
ATOM      9  C   UNL     1      10.692  11.481  17.751  0.00  0.00    +0.000 A 
ATOM     10  C   UNL     1      11.783  12.112  18.316  0.00  0.00    +0.000 A 
ATOM     11  N   UNL     1      11.951  12.271  19.647  0.00  0.00    +0.000 NA
ATOM     12  C   UNL     1      10.977  11.798  20.452  0.00  0.00    +0.000 A 
ATOM     13  C   UNL     1       9.846  11.154  19.988  0.00  0.00    +0.000 A 
ENDBRANCH   5   8
ENDBRANCH   3   4
BRANCH   2  14
ATOM     14  C   UNL     1       6.549   5.989  17.222  0.00  0.00    +0.000 C 
BRANCH  14  15
ATOM     15  C   UNL     1       5.636   5.115  18.035  0.00  0.00    +0.000 C 
ATOM     16  O   UNL     1       6.069   4.559  19.044  0.00  0.00    +0.000 OA
ATOM     17  N   UNL     1       4.364   4.949  17.527  0.00  0.00    +0.000 N 
ATOM     18  C   UNL     1       3.442   4.080  18.128  0.00  0.00    +0.000 A 
ATOM     19  C   UNL     1       3.330   3.974  19.512  0.00  0.00    +0.000 A 
ATOM     20  C   UNL     1       2.505   2.990  20.058  0.00  0.00    +0.000 A 
ATOM     21  C   UNL     1       2.389   2.818  21.542  0.00  0.00    +0.000 C 
ATOM     22  C   UNL     1       1.828   2.141  19.185  0.00  0.00    +0.000 A 
ATOM     23  C   UNL     1       1.954   2.361  17.821  0.00  0.00    +0.000 A 
ATOM     24  N   UNL     1       2.715   3.336  17.273  0.00  0.00    +0.000 NA
ATOM     25  H   UNL     1       4.232   5.038  16.527  0.00  0.00    +0.000 HD
ENDBRANCH  14  15
ENDBRANCH   2  14
TORSDOF 4
ENDMDL
MODEL 7
REMARK VINA RESULT:      -7.4      6.648      9.613
REMARK  Name = 
REMARK  6 active torsions:
REMARK  status: ('A' for Active; 'I' for Inactive)
REMARK    1  A    between atoms: C_1  and  C_2
REMARK    2  A    between atoms: C_2  and  C_3
REMARK    3  A    between atoms: C_3  and  C_4
REMARK    4  A    between atoms: C_9  and  C_10
REMARK    5  A    between atoms: N_14  and  N_15
REMARK    6  A    between atoms: C_16  and  C_18
REMARK                            x       y       z     vdW  Elec       q    Type
REMARK                         _______ _______ _______ _____ _____    ______ ____
ROOT
ATOM      1  C   UNL     1       1.441   8.207  20.648  0.00  0.00    +0.000 C 
ATOM      2  C   UNL     1       1.675   8.680  19.230  0.00  0.00    +0.000 C 
ATOM      3  N   UNL     1       2.133   7.923  18.277  0.00  0.00    +0.000 NA
ENDROOT
BRANCH   3   4
ATOM      4  N   UNL     1       2.332   6.603  18.551  0.00  0.00    +0.000 N 
ATOM      5  C   UNL     1       3.328   5.899  17.892  0.00  0.00    +0.000 C 
ATOM      6  O   UNL     1       4.146   6.366  17.113  0.00  0.00    +0.000 OA
ATOM      7  H   UNL     1       1.602   6.094  19.029  0.00  0.00    +0.000 HD
BRANCH   5   8
ATOM      8  C   UNL     1       3.332   4.430  18.167  0.00  0.00    +0.000 A 
ATOM      9  C   UNL     1       4.121   3.954  19.215  0.00  0.00    +0.000 A 
ATOM     10  C   UNL     1       4.136   2.592  19.445  0.00  0.00    +0.000 A 
ATOM     11  N   UNL     1       3.428   1.700  18.718  0.00  0.00    +0.000 NA
ATOM     12  C   UNL     1       2.654   2.189  17.728  0.00  0.00    +0.000 A 
ATOM     13  C   UNL     1       2.567   3.533  17.417  0.00  0.00    +0.000 A 
ENDBRANCH   5   8
ENDBRANCH   3   4
BRANCH   2  14
ATOM     14  C   UNL     1       1.287  10.092  18.882  0.00  0.00    +0.000 C 
BRANCH  14  15
ATOM     15  C   UNL     1      -0.190  10.368  18.834  0.00  0.00    +0.000 C 
ATOM     16  O   UNL     1      -0.899  10.043  19.786  0.00  0.00    +0.000 OA
ATOM     17  N   UNL     1      -0.653  10.919  17.657  0.00  0.00    +0.000 N 
ATOM     18  C   UNL     1      -2.022  11.133  17.437  0.00  0.00    +0.000 A 
ATOM     19  C   UNL     1      -2.863  11.595  18.446  0.00  0.00    +0.000 A 
ATOM     20  C   UNL     1      -4.238  11.650  18.219  0.00  0.00    +0.000 A 
ATOM     21  C   UNL     1      -5.180  12.103  19.293  0.00  0.00    +0.000 C 
ATOM     22  C   UNL     1      -4.716  11.227  16.981  0.00  0.00    +0.000 A 
ATOM     23  C   UNL     1      -3.798  10.840  16.016  0.00  0.00    +0.000 A 
ATOM     24  N   UNL     1      -2.459  10.820  16.203  0.00  0.00    +0.000 NA
ATOM     25  H   UNL     1      -0.138  10.733  16.805  0.00  0.00    +0.000 HD
ENDBRANCH  14  15
ENDBRANCH   2  14
TORSDOF 4
ENDMDL
MODEL 8
REMARK VINA RESULT:      -7.4      6.809      9.888
REMARK  Name = 
REMARK  6 active torsions:
REMARK  status: ('A' for Active; 'I' for Inactive)
REMARK    1  A    between atoms: C_1  and  C_2
REMARK    2  A    between atoms: C_2  and  C_3
REMARK    3  A    between atoms: C_3  and  C_4
REMARK    4  A    between atoms: C_9  and  C_10
REMARK    5  A    between atoms: N_14  and  N_15
REMARK    6  A    between atoms: C_16  and  C_18
REMARK                            x       y       z     vdW  Elec       q    Type
REMARK                         _______ _______ _______ _____ _____    ______ ____
ROOT
ATOM      1  C   UNL     1      -0.184   8.348  21.666  0.00  0.00    +0.000 C 
ATOM      2  C   UNL     1       0.781   9.045  20.731  0.00  0.00    +0.000 C 
ATOM      3  N   UNL     1       1.843   8.484  20.234  0.00  0.00    +0.000 NA
ENDROOT
BRANCH   3   4
ATOM      4  N   UNL     1       2.054   7.165  20.502  0.00  0.00    +0.000 N 
ATOM      5  C   UNL     1       2.289   6.274  19.466  0.00  0.00    +0.000 C 
ATOM      6  O   UNL     1       2.418   6.561  18.284  0.00  0.00    +0.000 OA
ATOM      7  H   UNL     1       1.785   6.808  21.407  0.00  0.00    +0.000 HD
BRANCH   5   8
ATOM      8  C   UNL     1       2.343   4.841  19.883  0.00  0.00    +0.000 A 
ATOM      9  C   UNL     1       2.580   3.873  18.906  0.00  0.00    +0.000 A 
ATOM     10  C   UNL     1       2.604   2.549  19.298  0.00  0.00    +0.000 A 
ATOM     11  N   UNL     1       2.416   2.142  20.573  0.00  0.00    +0.000 NA
ATOM     12  C   UNL     1       2.214   3.098  21.502  0.00  0.00    +0.000 A 
ATOM     13  C   UNL     1       2.174   4.448  21.214  0.00  0.00    +0.000 A 
ENDBRANCH   5   8
ENDBRANCH   3   4
BRANCH   2  14
ATOM     14  C   UNL     1       0.453  10.447  20.293  0.00  0.00    +0.000 C 
BRANCH  14  15
ATOM     15  C   UNL     1      -0.371  10.561  19.042  0.00  0.00    +0.000 C 
ATOM     16  O   UNL     1       0.182  10.814  17.972  0.00  0.00    +0.000 OA
ATOM     17  N   UNL     1      -1.734  10.438  19.215  0.00  0.00    +0.000 N 
ATOM     18  C   UNL     1      -2.629  10.624  18.151  0.00  0.00    +0.000 A 
ATOM     19  C   UNL     1      -2.351  10.155  16.869  0.00  0.00    +0.000 A 
ATOM     20  C   UNL     1      -3.201  10.495  15.817  0.00  0.00    +0.000 A 
ATOM     21  C   UNL     1      -2.914  10.043  14.417  0.00  0.00    +0.000 C 
ATOM     22  C   UNL     1      -4.300  11.305  16.096  0.00  0.00    +0.000 A 
ATOM     23  C   UNL     1      -4.530  11.674  17.413  0.00  0.00    +0.000 A 
ATOM     24  N   UNL     1      -3.741  11.319  18.453  0.00  0.00    +0.000 NA
ATOM     25  H   UNL     1      -2.129  10.689  20.114  0.00  0.00    +0.000 HD
ENDBRANCH  14  15
ENDBRANCH   2  14
TORSDOF 4
ENDMDL
MODEL 9
REMARK VINA RESULT:      -7.4      6.612      7.928
REMARK  Name = 
REMARK  6 active torsions:
REMARK  status: ('A' for Active; 'I' for Inactive)
REMARK    1  A    between atoms: C_1  and  C_2
REMARK    2  A    between atoms: C_2  and  C_3
REMARK    3  A    between atoms: C_3  and  C_4
REMARK    4  A    between atoms: C_9  and  C_10
REMARK    5  A    between atoms: N_14  and  N_15
REMARK    6  A    between atoms: C_16  and  C_18
REMARK                            x       y       z     vdW  Elec       q    Type
REMARK                         _______ _______ _______ _____ _____    ______ ____
ROOT
ATOM      1  C   UNL     1       1.961  10.556  17.840  0.00  0.00    +0.000 C 
ATOM      2  C   UNL     1       1.926   9.204  18.520  0.00  0.00    +0.000 C 
ATOM      3  N   UNL     1       1.165   8.922  19.536  0.00  0.00    +0.000 NA
ENDROOT
BRANCH   3   4
ATOM      4  N   UNL     1       0.284   9.872  19.958  0.00  0.00    +0.000 N 
ATOM      5  C   UNL     1       0.338  10.340  21.261  0.00  0.00    +0.000 C 
ATOM      6  O   UNL     1       1.180  10.046  22.099  0.00  0.00    +0.000 OA
ATOM      7  H   UNL     1      -0.548  10.035  19.410  0.00  0.00    +0.000 HD
BRANCH   5   8
ATOM      8  C   UNL     1      -0.781  11.256  21.636  0.00  0.00    +0.000 A 
ATOM      9  C   UNL     1      -1.300  11.175  22.929  0.00  0.00    +0.000 A 
ATOM     10  C   UNL     1      -2.350  12.010  23.258  0.00  0.00    +0.000 A 
ATOM     11  N   UNL     1      -2.897  12.900  22.402  0.00  0.00    +0.000 NA
ATOM     12  C   UNL     1      -2.360  12.977  21.167  0.00  0.00    +0.000 A 
ATOM     13  C   UNL     1      -1.309  12.189  20.739  0.00  0.00    +0.000 A 
ENDBRANCH   5   8
ENDBRANCH   3   4
BRANCH   2  14
ATOM     14  C   UNL     1       2.769   8.100  17.942  0.00  0.00    +0.000 C 
BRANCH  14  15
ATOM     15  C   UNL     1       2.646   6.765  18.622  0.00  0.00    +0.000 C 
ATOM     16  O   UNL     1       3.192   6.587  19.711  0.00  0.00    +0.000 OA
ATOM     17  N   UNL     1       1.968   5.796  17.912  0.00  0.00    +0.000 N 
ATOM     18  C   UNL     1       1.866   4.479  18.380  0.00  0.00    +0.000 A 
ATOM     19  C   UNL     1       1.662   4.194  19.728  0.00  0.00    +0.000 A 
ATOM     20  C   UNL     1       1.717   2.870  20.164  0.00  0.00    +0.000 A 
ATOM     21  C   UNL     1       1.541   2.527  21.612  0.00  0.00    +0.000 C 
ATOM     22  C   UNL     1       1.987   1.879  19.222  0.00  0.00    +0.000 A 
ATOM     23  C   UNL     1       2.117   2.251  17.892  0.00  0.00    +0.000 A 
ATOM     24  N   UNL     1       2.024   3.524  17.444  0.00  0.00    +0.000 NA
ATOM     25  H   UNL     1       1.961   5.860  16.900  0.00  0.00    +0.000 HD
ENDBRANCH  14  15
ENDBRANCH   2  14
TORSDOF 4
ENDMDL
