MODEL 1
REMARK VINA RESULT:      -7.6      0.000      0.000
REMARK  Name = 
REMARK  7 active torsions:
REMARK  status: ('A' for Active; 'I' for Inactive)
REMARK    1  A    between atoms: C_1  and  C_2
REMARK    2  A    between atoms: C_2  and  C_3
REMARK    3  A    between atoms: C_2  and  C_4
REMARK    4  A    between atoms: C_2  and  C_5
REMARK    5  A    between atoms: C_7  and  N_8
REMARK    6  A    between atoms: N_11  and  C_12
REMARK    7  A    between atoms: C_19  and  C_20
REMARK                            x       y       z     vdW  Elec       q    Type
REMARK                         _______ _______ _______ _____ _____    ______ ____
ROOT
ATOM      1  C   UNL     1      -1.655  10.833  18.131  0.00  0.00    +0.000 A 
ATOM      2  C   UNL     1      -0.696   9.845  18.071  0.00  0.00    +0.000 A 
ATOM      3  C   UNL     1       0.348   9.968  19.040  0.00  0.00    +0.000 A 
ATOM      4  C   UNL     1       0.297  11.218  19.639  0.00  0.00    +0.000 A 
ATOM      5  S   UNL     1      -1.227  11.968  19.330  0.00  0.00    +0.000 S 
ENDROOT
BRANCH   4   6
ATOM      6  C   UNL     1       1.252  11.865  20.539  0.00  0.00    +0.000 C 
ATOM      7  O   UNL     1       1.422  11.458  21.690  0.00  0.00    +0.000 OA
ATOM      8  N   UNL     1       2.008  12.949  20.035  0.00  0.00    +0.000 N 
ATOM      9  C   UNL     1       2.906  13.716  20.901  0.00  0.00    +0.000 C 
ATOM     10  C   UNL     1       2.806  15.224  20.711  0.00  0.00    +0.000 C 
ATOM     11  S   UNL     1       2.726  15.749  19.011  0.00  0.00    +0.000 S 
ATOM     12  O   UNL     1       1.969  16.981  18.966  0.00  0.00    +0.000 OA
ATOM     13  O   UNL     1       4.071  15.693  18.464  0.00  0.00    +0.000 OA
ATOM     14  C   UNL     1       1.770  14.504  18.182  0.00  0.00    +0.000 C 
ATOM     15  C   UNL     1       2.254  13.141  18.606  0.00  0.00    +0.000 C 
ENDBRANCH   4   6
BRANCH   3  16
ATOM     16  N   UNL     1       1.308   8.989  19.319  0.00  0.00    +0.000 N 
ATOM     17  C   UNL     1       1.995   8.304  18.324  0.00  0.00    +0.000 C 
ATOM     18  O   UNL     1       1.865   8.522  17.122  0.00  0.00    +0.000 OA
ATOM     19  N   UNL     1       2.842   7.336  18.824  0.00  0.00    +0.000 N 
ATOM     20  H   UNL     1       1.373   8.678  20.281  0.00  0.00    +0.000 HD
ATOM     21  H   UNL     1       2.644   6.998  19.750  0.00  0.00    +0.000 HD
BRANCH  19  22
ATOM     22  C   UNL     1       3.678   6.528  18.011  0.00  0.00    +0.000 A 
ATOM     23  C   UNL     1       4.772   7.031  17.294  0.00  0.00    +0.000 A 
ATOM     24  C   UNL     1       5.499   6.215  16.422  0.00  0.00    +0.000 A 
ATOM     25  C   UNL     1       5.147   4.880  16.283  0.00  0.00    +0.000 A 
ATOM     26 CL   UNL     1       5.989   3.887  15.161  0.00  0.00    +0.000 Cl
ATOM     27  C   UNL     1       4.101   4.349  17.037  0.00  0.00    +0.000 A 
ATOM     28  C   UNL     1       3.375   5.169  17.908  0.00  0.00    +0.000 A 
ENDBRANCH  19  22
ENDBRANCH   3  16
BRANCH   1  30
ATOM     29  C   UNL     1      -3.605   9.431  17.499  0.00  0.00    +0.000 C 
ATOM     30  C   UNL     1      -2.980  10.837  17.367  0.00  0.00    +0.000 C 
ATOM     31  C   UNL     1      -2.753  11.123  15.865  0.00  0.00    +0.000 C 
ATOM     32  C   UNL     1      -3.970  11.885  17.903  0.00  0.00    +0.000 C 
ENDBRANCH   1  30
TORSDOF 4
ENDMDL
MODEL 2
REMARK VINA RESULT:      -7.5      0.427      1.257
REMARK  Name = 
REMARK  7 active torsions:
REMARK  status: ('A' for Active; 'I' for Inactive)
REMARK    1  A    between atoms: C_1  and  C_2
REMARK    2  A    between atoms: C_2  and  C_3
REMARK    3  A    between atoms: C_2  and  C_4
REMARK    4  A    between atoms: C_2  and  C_5
REMARK    5  A    between atoms: C_7  and  N_8
REMARK    6  A    between atoms: N_11  and  C_12
REMARK    7  A    between atoms: C_19  and  C_20
REMARK                            x       y       z     vdW  Elec       q    Type
REMARK                         _______ _______ _______ _____ _____    ______ ____
ROOT
ATOM      1  C   UNL     1      -1.788  10.897  18.092  0.00  0.00    +0.000 A 
ATOM      2  C   UNL     1      -0.788   9.952  18.032  0.00  0.00    +0.000 A 
ATOM      3  C   UNL     1       0.249  10.119  19.002  0.00  0.00    +0.000 A 
ATOM      4  C   UNL     1       0.144  11.366  19.602  0.00  0.00    +0.000 A 
ATOM      5  S   UNL     1      -1.410  12.050  19.291  0.00  0.00    +0.000 S 
ENDROOT
BRANCH   4   6
ATOM      6  C   UNL     1       1.070  12.053  20.502  0.00  0.00    +0.000 C 
ATOM      7  O   UNL     1       1.035  11.866  21.719  0.00  0.00    +0.000 OA
ATOM      8  N   UNL     1       2.038  12.911  19.929  0.00  0.00    +0.000 N 
ATOM      9  C   UNL     1       2.930  13.716  20.766  0.00  0.00    +0.000 C 
ATOM     10  C   UNL     1       3.084  15.156  20.295  0.00  0.00    +0.000 C 
ATOM     11  S   UNL     1       3.293  15.338  18.537  0.00  0.00    +0.000 S 
ATOM     12  O   UNL     1       2.744  16.622  18.158  0.00  0.00    +0.000 OA
ATOM     13  O   UNL     1       4.670  15.005  18.215  0.00  0.00    +0.000 OA
ATOM     14  C   UNL     1       2.266  14.084  17.812  0.00  0.00    +0.000 C 
ATOM     15  C   UNL     1       2.482  12.783  18.542  0.00  0.00    +0.000 C 
ENDBRANCH   4   6
BRANCH   3  16
ATOM     16  N   UNL     1       1.250   9.182  19.282  0.00  0.00    +0.000 N 
ATOM     17  C   UNL     1       1.844   8.401  18.299  0.00  0.00    +0.000 C 
ATOM     18  O   UNL     1       1.589   8.489  17.101  0.00  0.00    +0.000 OA
ATOM     19  N   UNL     1       2.755   7.497  18.808  0.00  0.00    +0.000 N 
ATOM     20  H   UNL     1       1.418   8.976  20.259  0.00  0.00    +0.000 HD
ATOM     21  H   UNL     1       2.658   7.258  19.780  0.00  0.00    +0.000 HD
BRANCH  19  22
ATOM     22  C   UNL     1       3.519   6.614  18.002  0.00  0.00    +0.000 A 
ATOM     23  C   UNL     1       3.226   5.251  17.863  0.00  0.00    +0.000 A 
ATOM     24  C   UNL     1       4.072   4.401  17.144  0.00  0.00    +0.000 A 
ATOM     25  C   UNL     1       5.209   4.920  16.539  0.00  0.00    +0.000 A 
ATOM     26 CL   UNL     1       6.292   3.872  15.715  0.00  0.00    +0.000 Cl
ATOM     27  C   UNL     1       5.481   6.286  16.616  0.00  0.00    +0.000 A 
ATOM     28  C   UNL     1       4.632   7.134  17.336  0.00  0.00    +0.000 A 
ENDBRANCH  19  22
ENDBRANCH   3  16
BRANCH   1  30
ATOM     29  C   UNL     1      -4.058  11.895  17.949  0.00  0.00    +0.000 C 
ATOM     30  C   UNL     1      -3.111  10.845  17.327  0.00  0.00    +0.000 C 
ATOM     31  C   UNL     1      -3.777   9.457  17.464  0.00  0.00    +0.000 C 
ATOM     32  C   UNL     1      -2.941  11.141  15.827  0.00  0.00    +0.000 C 
ENDBRANCH   1  30
TORSDOF 4
ENDMDL
MODEL 3
REMARK VINA RESULT:      -7.3      0.561      1.054
REMARK  Name = 
REMARK  7 active torsions:
REMARK  status: ('A' for Active; 'I' for Inactive)
REMARK    1  A    between atoms: C_1  and  C_2
REMARK    2  A    between atoms: C_2  and  C_3
REMARK    3  A    between atoms: C_2  and  C_4
REMARK    4  A    between atoms: C_2  and  C_5
REMARK    5  A    between atoms: C_7  and  N_8
REMARK    6  A    between atoms: N_11  and  C_12
REMARK    7  A    between atoms: C_19  and  C_20
REMARK                            x       y       z     vdW  Elec       q    Type
REMARK                         _______ _______ _______ _____ _____    ______ ____
ROOT
ATOM      1  C   UNL     1      -1.851  10.880  18.120  0.00  0.00    +0.000 A 
ATOM      2  C   UNL     1      -0.860   9.925  18.049  0.00  0.00    +0.000 A 
ATOM      3  C   UNL     1       0.183  10.075  19.014  0.00  0.00    +0.000 A 
ATOM      4  C   UNL     1       0.094  11.319  19.622  0.00  0.00    +0.000 A 
ATOM      5  S   UNL     1      -1.455  12.022  19.324  0.00  0.00    +0.000 S 
ENDROOT
BRANCH   4   6
ATOM      6  C   UNL     1       1.032  11.991  20.522  0.00  0.00    +0.000 C 
ATOM      7  O   UNL     1       1.390  11.467  21.578  0.00  0.00    +0.000 OA
ATOM      8  N   UNL     1       1.549  13.246  20.123  0.00  0.00    +0.000 N 
ATOM      9  C   UNL     1       2.408  14.030  21.013  0.00  0.00    +0.000 C 
ATOM     10  C   UNL     1       2.055  15.511  21.064  0.00  0.00    +0.000 C 
ATOM     11  S   UNL     1       1.705  16.239  19.478  0.00  0.00    +0.000 S 
ATOM     12  O   UNL     1       0.766  17.320  19.687  0.00  0.00    +0.000 OA
ATOM     13  O   UNL     1       2.973  16.487  18.813  0.00  0.00    +0.000 OA
ATOM     14  C   UNL     1       0.867  14.974  18.557  0.00  0.00    +0.000 C 
ATOM     15  C   UNL     1       1.602  13.669  18.725  0.00  0.00    +0.000 C 
ENDBRANCH   4   6
BRANCH   3  16
ATOM     16  N   UNL     1       1.176   9.126  19.283  0.00  0.00    +0.000 N 
ATOM     17  C   UNL     1       1.797   8.385  18.285  0.00  0.00    +0.000 C 
ATOM     18  O   UNL     1       1.575   8.523  17.085  0.00  0.00    +0.000 OA
ATOM     19  N   UNL     1       2.693   7.460  18.781  0.00  0.00    +0.000 N 
ATOM     20  H   UNL     1       1.316   8.879  20.255  0.00  0.00    +0.000 HD
ATOM     21  H   UNL     1       2.569   7.181  19.739  0.00  0.00    +0.000 HD
BRANCH  19  22
ATOM     22  C   UNL     1       3.479   6.610  17.961  0.00  0.00    +0.000 A 
ATOM     23  C   UNL     1       3.226   5.241  17.807  0.00  0.00    +0.000 A 
ATOM     24  C   UNL     1       4.093   4.425  17.074  0.00  0.00    +0.000 A 
ATOM     25  C   UNL     1       5.211   4.985  16.470  0.00  0.00    +0.000 A 
ATOM     26 CL   UNL     1       6.321   3.980  15.628  0.00  0.00    +0.000 Cl
ATOM     27  C   UNL     1       5.443   6.357  16.562  0.00  0.00    +0.000 A 
ATOM     28  C   UNL     1       4.572   7.171  17.297  0.00  0.00    +0.000 A 
ENDBRANCH  19  22
ENDBRANCH   3  16
BRANCH   1  30
ATOM     29  C   UNL     1      -3.765   9.424  17.501  0.00  0.00    +0.000 C 
ATOM     30  C   UNL     1      -3.178  10.846  17.362  0.00  0.00    +0.000 C 
ATOM     31  C   UNL     1      -2.966  11.134  15.858  0.00  0.00    +0.000 C 
ATOM     32  C   UNL     1      -4.194  11.869  17.898  0.00  0.00    +0.000 C 
ENDBRANCH   1  30
TORSDOF 4
ENDMDL
MODEL 4
REMARK VINA RESULT:      -7.0      2.741      5.405
REMARK  Name = 
REMARK  7 active torsions:
REMARK  status: ('A' for Active; 'I' for Inactive)
REMARK    1  A    between atoms: C_1  and  C_2
REMARK    2  A    between atoms: C_2  and  C_3
REMARK    3  A    between atoms: C_2  and  C_4
REMARK    4  A    between atoms: C_2  and  C_5
REMARK    5  A    between atoms: C_7  and  N_8
REMARK    6  A    between atoms: N_11  and  C_12
REMARK    7  A    between atoms: C_19  and  C_20
REMARK                            x       y       z     vdW  Elec       q    Type
REMARK                         _______ _______ _______ _____ _____    ______ ____
ROOT
ATOM      1  C   UNL     1       1.041  13.642  19.243  0.00  0.00    +0.000 A 
ATOM      2  C   UNL     1       1.423  12.441  19.798  0.00  0.00    +0.000 A 
ATOM      3  C   UNL     1       0.705  11.305  19.312  0.00  0.00    +0.000 A 
ATOM      4  C   UNL     1      -0.408  11.716  18.593  0.00  0.00    +0.000 A 
ATOM      5  S   UNL     1      -0.269  13.387  18.181  0.00  0.00    +0.000 S 
ENDROOT
BRANCH   4   6
ATOM      6  C   UNL     1      -1.528  10.933  18.071  0.00  0.00    +0.000 C 
ATOM      7  O   UNL     1      -1.359  10.079  17.200  0.00  0.00    +0.000 OA
ATOM      8  N   UNL     1      -2.809  11.158  18.627  0.00  0.00    +0.000 N 
ATOM      9  C   UNL     1      -3.998  10.494  18.088  0.00  0.00    +0.000 C 
ATOM     10  C   UNL     1      -5.199  11.416  17.923  0.00  0.00    +0.000 C 
ATOM     11  S   UNL     1      -5.476  12.515  19.296  0.00  0.00    +0.000 S 
ATOM     12  O   UNL     1      -6.104  13.713  18.781  0.00  0.00    +0.000 OA
ATOM     13  O   UNL     1      -6.112  11.752  20.357  0.00  0.00    +0.000 OA
ATOM     14  C   UNL     1      -3.858  12.965  19.870  0.00  0.00    +0.000 C 
ATOM     15  C   UNL     1      -3.002  11.727  19.960  0.00  0.00    +0.000 C 
ENDBRANCH   4   6
BRANCH   3  16
ATOM     16  N   UNL     1       1.046   9.970  19.556  0.00  0.00    +0.000 N 
ATOM     17  C   UNL     1       1.740   9.191  18.638  0.00  0.00    +0.000 C 
ATOM     18  O   UNL     1       2.158   9.605  17.560  0.00  0.00    +0.000 OA
ATOM     19  N   UNL     1       1.908   7.887  19.057  0.00  0.00    +0.000 N 
ATOM     20  H   UNL     1       0.628   9.536  20.370  0.00  0.00    +0.000 HD
ATOM     21  H   UNL     1       1.269   7.552  19.758  0.00  0.00    +0.000 HD
BRANCH  19  22
ATOM     22  C   UNL     1       2.615   6.907  18.313  0.00  0.00    +0.000 A 
ATOM     23  C   UNL     1       2.210   5.569  18.223  0.00  0.00    +0.000 A 
ATOM     24  C   UNL     1       2.999   4.620  17.566  0.00  0.00    +0.000 A 
ATOM     25  C   UNL     1       4.191   5.014  16.974  0.00  0.00    +0.000 A 
ATOM     26 CL   UNL     1       5.202   3.843  16.227  0.00  0.00    +0.000 Cl
ATOM     27  C   UNL     1       4.577   6.354  17.000  0.00  0.00    +0.000 A 
ATOM     28  C   UNL     1       3.784   7.302  17.659  0.00  0.00    +0.000 A 
ENDBRANCH  19  22
ENDBRANCH   3  16
BRANCH   1  30
ATOM     29  C   UNL     1       3.170  14.834  18.781  0.00  0.00    +0.000 C 
ATOM     30  C   UNL     1       1.769  14.976  19.415  0.00  0.00    +0.000 C 
ATOM     31  C   UNL     1       1.951  15.319  20.911  0.00  0.00    +0.000 C 
ATOM     32  C   UNL     1       1.028  16.147  18.749  0.00  0.00    +0.000 C 
ENDBRANCH   1  30
TORSDOF 4
ENDMDL
MODEL 5
REMARK VINA RESULT:      -6.9      2.483      3.321
REMARK  Name = 
REMARK  7 active torsions:
REMARK  status: ('A' for Active; 'I' for Inactive)
REMARK    1  A    between atoms: C_1  and  C_2
REMARK    2  A    between atoms: C_2  and  C_3
REMARK    3  A    between atoms: C_2  and  C_4
REMARK    4  A    between atoms: C_2  and  C_5
REMARK    5  A    between atoms: C_7  and  N_8
REMARK    6  A    between atoms: N_11  and  C_12
REMARK    7  A    between atoms: C_19  and  C_20
REMARK                            x       y       z     vdW  Elec       q    Type
REMARK                         _______ _______ _______ _____ _____    ______ ____
ROOT
ATOM      1  C   UNL     1      -0.564  12.233  21.192  0.00  0.00    +0.000 A 
ATOM      2  C   UNL     1      -0.529  11.264  20.214  0.00  0.00    +0.000 A 
ATOM      3  C   UNL     1       0.583  11.359  19.321  0.00  0.00    +0.000 A 
ATOM      4  C   UNL     1       1.219  12.581  19.481  0.00  0.00    +0.000 A 
ATOM      5  S   UNL     1       0.728  13.322  20.961  0.00  0.00    +0.000 S 
ENDROOT
BRANCH   4   6
ATOM      6  C   UNL     1       2.271  13.202  18.675  0.00  0.00    +0.000 C 
ATOM      7  O   UNL     1       3.186  12.532  18.194  0.00  0.00    +0.000 OA
ATOM      8  N   UNL     1       2.185  14.592  18.431  0.00  0.00    +0.000 N 
ATOM      9  C   UNL     1       3.251  15.306  17.725  0.00  0.00    +0.000 C 
ATOM     10  C   UNL     1       3.634  16.633  18.368  0.00  0.00    +0.000 C 
ATOM     11  S   UNL     1       2.251  17.622  18.895  0.00  0.00    +0.000 S 
ATOM     12  O   UNL     1       2.681  18.414  20.027  0.00  0.00    +0.000 OA
ATOM     13  O   UNL     1       1.690  18.267  17.720  0.00  0.00    +0.000 OA
ATOM     14  C   UNL     1       1.044  16.462  19.485  0.00  0.00    +0.000 C 
ATOM     15  C   UNL     1       0.923  15.328  18.499  0.00  0.00    +0.000 C 
ENDBRANCH   4   6
BRANCH   3  16
ATOM     16  N   UNL     1       0.955  10.382  18.390  0.00  0.00    +0.000 N 
ATOM     17  C   UNL     1       1.547   9.180  18.758  0.00  0.00    +0.000 C 
ATOM     18  O   UNL     1       1.754   8.841  19.920  0.00  0.00    +0.000 OA
ATOM     19  N   UNL     1       1.894   8.398  17.675  0.00  0.00    +0.000 N 
ATOM     20  H   UNL     1       0.923  10.650  17.414  0.00  0.00    +0.000 HD
ATOM     21  H   UNL     1       2.005   8.871  16.794  0.00  0.00    +0.000 HD
BRANCH  19  22
ATOM     22  C   UNL     1       2.479   7.110  17.791  0.00  0.00    +0.000 A 
ATOM     23  C   UNL     1       1.738   5.949  18.045  0.00  0.00    +0.000 A 
ATOM     24  C   UNL     1       2.373   4.722  18.258  0.00  0.00    +0.000 A 
ATOM     25  C   UNL     1       3.758   4.648  18.194  0.00  0.00    +0.000 A 
ATOM     26 CL   UNL     1       4.550   3.160  18.525  0.00  0.00    +0.000 Cl
ATOM     27  C   UNL     1       4.505   5.782  17.880  0.00  0.00    +0.000 A 
ATOM     28  C   UNL     1       3.866   7.010  17.667  0.00  0.00    +0.000 A 
ENDBRANCH  19  22
ENDBRANCH   3  16
BRANCH   1  30
ATOM     29  C   UNL     1      -1.337  10.914  23.149  0.00  0.00    +0.000 C 
ATOM     30  C   UNL     1      -1.507  12.251  22.396  0.00  0.00    +0.000 C 
ATOM     31  C   UNL     1      -2.981  12.364  21.944  0.00  0.00    +0.000 C 
ATOM     32  C   UNL     1      -1.219  13.416  23.359  0.00  0.00    +0.000 C 
ENDBRANCH   1  30
TORSDOF 4
ENDMDL
MODEL 6
REMARK VINA RESULT:      -6.8      2.449      3.276
REMARK  Name = 
REMARK  7 active torsions:
REMARK  status: ('A' for Active; 'I' for Inactive)
REMARK    1  A    between atoms: C_1  and  C_2
REMARK    2  A    between atoms: C_2  and  C_3
REMARK    3  A    between atoms: C_2  and  C_4
REMARK    4  A    between atoms: C_2  and  C_5
REMARK    5  A    between atoms: C_7  and  N_8
REMARK    6  A    between atoms: N_11  and  C_12
REMARK    7  A    between atoms: C_19  and  C_20
REMARK                            x       y       z     vdW  Elec       q    Type
REMARK                         _______ _______ _______ _____ _____    ______ ____
ROOT
ATOM      1  C   UNL     1      -0.613  12.260  21.226  0.00  0.00    +0.000 A 
ATOM      2  C   UNL     1      -0.569  11.304  20.235  0.00  0.00    +0.000 A 
ATOM      3  C   UNL     1       0.536  11.427  19.337  0.00  0.00    +0.000 A 
ATOM      4  C   UNL     1       1.156  12.656  19.510  0.00  0.00    +0.000 A 
ATOM      5  S   UNL     1       0.662  13.370  21.003  0.00  0.00    +0.000 S 
ENDROOT
BRANCH   4   6
ATOM      6  C   UNL     1       2.195  13.303  18.708  0.00  0.00    +0.000 C 
ATOM      7  O   UNL     1       3.107  12.650  18.197  0.00  0.00    +0.000 OA
ATOM      8  N   UNL     1       2.100  14.699  18.502  0.00  0.00    +0.000 N 
ATOM      9  C   UNL     1       3.154  15.437  17.801  0.00  0.00    +0.000 C 
ATOM     10  C   UNL     1       3.539  16.748  18.474  0.00  0.00    +0.000 C 
ATOM     11  S   UNL     1       2.159  17.716  19.045  0.00  0.00    +0.000 S 
ATOM     12  O   UNL     1       2.601  18.480  20.192  0.00  0.00    +0.000 OA
ATOM     13  O   UNL     1       1.580  18.389  17.895  0.00  0.00    +0.000 OA
ATOM     14  C   UNL     1       0.964  16.535  19.619  0.00  0.00    +0.000 C 
ATOM     15  C   UNL     1       0.836  15.427  18.605  0.00  0.00    +0.000 C 
ENDBRANCH   4   6
BRANCH   3  16
ATOM     16  N   UNL     1       0.918  10.469  18.391  0.00  0.00    +0.000 N 
ATOM     17  C   UNL     1       1.526   9.269  18.740  0.00  0.00    +0.000 C 
ATOM     18  O   UNL     1       1.741   8.916  19.896  0.00  0.00    +0.000 OA
ATOM     19  N   UNL     1       1.879   8.507  17.644  0.00  0.00    +0.000 N 
ATOM     20  H   UNL     1       0.880  10.750  17.419  0.00  0.00    +0.000 HD
ATOM     21  H   UNL     1       1.981   8.993  16.770  0.00  0.00    +0.000 HD
BRANCH  19  22
ATOM     22  C   UNL     1       2.481   7.226  17.740  0.00  0.00    +0.000 A 
ATOM     23  C   UNL     1       3.857   7.009  17.593  0.00  0.00    +0.000 A 
ATOM     24  C   UNL     1       4.387   5.715  17.588  0.00  0.00    +0.000 A 
ATOM     25  C   UNL     1       3.539   4.629  17.756  0.00  0.00    +0.000 A 
ATOM     26 CL   UNL     1       4.170   3.033  17.680  0.00  0.00    +0.000 Cl
ATOM     27  C   UNL     1       2.175   4.831  17.967  0.00  0.00    +0.000 A 
ATOM     28  C   UNL     1       1.648   6.128  17.971  0.00  0.00    +0.000 A 
ENDBRANCH  19  22
ENDBRANCH   3  16
BRANCH   1  30
ATOM     29  C   UNL     1      -2.995  12.413  21.913  0.00  0.00    +0.000 C 
ATOM     30  C   UNL     1      -1.550  12.248  22.434  0.00  0.00    +0.000 C 
ATOM     31  C   UNL     1      -1.245  13.429  23.385  0.00  0.00    +0.000 C 
ATOM     32  C   UNL     1      -1.451  10.948  23.250  0.00  0.00    +0.000 C 
ENDBRANCH   1  30
TORSDOF 4
ENDMDL
MODEL 7
REMARK VINA RESULT:      -6.8      2.111      2.896
REMARK  Name = 
REMARK  7 active torsions:
REMARK  status: ('A' for Active; 'I' for Inactive)
REMARK    1  A    between atoms: C_1  and  C_2
REMARK    2  A    between atoms: C_2  and  C_3
REMARK    3  A    between atoms: C_2  and  C_4
REMARK    4  A    between atoms: C_2  and  C_5
REMARK    5  A    between atoms: C_7  and  N_8
REMARK    6  A    between atoms: N_11  and  C_12
REMARK    7  A    between atoms: C_19  and  C_20
REMARK                            x       y       z     vdW  Elec       q    Type
REMARK                         _______ _______ _______ _____ _____    ______ ____
ROOT
ATOM      1  C   UNL     1      -2.438  12.947  20.378  0.00  0.00    +0.000 A 
ATOM      2  C   UNL     1      -1.947  12.184  19.341  0.00  0.00    +0.000 A 
ATOM      3  C   UNL     1      -0.528  12.010  19.350  0.00  0.00    +0.000 A 
ATOM      4  C   UNL     1       0.054  12.888  20.252  0.00  0.00    +0.000 A 
ATOM      5  S   UNL     1      -1.141  13.528  21.321  0.00  0.00    +0.000 S 
ENDROOT
BRANCH   4   6
ATOM      6  C   UNL     1       1.465  13.207  20.470  0.00  0.00    +0.000 C 
ATOM      7  O   UNL     1       2.170  12.516  21.208  0.00  0.00    +0.000 OA
ATOM      8  N   UNL     1       2.010  14.313  19.777  0.00  0.00    +0.000 N 
ATOM      9  C   UNL     1       3.382  14.762  20.021  0.00  0.00    +0.000 C 
ATOM     10  C   UNL     1       3.522  16.273  20.154  0.00  0.00    +0.000 C 
ATOM     11  S   UNL     1       2.600  17.206  18.951  0.00  0.00    +0.000 S 
ATOM     12  O   UNL     1       2.244  18.472  19.555  0.00  0.00    +0.000 OA
ATOM     13  O   UNL     1       3.338  17.172  17.700  0.00  0.00    +0.000 OA
ATOM     14  C   UNL     1       1.099  16.293  18.701  0.00  0.00    +0.000 C 
ATOM     15  C   UNL     1       1.429  14.831  18.539  0.00  0.00    +0.000 C 
ENDBRANCH   4   6
BRANCH   3  16
ATOM     16  N   UNL     1       0.179  11.114  18.540  0.00  0.00    +0.000 N 
ATOM     17  C   UNL     1       0.827   9.994  19.047  0.00  0.00    +0.000 C 
ATOM     18  O   UNL     1       0.802   9.658  20.227  0.00  0.00    +0.000 OA
ATOM     19  N   UNL     1       1.519   9.290  18.081  0.00  0.00    +0.000 N 
ATOM     20  H   UNL     1       0.339  11.398  17.581  0.00  0.00    +0.000 HD
ATOM     21  H   UNL     1       1.766   9.794  17.246  0.00  0.00    +0.000 HD
BRANCH  19  22
ATOM     22  C   UNL     1       2.230   8.091  18.341  0.00  0.00    +0.000 A 
ATOM     23  C   UNL     1       1.965   7.262  19.440  0.00  0.00    +0.000 A 
ATOM     24  C   UNL     1       2.765   6.149  19.712  0.00  0.00    +0.000 A 
ATOM     25  C   UNL     1       3.825   5.846  18.868  0.00  0.00    +0.000 A 
ATOM     26 CL   UNL     1       4.857   4.522  19.235  0.00  0.00    +0.000 Cl
ATOM     27  C   UNL     1       4.063   6.624  17.736  0.00  0.00    +0.000 A 
ATOM     28  C   UNL     1       3.260   7.738  17.466  0.00  0.00    +0.000 A 
ENDBRANCH  19  22
ENDBRANCH   3  16
BRANCH   1  30
ATOM     29  C   UNL     1      -4.745  12.298  19.725  0.00  0.00    +0.000 C 
ATOM     30  C   UNL     1      -3.915  13.121  20.735  0.00  0.00    +0.000 C 
ATOM     31  C   UNL     1      -4.344  14.601  20.617  0.00  0.00    +0.000 C 
ATOM     32  C   UNL     1      -4.240  12.648  22.162  0.00  0.00    +0.000 C 
ENDBRANCH   1  30
TORSDOF 4
ENDMDL
MODEL 8
REMARK VINA RESULT:      -6.7      2.612      3.413
REMARK  Name = 
REMARK  7 active torsions:
REMARK  status: ('A' for Active; 'I' for Inactive)
REMARK    1  A    between atoms: C_1  and  C_2
REMARK    2  A    between atoms: C_2  and  C_3
REMARK    3  A    between atoms: C_2  and  C_4
REMARK    4  A    between atoms: C_2  and  C_5
REMARK    5  A    between atoms: C_7  and  N_8
REMARK    6  A    between atoms: N_11  and  C_12
REMARK    7  A    between atoms: C_19  and  C_20
REMARK                            x       y       z     vdW  Elec       q    Type
REMARK                         _______ _______ _______ _____ _____    ______ ____
ROOT
ATOM      1  C   UNL     1      -2.040  12.971  21.750  0.00  0.00    +0.000 A 
ATOM      2  C   UNL     1      -1.828  12.157  20.660  0.00  0.00    +0.000 A 
ATOM      3  C   UNL     1      -0.460  12.034  20.264  0.00  0.00    +0.000 A 
ATOM      4  C   UNL     1       0.309  12.992  20.907  0.00  0.00    +0.000 A 
ATOM      5  S   UNL     1      -0.559  13.661  22.241  0.00  0.00    +0.000 S 
ENDROOT
BRANCH   4   6
ATOM      6  C   UNL     1       1.704  13.375  20.686  0.00  0.00    +0.000 C 
ATOM      7  O   UNL     1       2.629  12.740  21.195  0.00  0.00    +0.000 OA
ATOM      8  N   UNL     1       1.962  14.476  19.837  0.00  0.00    +0.000 N 
ATOM      9  C   UNL     1       3.322  14.988  19.650  0.00  0.00    +0.000 C 
ATOM     10  C   UNL     1       3.421  16.508  19.700  0.00  0.00    +0.000 C 
ATOM     11  S   UNL     1       2.138  17.359  18.807  0.00  0.00    +0.000 S 
ATOM     12  O   UNL     1       1.915  18.631  19.460  0.00  0.00    +0.000 OA
ATOM     13  O   UNL     1       2.471  17.309  17.393  0.00  0.00    +0.000 OA
ATOM     14  C   UNL     1       0.677  16.378  19.037  0.00  0.00    +0.000 C 
ATOM     15  C   UNL     1       1.015  14.925  18.818  0.00  0.00    +0.000 C 
ENDBRANCH   4   6
BRANCH   3  16
ATOM     16  N   UNL     1       0.030  11.110  19.334  0.00  0.00    +0.000 N 
ATOM     17  C   UNL     1       0.841  10.040  19.694  0.00  0.00    +0.000 C 
ATOM     18  O   UNL     1       1.162   9.776  20.850  0.00  0.00    +0.000 OA
ATOM     19  N   UNL     1       1.265   9.299  18.609  0.00  0.00    +0.000 N 
ATOM     20  H   UNL     1      -0.096  11.339  18.356  0.00  0.00    +0.000 HD
ATOM     21  H   UNL     1       1.248   9.757  17.715  0.00  0.00    +0.000 HD
BRANCH  19  22
ATOM     22  C   UNL     1       2.072   8.136  18.720  0.00  0.00    +0.000 A 
ATOM     23  C   UNL     1       3.108   7.832  17.828  0.00  0.00    +0.000 A 
ATOM     24  C   UNL     1       3.803   6.622  17.916  0.00  0.00    +0.000 A 
ATOM     25  C   UNL     1       3.474   5.717  18.917  0.00  0.00    +0.000 A 
ATOM     26 CL   UNL     1       4.272   4.197  18.989  0.00  0.00    +0.000 Cl
ATOM     27  C   UNL     1       2.488   6.032  19.850  0.00  0.00    +0.000 A 
ATOM     28  C   UNL     1       1.794   7.245  19.759  0.00  0.00    +0.000 A 
ENDBRANCH  19  22
ENDBRANCH   3  16
BRANCH   1  30
ATOM     29  C   UNL     1      -4.499  12.673  21.571  0.00  0.00    +0.000 C 
ATOM     30  C   UNL     1      -3.358  13.116  22.512  0.00  0.00    +0.000 C 
ATOM     31  C   UNL     1      -3.609  14.589  22.911  0.00  0.00    +0.000 C 
ATOM     32  C   UNL     1      -3.399  12.267  23.794  0.00  0.00    +0.000 C 
ENDBRANCH   1  30
TORSDOF 4
ENDMDL
MODEL 9
REMARK VINA RESULT:      -6.7      4.259      5.142
REMARK  Name = 
REMARK  7 active torsions:
REMARK  status: ('A' for Active; 'I' for Inactive)
REMARK    1  A    between atoms: C_1  and  C_2
REMARK    2  A    between atoms: C_2  and  C_3
REMARK    3  A    between atoms: C_2  and  C_4
REMARK    4  A    between atoms: C_2  and  C_5
REMARK    5  A    between atoms: C_7  and  N_8
REMARK    6  A    between atoms: N_11  and  C_12
REMARK    7  A    between atoms: C_19  and  C_20
REMARK                            x       y       z     vdW  Elec       q    Type
REMARK                         _______ _______ _______ _____ _____    ______ ____
ROOT
ATOM      1  C   UNL     1      -4.542  12.577  20.024  0.00  0.00    +0.000 A 
ATOM      2  C   UNL     1      -3.294  12.431  19.459  0.00  0.00    +0.000 A 
ATOM      3  C   UNL     1      -2.212  12.440  20.393  0.00  0.00    +0.000 A 
ATOM      4  C   UNL     1      -2.657  12.876  21.633  0.00  0.00    +0.000 A 
ATOM      5  S   UNL     1      -4.381  12.816  21.705  0.00  0.00    +0.000 S 
ENDROOT
BRANCH   4   6
ATOM      6  C   UNL     1      -1.894  13.225  22.832  0.00  0.00    +0.000 C 
ATOM      7  O   UNL     1      -1.147  12.409  23.374  0.00  0.00    +0.000 OA
ATOM      8  N   UNL     1      -2.010  14.544  23.330  0.00  0.00    +0.000 N 
ATOM      9  C   UNL     1      -1.364  14.941  24.583  0.00  0.00    +0.000 C 
ATOM     10  C   UNL     1      -2.254  15.773  25.498  0.00  0.00    +0.000 C 
ATOM     11  S   UNL     1      -3.186  17.041  24.665  0.00  0.00    +0.000 S 
ATOM     12  O   UNL     1      -4.409  17.250  25.410  0.00  0.00    +0.000 OA
ATOM     13  O   UNL     1      -2.288  18.153  24.402  0.00  0.00    +0.000 OA
ATOM     14  C   UNL     1      -3.630  16.341  23.096  0.00  0.00    +0.000 C 
ATOM     15  C   UNL     1      -2.422  15.670  22.493  0.00  0.00    +0.000 C 
ENDBRANCH   4   6
BRANCH   3  16
ATOM     16  N   UNL     1      -0.888  12.099  20.097  0.00  0.00    +0.000 N 
ATOM     17  C   UNL     1      -0.500  10.805  19.770  0.00  0.00    +0.000 C 
ATOM     18  O   UNL     1      -1.276   9.859  19.663  0.00  0.00    +0.000 OA
ATOM     19  N   UNL     1       0.862  10.683  19.584  0.00  0.00    +0.000 N 
ATOM     20  H   UNL     1      -0.185  12.803  20.285  0.00  0.00    +0.000 HD
ATOM     21  H   UNL     1       1.440  11.388  20.008  0.00  0.00    +0.000 HD
BRANCH  19  22
ATOM     22  C   UNL     1       1.498   9.471  19.208  0.00  0.00    +0.000 A 
ATOM     23  C   UNL     1       1.976   9.223  17.915  0.00  0.00    +0.000 A 
ATOM     24  C   UNL     1       2.497   7.973  17.567  0.00  0.00    +0.000 A 
ATOM     25  C   UNL     1       2.563   6.970  18.524  0.00  0.00    +0.000 A 
ATOM     26 CL   UNL     1       3.134   5.409  18.088  0.00  0.00    +0.000 Cl
ATOM     27  C   UNL     1       2.149   7.221  19.832  0.00  0.00    +0.000 A 
ATOM     28  C   UNL     1       1.628   8.474  20.177  0.00  0.00    +0.000 A 
ENDBRANCH  19  22
ENDBRANCH   3  16
BRANCH   1  30
ATOM     29  C   UNL     1      -5.634  11.461  18.093  0.00  0.00    +0.000 C 
ATOM     30  C   UNL     1      -5.876  12.395  19.299  0.00  0.00    +0.000 C 
ATOM     31  C   UNL     1      -6.405  13.744  18.763  0.00  0.00    +0.000 C 
ATOM     32  C   UNL     1      -6.963  11.787  20.201  0.00  0.00    +0.000 C 
ENDBRANCH   1  30
TORSDOF 4
ENDMDL
