MODEL 1
REMARK VINA RESULT:      -7.8      0.000      0.000
REMARK  Name = 
REMARK  8 active torsions:
REMARK  status: ('A' for Active; 'I' for Inactive)
REMARK    1  A    between atoms: C_1  and  C_2
REMARK    2  A    between atoms: C_5  and  S_6
REMARK    3  A    between atoms: S_6  and  C_7
REMARK    4  A    between atoms: C_7  and  C_8
REMARK    5  A    between atoms: C_8  and  C_9
REMARK    6  A    between atoms: N_11  and  C_12
REMARK    7  A    between atoms: N_11  and  C_13
REMARK    8  A    between atoms: C_13  and  C_14
REMARK                            x       y       z     vdW  Elec       q    Type
REMARK                         _______ _______ _______ _____ _____    ______ ____
ROOT
ATOM      1  C   UNL     1       4.088   6.661  17.387  0.00  0.00    +0.000 C 
ATOM      2  O   UNL     1       3.700   7.772  17.743  0.00  0.00    +0.000 OA
ATOM      3  N   UNL     1       3.306   5.508  17.529  0.00  0.00    +0.000 N 
ATOM      4  C   UNL     1       3.758   4.161  17.189  0.00  0.00    +0.000 C 
ENDROOT
BRANCH   1   5
ATOM      5  C   UNL     1       5.464   6.460  16.768  0.00  0.00    +0.000 C 
BRANCH   5   6
ATOM      6  C   UNL     1       6.588   6.171  17.753  0.00  0.00    +0.000 C 
BRANCH   6   7
ATOM      7  S   UNL     1       7.331   4.576  17.245  0.00  0.00    +0.000 S 
BRANCH   7  12
ATOM      8  C   UNL     1       5.858   3.341  12.462  0.00  0.00    +0.000 C 
ATOM      9  C   UNL     1       6.547   4.076  13.541  0.00  0.00    +0.000 A 
ATOM     10  N   UNL     1       7.351   5.115  13.428  0.00  0.00    +0.000 NA
ATOM     11  N   UNL     1       7.769   5.475  14.694  0.00  0.00    +0.000 NA
ATOM     12  C   UNL     1       7.208   4.647  15.537  0.00  0.00    +0.000 A 
ATOM     13  N   UNL     1       6.433   3.754  14.868  0.00  0.00    +0.000 N 
ATOM     14  H   UNL     1       5.889   3.010  15.277  0.00  0.00    +0.000 HD
ENDBRANCH   7  12
ENDBRANCH   6   7
ENDBRANCH   5   6
ENDBRANCH   1   5
BRANCH   3  15
ATOM     15  C   UNL     1       2.011   5.594  18.214  0.00  0.00    +0.000 C 
BRANCH  15  16
ATOM     16  C   UNL     1       1.823   4.629  19.365  0.00  0.00    +0.000 A 
ATOM     17  C   UNL     1       2.394   4.888  20.622  0.00  0.00    +0.000 A 
ATOM     18  C   UNL     1       2.309   3.945  21.649  0.00  0.00    +0.000 A 
ATOM     19  C   UNL     1       1.654   2.739  21.426  0.00  0.00    +0.000 A 
ATOM     20  F   UNL     1       1.591   1.830  22.409  0.00  0.00    +0.000 F 
ATOM     21  C   UNL     1       1.079   2.460  20.197  0.00  0.00    +0.000 A 
ATOM     22  C   UNL     1       1.166   3.406  19.178  0.00  0.00    +0.000 A 
ATOM     23  F   UNL     1       0.636   3.107  17.983  0.00  0.00    +0.000 F 
ENDBRANCH  15  16
ENDBRANCH   3  15
TORSDOF 6
ENDMDL
MODEL 2
REMARK VINA RESULT:      -7.6      0.978      1.418
REMARK  Name = 
REMARK  8 active torsions:
REMARK  status: ('A' for Active; 'I' for Inactive)
REMARK    1  A    between atoms: C_1  and  C_2
REMARK    2  A    between atoms: C_5  and  S_6
REMARK    3  A    between atoms: S_6  and  C_7
REMARK    4  A    between atoms: C_7  and  C_8
REMARK    5  A    between atoms: C_8  and  C_9
REMARK    6  A    between atoms: N_11  and  C_12
REMARK    7  A    between atoms: N_11  and  C_13
REMARK    8  A    between atoms: C_13  and  C_14
REMARK                            x       y       z     vdW  Elec       q    Type
REMARK                         _______ _______ _______ _____ _____    ______ ____
ROOT
ATOM      1  C   UNL     1       4.020   6.479  17.320  0.00  0.00    +0.000 C 
ATOM      2  O   UNL     1       3.578   7.535  17.768  0.00  0.00    +0.000 OA
ATOM      3  N   UNL     1       3.277   5.291  17.317  0.00  0.00    +0.000 N 
ATOM      4  C   UNL     1       3.791   4.002  16.864  0.00  0.00    +0.000 C 
ENDROOT
BRANCH   1   5
ATOM      5  C   UNL     1       5.423   6.388  16.737  0.00  0.00    +0.000 C 
BRANCH   5   6
ATOM      6  C   UNL     1       6.536   6.147  17.747  0.00  0.00    +0.000 C 
BRANCH   6   7
ATOM      7  S   UNL     1       7.396   4.618  17.223  0.00  0.00    +0.000 S 
BRANCH   7  12
ATOM      8  C   UNL     1       5.912   3.336  12.455  0.00  0.00    +0.000 C 
ATOM      9  C   UNL     1       6.585   4.095  13.528  0.00  0.00    +0.000 A 
ATOM     10  N   UNL     1       7.346   5.165  13.407  0.00  0.00    +0.000 NA
ATOM     11  N   UNL     1       7.766   5.539  14.668  0.00  0.00    +0.000 NA
ATOM     12  C   UNL     1       7.249   4.688  15.516  0.00  0.00    +0.000 A 
ATOM     13  N   UNL     1       6.501   3.766  14.854  0.00  0.00    +0.000 N 
ATOM     14  H   UNL     1       5.992   3.000  15.269  0.00  0.00    +0.000 HD
ENDBRANCH   7  12
ENDBRANCH   6   7
ENDBRANCH   5   6
ENDBRANCH   1   5
BRANCH   3  15
ATOM     15  C   UNL     1       1.957   5.264  17.957  0.00  0.00    +0.000 C 
BRANCH  15  16
ATOM     16  C   UNL     1       1.839   4.350  19.157  0.00  0.00    +0.000 A 
ATOM     17  C   UNL     1       1.077   3.171  19.091  0.00  0.00    +0.000 A 
ATOM     18  C   UNL     1       0.883   2.386  20.230  0.00  0.00    +0.000 A 
ATOM     19  C   UNL     1       1.447   2.775  21.441  0.00  0.00    +0.000 A 
ATOM     20  F   UNL     1       1.242   2.029  22.534  0.00  0.00    +0.000 F 
ATOM     21  C   UNL     1       2.205   3.931  21.533  0.00  0.00    +0.000 A 
ATOM     22  C   UNL     1       2.396   4.708  20.392  0.00  0.00    +0.000 A 
ATOM     23  F   UNL     1       3.102   5.842  20.504  0.00  0.00    +0.000 F 
ENDBRANCH  15  16
ENDBRANCH   3  15
TORSDOF 6
ENDMDL
MODEL 3
REMARK VINA RESULT:      -7.5      3.940      6.418
REMARK  Name = 
REMARK  8 active torsions:
REMARK  status: ('A' for Active; 'I' for Inactive)
REMARK    1  A    between atoms: C_1  and  C_2
REMARK    2  A    between atoms: C_5  and  S_6
REMARK    3  A    between atoms: S_6  and  C_7
REMARK    4  A    between atoms: C_7  and  C_8
REMARK    5  A    between atoms: C_8  and  C_9
REMARK    6  A    between atoms: N_11  and  C_12
REMARK    7  A    between atoms: N_11  and  C_13
REMARK    8  A    between atoms: C_13  and  C_14
REMARK                            x       y       z     vdW  Elec       q    Type
REMARK                         _______ _______ _______ _____ _____    ______ ____
ROOT
ATOM      1  C   UNL     1       2.059   3.209  18.022  0.00  0.00    +0.000 C 
ATOM      2  O   UNL     1       1.618   4.075  17.268  0.00  0.00    +0.000 OA
ATOM      3  N   UNL     1       3.381   2.753  17.955  0.00  0.00    +0.000 N 
ATOM      4  C   UNL     1       3.922   1.676  18.780  0.00  0.00    +0.000 C 
ENDROOT
BRANCH   1   5
ATOM      5  C   UNL     1       1.184   2.562  19.086  0.00  0.00    +0.000 C 
BRANCH   5   6
ATOM      6  C   UNL     1       0.619   3.511  20.134  0.00  0.00    +0.000 C 
BRANCH   6   7
ATOM      7  S   UNL     1       2.054   4.261  20.987  0.00  0.00    +0.000 S 
BRANCH   7  12
ATOM      8  C   UNL     1       2.617   8.314  17.851  0.00  0.00    +0.000 C 
ATOM      9  C   UNL     1       2.256   7.555  19.065  0.00  0.00    +0.000 A 
ATOM     10  N   UNL     1       1.723   8.016  20.179  0.00  0.00    +0.000 NA
ATOM     11  N   UNL     1       1.557   6.956  21.048  0.00  0.00    +0.000 NA
ATOM     12  C   UNL     1       1.994   5.884  20.438  0.00  0.00    +0.000 A 
ATOM     13  N   UNL     1       2.440   6.204  19.195  0.00  0.00    +0.000 N 
ATOM     14  H   UNL     1       2.825   5.565  18.515  0.00  0.00    +0.000 HD
ENDBRANCH   7  12
ENDBRANCH   6   7
ENDBRANCH   5   6
ENDBRANCH   1   5
BRANCH   3  15
ATOM     15  C   UNL     1       4.262   3.245  16.889  0.00  0.00    +0.000 C 
BRANCH  15  16
ATOM     16  C   UNL     1       5.358   4.187  17.339  0.00  0.00    +0.000 A 
ATOM     17  C   UNL     1       5.515   4.510  18.698  0.00  0.00    +0.000 A 
ATOM     18  C   UNL     1       6.458   5.460  19.097  0.00  0.00    +0.000 A 
ATOM     19  C   UNL     1       7.247   6.094  18.143  0.00  0.00    +0.000 A 
ATOM     20  F   UNL     1       8.136   7.018  18.529  0.00  0.00    +0.000 F 
ATOM     21  C   UNL     1       7.114   5.791  16.797  0.00  0.00    +0.000 A 
ATOM     22  C   UNL     1       6.173   4.841  16.407  0.00  0.00    +0.000 A 
ATOM     23  F   UNL     1       6.031   4.584  15.098  0.00  0.00    +0.000 F 
ENDBRANCH  15  16
ENDBRANCH   3  15
TORSDOF 6
ENDMDL
MODEL 4
REMARK VINA RESULT:      -7.4      5.415      7.556
REMARK  Name = 
REMARK  8 active torsions:
REMARK  status: ('A' for Active; 'I' for Inactive)
REMARK    1  A    between atoms: C_1  and  C_2
REMARK    2  A    between atoms: C_5  and  S_6
REMARK    3  A    between atoms: S_6  and  C_7
REMARK    4  A    between atoms: C_7  and  C_8
REMARK    5  A    between atoms: C_8  and  C_9
REMARK    6  A    between atoms: N_11  and  C_12
REMARK    7  A    between atoms: N_11  and  C_13
REMARK    8  A    between atoms: C_13  and  C_14
REMARK                            x       y       z     vdW  Elec       q    Type
REMARK                         _______ _______ _______ _____ _____    ______ ____
ROOT
ATOM      1  C   UNL     1       1.306   8.633  19.972  0.00  0.00    +0.000 C 
ATOM      2  O   UNL     1       1.061   8.260  21.118  0.00  0.00    +0.000 OA
ATOM      3  N   UNL     1       2.148   7.920  19.110  0.00  0.00    +0.000 N 
ATOM      4  C   UNL     1       2.523   8.367  17.771  0.00  0.00    +0.000 C 
ENDROOT
BRANCH   1   5
ATOM      5  C   UNL     1       0.709   9.915  19.409  0.00  0.00    +0.000 C 
BRANCH   5   6
ATOM      6  C   UNL     1      -0.649  10.307  19.975  0.00  0.00    +0.000 C 
BRANCH   6   7
ATOM      7  S   UNL     1      -1.079  11.923  19.230  0.00  0.00    +0.000 S 
BRANCH   7  12
ATOM      8  C   UNL     1      -2.966  10.214  14.747  0.00  0.00    +0.000 C 
ATOM      9  C   UNL     1      -2.965  10.744  16.125  0.00  0.00    +0.000 A 
ATOM     10  N   UNL     1      -4.005  11.047  16.877  0.00  0.00    +0.000 NA
ATOM     11  N   UNL     1      -3.537  11.511  18.091  0.00  0.00    +0.000 NA
ATOM     12  C   UNL     1      -2.231  11.478  18.040  0.00  0.00    +0.000 A 
ATOM     13  N   UNL     1      -1.822  11.005  16.834  0.00  0.00    +0.000 N 
ATOM     14  H   UNL     1      -0.867  10.875  16.534  0.00  0.00    +0.000 HD
ENDBRANCH   7  12
ENDBRANCH   6   7
ENDBRANCH   5   6
ENDBRANCH   1   5
BRANCH   3  15
ATOM     15  C   UNL     1       2.851   6.731  19.608  0.00  0.00    +0.000 C 
BRANCH  15  16
ATOM     16  C   UNL     1       2.162   5.412  19.334  0.00  0.00    +0.000 A 
ATOM     17  C   UNL     1       1.346   4.810  20.307  0.00  0.00    +0.000 A 
ATOM     18  C   UNL     1       0.799   3.543  20.092  0.00  0.00    +0.000 A 
ATOM     19  C   UNL     1       1.065   2.869  18.905  0.00  0.00    +0.000 A 
ATOM     20  F   UNL     1       0.554   1.646  18.710  0.00  0.00    +0.000 F 
ATOM     21  C   UNL     1       1.864   3.441  17.927  0.00  0.00    +0.000 A 
ATOM     22  C   UNL     1       2.404   4.706  18.148  0.00  0.00    +0.000 A 
ATOM     23  F   UNL     1       3.204   5.231  17.209  0.00  0.00    +0.000 F 
ENDBRANCH  15  16
ENDBRANCH   3  15
TORSDOF 6
ENDMDL
MODEL 5
REMARK VINA RESULT:      -7.4      1.351      1.615
REMARK  Name = 
REMARK  8 active torsions:
REMARK  status: ('A' for Active; 'I' for Inactive)
REMARK    1  A    between atoms: C_1  and  C_2
REMARK    2  A    between atoms: C_5  and  S_6
REMARK    3  A    between atoms: S_6  and  C_7
REMARK    4  A    between atoms: C_7  and  C_8
REMARK    5  A    between atoms: C_8  and  C_9
REMARK    6  A    between atoms: N_11  and  C_12
REMARK    7  A    between atoms: N_11  and  C_13
REMARK    8  A    between atoms: C_13  and  C_14
REMARK                            x       y       z     vdW  Elec       q    Type
REMARK                         _______ _______ _______ _____ _____    ______ ____
ROOT
ATOM      1  C   UNL     1       4.595   6.286  18.583  0.00  0.00    +0.000 C 
ATOM      2  O   UNL     1       4.959   5.454  19.412  0.00  0.00    +0.000 OA
ATOM      3  N   UNL     1       3.359   6.941  18.663  0.00  0.00    +0.000 N 
ATOM      4  C   UNL     1       2.859   7.878  17.661  0.00  0.00    +0.000 C 
ENDROOT
BRANCH   1   5
ATOM      5  C   UNL     1       5.470   6.660  17.394  0.00  0.00    +0.000 C 
BRANCH   5   6
ATOM      6  C   UNL     1       6.952   6.346  17.550  0.00  0.00    +0.000 C 
BRANCH   6   7
ATOM      7  S   UNL     1       7.163   4.585  17.094  0.00  0.00    +0.000 S 
BRANCH   7  12
ATOM      8  C   UNL     1       5.873   3.285  12.275  0.00  0.00    +0.000 C 
ATOM      9  C   UNL     1       6.509   4.044  13.371  0.00  0.00    +0.000 A 
ATOM     10  N   UNL     1       7.287   5.103  13.276  0.00  0.00    +0.000 NA
ATOM     11  N   UNL     1       7.656   5.482  14.552  0.00  0.00    +0.000 NA
ATOM     12  C   UNL     1       7.092   4.643  15.382  0.00  0.00    +0.000 A 
ATOM     13  N   UNL     1       6.362   3.726  14.695  0.00  0.00    +0.000 N 
ATOM     14  H   UNL     1       5.825   2.970  15.092  0.00  0.00    +0.000 HD
ENDBRANCH   7  12
ENDBRANCH   6   7
ENDBRANCH   5   6
ENDBRANCH   1   5
BRANCH   3  15
ATOM     15  C   UNL     1       2.409   6.562  19.716  0.00  0.00    +0.000 C 
BRANCH  15  16
ATOM     16  C   UNL     1       2.025   5.098  19.743  0.00  0.00    +0.000 A 
ATOM     17  C   UNL     1       2.201   4.330  20.907  0.00  0.00    +0.000 A 
ATOM     18  C   UNL     1       1.945   2.957  20.897  0.00  0.00    +0.000 A 
ATOM     19  C   UNL     1       1.516   2.343  19.725  0.00  0.00    +0.000 A 
ATOM     20  F   UNL     1       1.291   1.022  19.715  0.00  0.00    +0.000 F 
ATOM     21  C   UNL     1       1.331   3.078  18.565  0.00  0.00    +0.000 A 
ATOM     22  C   UNL     1       1.586   4.447  18.583  0.00  0.00    +0.000 A 
ATOM     23  F   UNL     1       1.437   5.139  17.444  0.00  0.00    +0.000 F 
ENDBRANCH  15  16
ENDBRANCH   3  15
TORSDOF 6
ENDMDL
MODEL 6
REMARK VINA RESULT:      -7.3      5.445      7.608
REMARK  Name = 
REMARK  8 active torsions:
REMARK  status: ('A' for Active; 'I' for Inactive)
REMARK    1  A    between atoms: C_1  and  C_2
REMARK    2  A    between atoms: C_5  and  S_6
REMARK    3  A    between atoms: S_6  and  C_7
REMARK    4  A    between atoms: C_7  and  C_8
REMARK    5  A    between atoms: C_8  and  C_9
REMARK    6  A    between atoms: N_11  and  C_12
REMARK    7  A    between atoms: N_11  and  C_13
REMARK    8  A    between atoms: C_13  and  C_14
REMARK                            x       y       z     vdW  Elec       q    Type
REMARK                         _______ _______ _______ _____ _____    ______ ____
ROOT
ATOM      1  C   UNL     1       1.445   8.740  19.847  0.00  0.00    +0.000 C 
ATOM      2  O   UNL     1       1.341   8.423  21.031  0.00  0.00    +0.000 OA
ATOM      3  N   UNL     1       2.199   7.998  18.930  0.00  0.00    +0.000 N 
ATOM      4  C   UNL     1       2.409   8.381  17.537  0.00  0.00    +0.000 C 
ENDROOT
BRANCH   1   5
ATOM      5  C   UNL     1       0.760   9.982  19.295  0.00  0.00    +0.000 C 
BRANCH   5   6
ATOM      6  C   UNL     1      -0.748  10.040  19.495  0.00  0.00    +0.000 C 
BRANCH   6   7
ATOM      7  S   UNL     1      -1.277  11.722  19.004  0.00  0.00    +0.000 S 
BRANCH   7  12
ATOM      8  C   UNL     1      -3.067  10.134  14.438  0.00  0.00    +0.000 C 
ATOM      9  C   UNL     1      -3.088  10.706  15.799  0.00  0.00    +0.000 A 
ATOM     10  N   UNL     1      -4.125  11.171  16.465  0.00  0.00    +0.000 NA
ATOM     11  N   UNL     1      -3.684  11.609  17.698  0.00  0.00    +0.000 NA
ATOM     12  C   UNL     1      -2.394  11.397  17.745  0.00  0.00    +0.000 A 
ATOM     13  N   UNL     1      -1.972  10.833  16.583  0.00  0.00    +0.000 N 
ATOM     14  H   UNL     1      -1.025  10.566  16.357  0.00  0.00    +0.000 HD
ENDBRANCH   7  12
ENDBRANCH   6   7
ENDBRANCH   5   6
ENDBRANCH   1   5
BRANCH   3  15
ATOM     15  C   UNL     1       2.980   6.848  19.401  0.00  0.00    +0.000 C 
BRANCH  15  16
ATOM     16  C   UNL     1       2.328   5.498  19.199  0.00  0.00    +0.000 A 
ATOM     17  C   UNL     1       2.196   4.947  17.912  0.00  0.00    +0.000 A 
ATOM     18  C   UNL     1       1.499   3.753  17.718  0.00  0.00    +0.000 A 
ATOM     19  C   UNL     1       0.929   3.101  18.807  0.00  0.00    +0.000 A 
ATOM     20  F   UNL     1       0.246   1.965  18.613  0.00  0.00    +0.000 F 
ATOM     21  C   UNL     1       1.047   3.620  20.086  0.00  0.00    +0.000 A 
ATOM     22  C   UNL     1       1.746   4.811  20.272  0.00  0.00    +0.000 A 
ATOM     23  F   UNL     1       1.821   5.319  21.511  0.00  0.00    +0.000 F 
ENDBRANCH  15  16
ENDBRANCH   3  15
TORSDOF 6
ENDMDL
MODEL 7
REMARK VINA RESULT:      -7.2      3.008      4.237
REMARK  Name = 
REMARK  8 active torsions:
REMARK  status: ('A' for Active; 'I' for Inactive)
REMARK    1  A    between atoms: C_1  and  C_2
REMARK    2  A    between atoms: C_5  and  S_6
REMARK    3  A    between atoms: S_6  and  C_7
REMARK    4  A    between atoms: C_7  and  C_8
REMARK    5  A    between atoms: C_8  and  C_9
REMARK    6  A    between atoms: N_11  and  C_12
REMARK    7  A    between atoms: N_11  and  C_13
REMARK    8  A    between atoms: C_13  and  C_14
REMARK                            x       y       z     vdW  Elec       q    Type
REMARK                         _______ _______ _______ _____ _____    ______ ____
ROOT
ATOM      1  C   UNL     1       4.116   4.735  19.269  0.00  0.00    +0.000 C 
ATOM      2  O   UNL     1       4.978   5.466  19.753  0.00  0.00    +0.000 OA
ATOM      3  N   UNL     1       2.747   4.939  19.480  0.00  0.00    +0.000 N 
ATOM      4  C   UNL     1       1.698   4.052  18.986  0.00  0.00    +0.000 C 
ENDROOT
BRANCH   1   5
ATOM      5  C   UNL     1       4.485   3.538  18.403  0.00  0.00    +0.000 C 
BRANCH   5   6
ATOM      6  C   UNL     1       4.818   3.858  16.952  0.00  0.00    +0.000 C 
BRANCH   6   7
ATOM      7  S   UNL     1       6.539   4.484  16.937  0.00  0.00    +0.000 S 
BRANCH   7  12
ATOM      8  C   UNL     1       6.436   3.352  11.909  0.00  0.00    +0.000 C 
ATOM      9  C   UNL     1       6.778   4.080  13.147  0.00  0.00    +0.000 A 
ATOM     10  N   UNL     1       7.527   5.157  13.272  0.00  0.00    +0.000 NA
ATOM     11  N   UNL     1       7.580   5.491  14.611  0.00  0.00    +0.000 NA
ATOM     12  C   UNL     1       6.863   4.609  15.259  0.00  0.00    +0.000 A 
ATOM     13  N   UNL     1       6.339   3.706  14.390  0.00  0.00    +0.000 N 
ATOM     14  H   UNL     1       5.747   2.924  14.625  0.00  0.00    +0.000 HD
ENDBRANCH   7  12
ENDBRANCH   6   7
ENDBRANCH   5   6
ENDBRANCH   1   5
BRANCH   3  15
ATOM     15  C   UNL     1       2.309   6.005  20.389  0.00  0.00    +0.000 C 
BRANCH  15  16
ATOM     16  C   UNL     1       1.954   7.316  19.723  0.00  0.00    +0.000 A 
ATOM     17  C   UNL     1       2.362   7.589  18.406  0.00  0.00    +0.000 A 
ATOM     18  C   UNL     1       2.125   8.841  17.834  0.00  0.00    +0.000 A 
ATOM     19  C   UNL     1       1.481   9.827  18.573  0.00  0.00    +0.000 A 
ATOM     20  F   UNL     1       1.272  11.032  18.026  0.00  0.00    +0.000 F 
ATOM     21  C   UNL     1       1.065   9.584  19.872  0.00  0.00    +0.000 A 
ATOM     22  C   UNL     1       1.303   8.332  20.436  0.00  0.00    +0.000 A 
ATOM     23  F   UNL     1       0.926   8.123  21.706  0.00  0.00    +0.000 F 
ENDBRANCH  15  16
ENDBRANCH   3  15
TORSDOF 6
ENDMDL
MODEL 8
REMARK VINA RESULT:      -7.2      3.700      6.788
REMARK  Name = 
REMARK  8 active torsions:
REMARK  status: ('A' for Active; 'I' for Inactive)
REMARK    1  A    between atoms: C_1  and  C_2
REMARK    2  A    between atoms: C_5  and  S_6
REMARK    3  A    between atoms: S_6  and  C_7
REMARK    4  A    between atoms: C_7  and  C_8
REMARK    5  A    between atoms: C_8  and  C_9
REMARK    6  A    between atoms: N_11  and  C_12
REMARK    7  A    between atoms: N_11  and  C_13
REMARK    8  A    between atoms: C_13  and  C_14
REMARK                            x       y       z     vdW  Elec       q    Type
REMARK                         _______ _______ _______ _____ _____    ______ ____
ROOT
ATOM      1  C   UNL     1       2.083   3.670  18.047  0.00  0.00    +0.000 C 
ATOM      2  O   UNL     1       1.525   4.386  17.217  0.00  0.00    +0.000 OA
ATOM      3  N   UNL     1       3.441   3.338  17.966  0.00  0.00    +0.000 N 
ATOM      4  C   UNL     1       4.123   2.433  18.887  0.00  0.00    +0.000 C 
ENDROOT
BRANCH   1   5
ATOM      5  C   UNL     1       1.324   3.083  19.228  0.00  0.00    +0.000 C 
BRANCH   5   6
ATOM      6  C   UNL     1       0.833   4.093  20.257  0.00  0.00    +0.000 C 
BRANCH   6   7
ATOM      7  S   UNL     1       2.314   4.980  20.867  0.00  0.00    +0.000 S 
BRANCH   7  12
ATOM      8  C   UNL     1       0.696   9.873  20.970  0.00  0.00    +0.000 C 
ATOM      9  C   UNL     1       1.316   8.641  20.442  0.00  0.00    +0.000 A 
ATOM     10  N   UNL     1       1.871   8.456  19.262  0.00  0.00    +0.000 NA
ATOM     11  N   UNL     1       2.318   7.151  19.195  0.00  0.00    +0.000 NA
ATOM     12  C   UNL     1       2.021   6.583  20.335  0.00  0.00    +0.000 A 
ATOM     13  N   UNL     1       1.395   7.471  21.151  0.00  0.00    +0.000 N 
ATOM     14  H   UNL     1       1.062   7.293  22.086  0.00  0.00    +0.000 HD
ENDBRANCH   7  12
ENDBRANCH   6   7
ENDBRANCH   5   6
ENDBRANCH   1   5
BRANCH   3  15
ATOM     15  C   UNL     1       4.222   3.773  16.801  0.00  0.00    +0.000 C 
BRANCH  15  16
ATOM     16  C   UNL     1       5.335   4.753  17.099  0.00  0.00    +0.000 A 
ATOM     17  C   UNL     1       6.579   4.306  17.578  0.00  0.00    +0.000 A 
ATOM     18  C   UNL     1       7.566   5.221  17.953  0.00  0.00    +0.000 A 
ATOM     19  C   UNL     1       7.317   6.585  17.852  0.00  0.00    +0.000 A 
ATOM     20  F   UNL     1       8.260   7.458  18.231  0.00  0.00    +0.000 F 
ATOM     21  C   UNL     1       6.101   7.053  17.380  0.00  0.00    +0.000 A 
ATOM     22  C   UNL     1       5.122   6.135  17.006  0.00  0.00    +0.000 A 
ATOM     23  F   UNL     1       3.938   6.602  16.585  0.00  0.00    +0.000 F 
ENDBRANCH  15  16
ENDBRANCH   3  15
TORSDOF 6
ENDMDL
MODEL 9
REMARK VINA RESULT:      -7.1      2.381      3.154
REMARK  Name = 
REMARK  8 active torsions:
REMARK  status: ('A' for Active; 'I' for Inactive)
REMARK    1  A    between atoms: C_1  and  C_2
REMARK    2  A    between atoms: C_5  and  S_6
REMARK    3  A    between atoms: S_6  and  C_7
REMARK    4  A    between atoms: C_7  and  C_8
REMARK    5  A    between atoms: C_8  and  C_9
REMARK    6  A    between atoms: N_11  and  C_12
REMARK    7  A    between atoms: N_11  and  C_13
REMARK    8  A    between atoms: C_13  and  C_14
REMARK                            x       y       z     vdW  Elec       q    Type
REMARK                         _______ _______ _______ _____ _____    ______ ____
ROOT
ATOM      1  C   UNL     1       6.651   5.107  17.695  0.00  0.00    +0.000 C 
ATOM      2  O   UNL     1       7.291   4.254  18.308  0.00  0.00    +0.000 OA
ATOM      3  N   UNL     1       5.479   5.680  18.203  0.00  0.00    +0.000 N 
ATOM      4  C   UNL     1       4.651   6.640  17.477  0.00  0.00    +0.000 C 
ENDROOT
BRANCH   1   5
ATOM      5  C   UNL     1       7.093   5.599  16.324  0.00  0.00    +0.000 C 
BRANCH   5   6
ATOM      6  C   UNL     1       6.975   4.583  15.196  0.00  0.00    +0.000 C 
BRANCH   6   7
ATOM      7  S   UNL     1       5.318   4.815  14.454  0.00  0.00    +0.000 S 
BRANCH   7  12
ATOM      8  C   UNL     1       7.238   1.500  11.005  0.00  0.00    +0.000 C 
ATOM      9  C   UNL     1       6.248   2.367  11.675  0.00  0.00    +0.000 A 
ATOM     10  N   UNL     1       4.990   2.569  11.338  0.00  0.00    +0.000 NA
ATOM     11  N   UNL     1       4.440   3.456  12.242  0.00  0.00    +0.000 NA
ATOM     12  C   UNL     1       5.378   3.766  13.099  0.00  0.00    +0.000 A 
ATOM     13  N   UNL     1       6.528   3.111  12.790  0.00  0.00    +0.000 N 
ATOM     14  H   UNL     1       7.402   3.169  13.290  0.00  0.00    +0.000 HD
ENDBRANCH   7  12
ENDBRANCH   6   7
ENDBRANCH   5   6
ENDBRANCH   1   5
BRANCH   3  15
ATOM     15  C   UNL     1       4.924   5.186  19.469  0.00  0.00    +0.000 C 
BRANCH  15  16
ATOM     16  C   UNL     1       3.678   4.337  19.341  0.00  0.00    +0.000 A 
ATOM     17  C   UNL     1       3.733   3.064  18.747  0.00  0.00    +0.000 A 
ATOM     18  C   UNL     1       2.565   2.329  18.534  0.00  0.00    +0.000 A 
ATOM     19  C   UNL     1       1.336   2.860  18.911  0.00  0.00    +0.000 A 
ATOM     20  F   UNL     1       0.217   2.159  18.688  0.00  0.00    +0.000 F 
ATOM     21  C   UNL     1       1.254   4.111  19.502  0.00  0.00    +0.000 A 
ATOM     22  C   UNL     1       2.424   4.838  19.713  0.00  0.00    +0.000 A 
ATOM     23  F   UNL     1       2.325   6.061  20.252  0.00  0.00    +0.000 F 
ENDBRANCH  15  16
ENDBRANCH   3  15
TORSDOF 6
ENDMDL
