MODEL 1
REMARK VINA RESULT:      -6.5      0.000      0.000
REMARK  Name = 
REMARK  7 active torsions:
REMARK  status: ('A' for Active; 'I' for Inactive)
REMARK    1  A    between atoms: C_1  and  N_2
REMARK    2  A    between atoms: N_2  and  C_3
REMARK    3  A    between atoms: C_3  and  C_4
REMARK    4  A    between atoms: C_4  and  C_5
REMARK    5  A    between atoms: C_5  and  S_6
REMARK    6  A    between atoms: S_6  and  C_9
REMARK    7  A    between atoms: C_9  and  C_10
REMARK                            x       y       z     vdW  Elec       q    Type
REMARK                         _______ _______ _______ _____ _____    ______ ____
ROOT
ATOM      1  S   UNL     1       7.444   5.156  18.180  0.00  0.00    +0.000 S 
ATOM      2  O   UNL     1       7.878   5.998  19.279  0.00  0.00    +0.000 OA
ATOM      3  O   UNL     1       8.283   4.095  17.655  0.00  0.00    +0.000 OA
ENDROOT
BRANCH   1   4
ATOM      4  C   UNL     1       5.919   4.361  18.724  0.00  0.00    +0.000 C 
BRANCH   4   5
ATOM      5  C   UNL     1       4.886   5.429  19.052  0.00  0.00    +0.000 C 
BRANCH   5   6
ATOM      6  C   UNL     1       3.819   5.057  20.054  0.00  0.00    +0.000 C 
BRANCH   6   8
ATOM      7  C   UNL     1       2.031   6.733  19.788  0.00  0.00    +0.000 C 
ATOM      8  N   UNL     1       2.381   5.254  19.492  0.00  0.00    +0.000 N 
ATOM      9  C   UNL     1       1.301   4.386  20.216  0.00  0.00    +0.000 C 
ATOM     10  C   UNL     1       1.086   3.001  19.586  0.00  0.00    +0.000 C 
ATOM     11  O   UNL     1       0.835   3.102  18.185  0.00  0.00    +0.000 OA
ATOM     12  C   UNL     1       1.962   3.637  17.498  0.00  0.00    +0.000 C 
ATOM     13  C   UNL     1       2.261   5.076  17.946  0.00  0.00    +0.000 C 
ENDBRANCH   6   8
ENDBRANCH   5   6
ENDBRANCH   4   5
ENDBRANCH   1   4
BRANCH   1  14
ATOM     14  C   UNL     1       6.898   6.203  16.824  0.00  0.00    +0.000 C 
BRANCH  14  15
ATOM     15  C   UNL     1       6.579   5.372  15.617  0.00  0.00    +0.000 A 
ATOM     16  C   UNL     1       5.354   4.692  15.520  0.00  0.00    +0.000 A 
ATOM     17  C   UNL     1       5.052   3.941  14.383  0.00  0.00    +0.000 A 
ATOM     18  C   UNL     1       5.971   3.867  13.339  0.00  0.00    +0.000 A 
ATOM     19 BR   UNL     1       5.563   2.853  11.798  0.00  0.00    +0.000 Br
ATOM     20  C   UNL     1       7.191   4.534  13.424  0.00  0.00    +0.000 A 
ATOM     21  C   UNL     1       7.496   5.282  14.561  0.00  0.00    +0.000 A 
ENDBRANCH  14  15
ENDBRANCH   1  14
TORSDOF 6
ENDMDL
MODEL 2
REMARK VINA RESULT:      -6.4      3.564      6.668
REMARK  Name = 
REMARK  7 active torsions:
REMARK  status: ('A' for Active; 'I' for Inactive)
REMARK    1  A    between atoms: C_1  and  N_2
REMARK    2  A    between atoms: N_2  and  C_3
REMARK    3  A    between atoms: C_3  and  C_4
REMARK    4  A    between atoms: C_4  and  C_5
REMARK    5  A    between atoms: C_5  and  S_6
REMARK    6  A    between atoms: S_6  and  C_9
REMARK    7  A    between atoms: C_9  and  C_10
REMARK                            x       y       z     vdW  Elec       q    Type
REMARK                         _______ _______ _______ _____ _____    ______ ____
ROOT
ATOM      1  S   UNL     1       2.455   4.510  19.684  0.00  0.00    +0.000 S 
ATOM      2  O   UNL     1       1.453   4.505  18.635  0.00  0.00    +0.000 OA
ATOM      3  O   UNL     1       2.102   4.292  21.075  0.00  0.00    +0.000 OA
ENDROOT
BRANCH   1   4
ATOM      4  C   UNL     1       3.636   3.213  19.262  0.00  0.00    +0.000 C 
BRANCH   4   5
ATOM      5  C   UNL     1       4.805   3.825  18.505  0.00  0.00    +0.000 C 
BRANCH   5   6
ATOM      6  C   UNL     1       4.727   3.799  16.998  0.00  0.00    +0.000 C 
BRANCH   6   8
ATOM      7  C   UNL     1       6.133   3.848  14.973  0.00  0.00    +0.000 C 
ATOM      8  N   UNL     1       5.906   4.564  16.328  0.00  0.00    +0.000 N 
ATOM      9  C   UNL     1       7.250   4.459  17.118  0.00  0.00    +0.000 C 
ATOM     10  C   UNL     1       7.451   5.570  18.160  0.00  0.00    +0.000 C 
ATOM     11  O   UNL     1       7.275   6.863  17.580  0.00  0.00    +0.000 OA
ATOM     12  C   UNL     1       5.939   7.041  17.119  0.00  0.00    +0.000 C 
ATOM     13  C   UNL     1       5.599   6.056  15.990  0.00  0.00    +0.000 C 
ENDBRANCH   6   8
ENDBRANCH   5   6
ENDBRANCH   4   5
ENDBRANCH   1   4
BRANCH   1  14
ATOM     14  C   UNL     1       3.433   6.012  19.550  0.00  0.00    +0.000 C 
BRANCH  14  15
ATOM     15  C   UNL     1       2.541   7.203  19.362  0.00  0.00    +0.000 A 
ATOM     16  C   UNL     1       1.812   7.729  20.442  0.00  0.00    +0.000 A 
ATOM     17  C   UNL     1       1.004   8.853  20.267  0.00  0.00    +0.000 A 
ATOM     18  C   UNL     1       0.920   9.456  19.015  0.00  0.00    +0.000 A 
ATOM     19 BR   UNL     1      -0.173  10.979  18.776  0.00  0.00    +0.000 Br
ATOM     20  C   UNL     1       1.634   8.943  17.934  0.00  0.00    +0.000 A 
ATOM     21  C   UNL     1       2.441   7.818  18.107  0.00  0.00    +0.000 A 
ENDBRANCH  14  15
ENDBRANCH   1  14
TORSDOF 6
ENDMDL
MODEL 3
REMARK VINA RESULT:      -6.4      3.799      6.789
REMARK  Name = 
REMARK  7 active torsions:
REMARK  status: ('A' for Active; 'I' for Inactive)
REMARK    1  A    between atoms: C_1  and  N_2
REMARK    2  A    between atoms: N_2  and  C_3
REMARK    3  A    between atoms: C_3  and  C_4
REMARK    4  A    between atoms: C_4  and  C_5
REMARK    5  A    between atoms: C_5  and  S_6
REMARK    6  A    between atoms: S_6  and  C_9
REMARK    7  A    between atoms: C_9  and  C_10
REMARK                            x       y       z     vdW  Elec       q    Type
REMARK                         _______ _______ _______ _____ _____    ______ ____
ROOT
ATOM      1  S   UNL     1       2.156   4.973  19.379  0.00  0.00    +0.000 S 
ATOM      2  O   UNL     1       1.709   4.907  18.001  0.00  0.00    +0.000 OA
ATOM      3  O   UNL     1       1.236   4.802  20.487  0.00  0.00    +0.000 OA
ENDROOT
BRANCH   1   4
ATOM      4  C   UNL     1       3.405   3.684  19.567  0.00  0.00    +0.000 C 
BRANCH   4   5
ATOM      5  C   UNL     1       4.771   4.253  19.213  0.00  0.00    +0.000 C 
BRANCH   5   6
ATOM      6  C   UNL     1       5.420   3.729  17.955  0.00  0.00    +0.000 C 
BRANCH   6   8
ATOM      7  C   UNL     1       7.698   4.669  18.051  0.00  0.00    +0.000 C 
ATOM      8  N   UNL     1       6.355   4.780  17.287  0.00  0.00    +0.000 N 
ATOM      9  C   UNL     1       5.864   6.253  17.458  0.00  0.00    +0.000 C 
ATOM     10  C   UNL     1       4.934   6.738  16.335  0.00  0.00    +0.000 C 
ATOM     11  O   UNL     1       5.514   6.516  15.050  0.00  0.00    +0.000 OA
ATOM     12  C   UNL     1       5.688   5.125  14.797  0.00  0.00    +0.000 C 
ATOM     13  C   UNL     1       6.678   4.495  15.787  0.00  0.00    +0.000 C 
ENDBRANCH   6   8
ENDBRANCH   5   6
ENDBRANCH   4   5
ENDBRANCH   1   4
BRANCH   1  14
ATOM     14  C   UNL     1       3.094   6.488  19.617  0.00  0.00    +0.000 C 
BRANCH  14  15
ATOM     15  C   UNL     1       2.214   7.685  19.416  0.00  0.00    +0.000 A 
ATOM     16  C   UNL     1       2.087   8.275  18.147  0.00  0.00    +0.000 A 
ATOM     17  C   UNL     1       1.245   9.372  17.960  0.00  0.00    +0.000 A 
ATOM     18  C   UNL     1       0.528   9.884  19.038  0.00  0.00    +0.000 A 
ATOM     19 BR   UNL     1      -0.614  11.370  18.787  0.00  0.00    +0.000 Br
ATOM     20  C   UNL     1       0.647   9.312  20.303  0.00  0.00    +0.000 A 
ATOM     21  C   UNL     1       1.489   8.216  20.491  0.00  0.00    +0.000 A 
ENDBRANCH  14  15
ENDBRANCH   1  14
TORSDOF 6
ENDMDL
MODEL 4
REMARK VINA RESULT:      -6.3      1.074      1.218
REMARK  Name = 
REMARK  7 active torsions:
REMARK  status: ('A' for Active; 'I' for Inactive)
REMARK    1  A    between atoms: C_1  and  N_2
REMARK    2  A    between atoms: N_2  and  C_3
REMARK    3  A    between atoms: C_3  and  C_4
REMARK    4  A    between atoms: C_4  and  C_5
REMARK    5  A    between atoms: C_5  and  S_6
REMARK    6  A    between atoms: S_6  and  C_9
REMARK    7  A    between atoms: C_9  and  C_10
REMARK                            x       y       z     vdW  Elec       q    Type
REMARK                         _______ _______ _______ _____ _____    ______ ____
ROOT
ATOM      1  S   UNL     1       7.308   5.672  18.072  0.00  0.00    +0.000 S 
ATOM      2  O   UNL     1       8.087   6.748  18.654  0.00  0.00    +0.000 OA
ATOM      3  O   UNL     1       7.930   4.450  17.600  0.00  0.00    +0.000 OA
ENDROOT
BRANCH   1   4
ATOM      4  C   UNL     1       6.118   5.170  19.332  0.00  0.00    +0.000 C 
BRANCH   4   5
ATOM      5  C   UNL     1       4.717   5.202  18.740  0.00  0.00    +0.000 C 
BRANCH   5   6
ATOM      6  C   UNL     1       3.576   5.421  19.705  0.00  0.00    +0.000 C 
BRANCH   6   8
ATOM      7  C   UNL     1       1.428   4.687  20.666  0.00  0.00    +0.000 C 
ATOM      8  N   UNL     1       2.514   4.285  19.638  0.00  0.00    +0.000 N 
ATOM      9  C   UNL     1       3.059   2.891  20.086  0.00  0.00    +0.000 C 
ATOM     10  C   UNL     1       3.657   2.056  18.944  0.00  0.00    +0.000 C 
ATOM     11  O   UNL     1       2.746   1.943  17.851  0.00  0.00    +0.000 OA
ATOM     12  C   UNL     1       2.485   3.216  17.267  0.00  0.00    +0.000 C 
ATOM     13  C   UNL     1       1.790   4.158  18.261  0.00  0.00    +0.000 C 
ENDBRANCH   6   8
ENDBRANCH   5   6
ENDBRANCH   4   5
ENDBRANCH   1   4
BRANCH   1  14
ATOM     14  C   UNL     1       6.265   6.345  16.770  0.00  0.00    +0.000 C 
BRANCH  14  15
ATOM     15  C   UNL     1       6.295   5.456  15.564  0.00  0.00    +0.000 A 
ATOM     16  C   UNL     1       5.281   4.507  15.348  0.00  0.00    +0.000 A 
ATOM     17  C   UNL     1       5.300   3.701  14.209  0.00  0.00    +0.000 A 
ATOM     18  C   UNL     1       6.330   3.838  13.283  0.00  0.00    +0.000 A 
ATOM     19 BR   UNL     1       6.357   2.747  11.739  0.00  0.00    +0.000 Br
ATOM     20  C   UNL     1       7.344   4.771  13.486  0.00  0.00    +0.000 A 
ATOM     21  C   UNL     1       7.328   5.577  14.624  0.00  0.00    +0.000 A 
ENDBRANCH  14  15
ENDBRANCH   1  14
TORSDOF 6
ENDMDL
MODEL 5
REMARK VINA RESULT:      -6.3      3.634      6.841
REMARK  Name = 
REMARK  7 active torsions:
REMARK  status: ('A' for Active; 'I' for Inactive)
REMARK    1  A    between atoms: C_1  and  N_2
REMARK    2  A    between atoms: N_2  and  C_3
REMARK    3  A    between atoms: C_3  and  C_4
REMARK    4  A    between atoms: C_4  and  C_5
REMARK    5  A    between atoms: C_5  and  S_6
REMARK    6  A    between atoms: S_6  and  C_9
REMARK    7  A    between atoms: C_9  and  C_10
REMARK                            x       y       z     vdW  Elec       q    Type
REMARK                         _______ _______ _______ _____ _____    ______ ____
ROOT
ATOM      1  S   UNL     1       1.780   4.439  18.841  0.00  0.00    +0.000 S 
ATOM      2  O   UNL     1       1.241   4.789  17.541  0.00  0.00    +0.000 OA
ATOM      3  O   UNL     1       0.916   4.113  19.960  0.00  0.00    +0.000 OA
ENDROOT
BRANCH   1   4
ATOM      4  C   UNL     1       2.826   2.992  18.583  0.00  0.00    +0.000 C 
BRANCH   4   5
ATOM      5  C   UNL     1       3.841   3.295  17.490  0.00  0.00    +0.000 C 
BRANCH   5   6
ATOM      6  C   UNL     1       5.177   3.841  17.935  0.00  0.00    +0.000 C 
BRANCH   6   8
ATOM      7  C   UNL     1       5.942   3.601  15.604  0.00  0.00    +0.000 C 
ATOM      8  N   UNL     1       5.922   4.592  16.794  0.00  0.00    +0.000 N 
ATOM      9  C   UNL     1       7.414   4.916  17.129  0.00  0.00    +0.000 C 
ATOM     10  C   UNL     1       7.620   6.275  17.816  0.00  0.00    +0.000 C 
ATOM     11  O   UNL     1       6.999   7.328  17.079  0.00  0.00    +0.000 OA
ATOM     12  C   UNL     1       5.585   7.159  17.034  0.00  0.00    +0.000 C 
ATOM     13  C   UNL     1       5.197   5.876  16.284  0.00  0.00    +0.000 C 
ENDBRANCH   6   8
ENDBRANCH   5   6
ENDBRANCH   4   5
ENDBRANCH   1   4
BRANCH   1  14
ATOM     14  C   UNL     1       2.952   5.705  19.348  0.00  0.00    +0.000 C 
BRANCH  14  15
ATOM     15  C   UNL     1       2.315   7.062  19.286  0.00  0.00    +0.000 A 
ATOM     16  C   UNL     1       2.292   7.787  18.084  0.00  0.00    +0.000 A 
ATOM     17  C   UNL     1       1.674   9.037  18.025  0.00  0.00    +0.000 A 
ATOM     18  C   UNL     1       1.078   9.567  19.167  0.00  0.00    +0.000 A 
ATOM     19 BR   UNL     1       0.240  11.259  19.090  0.00  0.00    +0.000 Br
ATOM     20  C   UNL     1       1.097   8.860  20.367  0.00  0.00    +0.000 A 
ATOM     21  C   UNL     1       1.715   7.612  20.427  0.00  0.00    +0.000 A 
ENDBRANCH  14  15
ENDBRANCH   1  14
TORSDOF 6
ENDMDL
MODEL 6
REMARK VINA RESULT:      -6.1      1.491      2.325
REMARK  Name = 
REMARK  7 active torsions:
REMARK  status: ('A' for Active; 'I' for Inactive)
REMARK    1  A    between atoms: C_1  and  N_2
REMARK    2  A    between atoms: N_2  and  C_3
REMARK    3  A    between atoms: C_3  and  C_4
REMARK    4  A    between atoms: C_4  and  C_5
REMARK    5  A    between atoms: C_5  and  S_6
REMARK    6  A    between atoms: S_6  and  C_9
REMARK    7  A    between atoms: C_9  and  C_10
REMARK                            x       y       z     vdW  Elec       q    Type
REMARK                         _______ _______ _______ _____ _____    ______ ____
ROOT
ATOM      1  S   UNL     1       7.099   5.781  16.784  0.00  0.00    +0.000 S 
ATOM      2  O   UNL     1       7.747   7.067  16.959  0.00  0.00    +0.000 OA
ATOM      3  O   UNL     1       7.862   4.571  16.540  0.00  0.00    +0.000 OA
ENDROOT
BRANCH   1   4
ATOM      4  C   UNL     1       6.157   5.480  18.292  0.00  0.00    +0.000 C 
BRANCH   4   5
ATOM      5  C   UNL     1       5.545   4.087  18.233  0.00  0.00    +0.000 C 
BRANCH   5   6
ATOM      6  C   UNL     1       4.578   3.722  19.333  0.00  0.00    +0.000 C 
BRANCH   6   8
ATOM      7  C   UNL     1       3.180   3.582  17.307  0.00  0.00    +0.000 C 
ATOM      8  N   UNL     1       3.099   3.717  18.847  0.00  0.00    +0.000 N 
ATOM      9  C   UNL     1       2.340   5.051  19.139  0.00  0.00    +0.000 C 
ATOM     10  C   UNL     1       1.629   5.082  20.501  0.00  0.00    +0.000 C 
ATOM     11  O   UNL     1       0.787   3.943  20.673  0.00  0.00    +0.000 OA
ATOM     12  C   UNL     1       1.548   2.739  20.692  0.00  0.00    +0.000 C 
ATOM     13  C   UNL     1       2.258   2.502  19.351  0.00  0.00    +0.000 C 
ENDBRANCH   6   8
ENDBRANCH   5   6
ENDBRANCH   4   5
ENDBRANCH   1   4
BRANCH   1  14
ATOM     14  C   UNL     1       5.821   5.937  15.528  0.00  0.00    +0.000 C 
BRANCH  14  15
ATOM     15  C   UNL     1       6.113   5.031  14.369  0.00  0.00    +0.000 A 
ATOM     16  C   UNL     1       7.272   5.211  13.595  0.00  0.00    +0.000 A 
ATOM     17  C   UNL     1       7.553   4.348  12.535  0.00  0.00    +0.000 A 
ATOM     18  C   UNL     1       6.679   3.304  12.243  0.00  0.00    +0.000 A 
ATOM     19 BR   UNL     1       7.058   2.135  10.808  0.00  0.00    +0.000 Br
ATOM     20  C   UNL     1       5.524   3.117  13.000  0.00  0.00    +0.000 A 
ATOM     21  C   UNL     1       5.241   3.980  14.059  0.00  0.00    +0.000 A 
ENDBRANCH  14  15
ENDBRANCH   1  14
TORSDOF 6
ENDMDL
MODEL 7
REMARK VINA RESULT:      -6.1      1.350      2.339
REMARK  Name = 
REMARK  7 active torsions:
REMARK  status: ('A' for Active; 'I' for Inactive)
REMARK    1  A    between atoms: C_1  and  N_2
REMARK    2  A    between atoms: N_2  and  C_3
REMARK    3  A    between atoms: C_3  and  C_4
REMARK    4  A    between atoms: C_4  and  C_5
REMARK    5  A    between atoms: C_5  and  S_6
REMARK    6  A    between atoms: S_6  and  C_9
REMARK    7  A    between atoms: C_9  and  C_10
REMARK                            x       y       z     vdW  Elec       q    Type
REMARK                         _______ _______ _______ _____ _____    ______ ____
ROOT
ATOM      1  S   UNL     1       7.254   6.308  17.785  0.00  0.00    +0.000 S 
ATOM      2  O   UNL     1       7.326   7.241  16.676  0.00  0.00    +0.000 OA
ATOM      3  O   UNL     1       7.976   6.539  19.023  0.00  0.00    +0.000 OA
ENDROOT
BRANCH   1   4
ATOM      4  C   UNL     1       5.512   6.195  18.239  0.00  0.00    +0.000 C 
BRANCH   4   5
ATOM      5  C   UNL     1       5.305   4.987  19.141  0.00  0.00    +0.000 C 
BRANCH   5   6
ATOM      6  C   UNL     1       3.943   4.838  19.775  0.00  0.00    +0.000 C 
BRANCH   6   8
ATOM      7  C   UNL     1       4.625   2.474  19.943  0.00  0.00    +0.000 C 
ATOM      8  N   UNL     1       3.399   3.382  19.678  0.00  0.00    +0.000 N 
ATOM      9  C   UNL     1       2.864   3.007  18.259  0.00  0.00    +0.000 C 
ATOM     10  C   UNL     1       1.372   3.311  18.052  0.00  0.00    +0.000 C 
ATOM     11  O   UNL     1       0.577   2.737  19.089  0.00  0.00    +0.000 OA
ATOM     12  C   UNL     1       0.888   3.312  20.354  0.00  0.00    +0.000 C 
ATOM     13  C   UNL     1       2.339   3.016  20.764  0.00  0.00    +0.000 C 
ENDBRANCH   6   8
ENDBRANCH   5   6
ENDBRANCH   4   5
ENDBRANCH   1   4
BRANCH   1  14
ATOM     14  C   UNL     1       7.627   4.655  17.183  0.00  0.00    +0.000 C 
BRANCH  14  15
ATOM     15  C   UNL     1       6.933   4.406  15.877  0.00  0.00    +0.000 A 
ATOM     16  C   UNL     1       7.525   4.798  14.665  0.00  0.00    +0.000 A 
ATOM     17  C   UNL     1       6.886   4.539  13.451  0.00  0.00    +0.000 A 
ATOM     18  C   UNL     1       5.656   3.888  13.444  0.00  0.00    +0.000 A 
ATOM     19 BR   UNL     1       4.790   3.535  11.801  0.00  0.00    +0.000 Br
ATOM     20  C   UNL     1       5.055   3.496  14.638  0.00  0.00    +0.000 A 
ATOM     21  C   UNL     1       5.691   3.756  15.852  0.00  0.00    +0.000 A 
ENDBRANCH  14  15
ENDBRANCH   1  14
TORSDOF 6
ENDMDL
MODEL 8
REMARK VINA RESULT:      -6.1      3.489      6.632
REMARK  Name = 
REMARK  7 active torsions:
REMARK  status: ('A' for Active; 'I' for Inactive)
REMARK    1  A    between atoms: C_1  and  N_2
REMARK    2  A    between atoms: N_2  and  C_3
REMARK    3  A    between atoms: C_3  and  C_4
REMARK    4  A    between atoms: C_4  and  C_5
REMARK    5  A    between atoms: C_5  and  S_6
REMARK    6  A    between atoms: S_6  and  C_9
REMARK    7  A    between atoms: C_9  and  C_10
REMARK                            x       y       z     vdW  Elec       q    Type
REMARK                         _______ _______ _______ _____ _____    ______ ____
ROOT
ATOM      1  S   UNL     1       1.721   3.603  19.687  0.00  0.00    +0.000 S 
ATOM      2  O   UNL     1       1.134   4.192  18.499  0.00  0.00    +0.000 OA
ATOM      3  O   UNL     1       0.918   2.879  20.655  0.00  0.00    +0.000 OA
ENDROOT
BRANCH   1   4
ATOM      4  C   UNL     1       2.972   2.439  19.110  0.00  0.00    +0.000 C 
BRANCH   4   5
ATOM      5  C   UNL     1       4.275   3.186  18.859  0.00  0.00    +0.000 C 
BRANCH   5   6
ATOM      6  C   UNL     1       4.534   3.644  17.445  0.00  0.00    +0.000 C 
BRANCH   6   8
ATOM      7  C   UNL     1       5.981   5.073  18.839  0.00  0.00    +0.000 C 
ATOM      8  N   UNL     1       5.644   4.733  17.366  0.00  0.00    +0.000 N 
ATOM      9  C   UNL     1       5.169   6.064  16.698  0.00  0.00    +0.000 C 
ATOM     10  C   UNL     1       5.371   6.106  15.176  0.00  0.00    +0.000 C 
ATOM     11  O   UNL     1       6.715   5.783  14.821  0.00  0.00    +0.000 OA
ATOM     12  C   UNL     1       7.036   4.445  15.188  0.00  0.00    +0.000 C 
ATOM     13  C   UNL     1       6.975   4.251  16.711  0.00  0.00    +0.000 C 
ENDBRANCH   6   8
ENDBRANCH   5   6
ENDBRANCH   4   5
ENDBRANCH   1   4
BRANCH   1  14
ATOM     14  C   UNL     1       2.690   4.854  20.542  0.00  0.00    +0.000 C 
BRANCH  14  15
ATOM     15  C   UNL     1       2.280   6.227  20.097  0.00  0.00    +0.000 A 
ATOM     16  C   UNL     1       2.667   6.716  18.838  0.00  0.00    +0.000 A 
ATOM     17  C   UNL     1       2.260   7.983  18.418  0.00  0.00    +0.000 A 
ATOM     18  C   UNL     1       1.466   8.766  19.253  0.00  0.00    +0.000 A 
ATOM     19 BR   UNL     1       0.913  10.482  18.686  0.00  0.00    +0.000 Br
ATOM     20  C   UNL     1       1.078   8.295  20.505  0.00  0.00    +0.000 A 
ATOM     21  C   UNL     1       1.486   7.029  20.927  0.00  0.00    +0.000 A 
ENDBRANCH  14  15
ENDBRANCH   1  14
TORSDOF 6
ENDMDL
MODEL 9
REMARK VINA RESULT:      -6.1      1.461      2.348
REMARK  Name = 
REMARK  7 active torsions:
REMARK  status: ('A' for Active; 'I' for Inactive)
REMARK    1  A    between atoms: C_1  and  N_2
REMARK    2  A    between atoms: N_2  and  C_3
REMARK    3  A    between atoms: C_3  and  C_4
REMARK    4  A    between atoms: C_4  and  C_5
REMARK    5  A    between atoms: C_5  and  S_6
REMARK    6  A    between atoms: S_6  and  C_9
REMARK    7  A    between atoms: C_9  and  C_10
REMARK                            x       y       z     vdW  Elec       q    Type
REMARK                         _______ _______ _______ _____ _____    ______ ____
ROOT
ATOM      1  S   UNL     1       7.170   6.230  17.738  0.00  0.00    +0.000 S 
ATOM      2  O   UNL     1       7.423   7.269  16.758  0.00  0.00    +0.000 OA
ATOM      3  O   UNL     1       7.649   6.338  19.104  0.00  0.00    +0.000 OA
ENDROOT
BRANCH   1   4
ATOM      4  C   UNL     1       5.376   6.069  17.852  0.00  0.00    +0.000 C 
BRANCH   4   5
ATOM      5  C   UNL     1       5.019   5.321  19.129  0.00  0.00    +0.000 C 
BRANCH   5   6
ATOM      6  C   UNL     1       4.588   3.883  18.976  0.00  0.00    +0.000 C 
BRANCH   6   8
ATOM      7  C   UNL     1       2.681   3.602  17.439  0.00  0.00    +0.000 C 
ATOM      8  N   UNL     1       3.040   3.727  18.941  0.00  0.00    +0.000 N 
ATOM      9  C   UNL     1       2.272   4.976  19.480  0.00  0.00    +0.000 C 
ATOM     10  C   UNL     1       1.990   4.933  20.990  0.00  0.00    +0.000 C 
ATOM     11  O   UNL     1       1.350   3.713  21.364  0.00  0.00    +0.000 OA
ATOM     12  C   UNL     1       2.197   2.594  21.125  0.00  0.00    +0.000 C 
ATOM     13  C   UNL     1       2.505   2.432  19.629  0.00  0.00    +0.000 C 
ENDBRANCH   6   8
ENDBRANCH   5   6
ENDBRANCH   4   5
ENDBRANCH   1   4
BRANCH   1  14
ATOM     14  C   UNL     1       7.680   4.646  17.056  0.00  0.00    +0.000 C 
BRANCH  14  15
ATOM     15  C   UNL     1       6.981   4.388  15.755  0.00  0.00    +0.000 A 
ATOM     16  C   UNL     1       7.523   4.856  14.546  0.00  0.00    +0.000 A 
ATOM     17  C   UNL     1       6.882   4.590  13.335  0.00  0.00    +0.000 A 
ATOM     18  C   UNL     1       5.699   3.856  13.327  0.00  0.00    +0.000 A 
ATOM     19 BR   UNL     1       4.830   3.493  11.688  0.00  0.00    +0.000 Br
ATOM     20  C   UNL     1       5.148   3.389  14.518  0.00  0.00    +0.000 A 
ATOM     21  C   UNL     1       5.786   3.656  15.729  0.00  0.00    +0.000 A 
ENDBRANCH  14  15
ENDBRANCH   1  14
TORSDOF 6
ENDMDL
