MODEL 1
REMARK VINA RESULT:      -8.0      0.000      0.000
REMARK  Name = 
REMARK  4 active torsions:
REMARK  status: ('A' for Active; 'I' for Inactive)
REMARK    1  A    between atoms: C_5  and  N_6
REMARK    2  A    between atoms: N_9  and  C_10
REMARK    3  A    between atoms: C_14  and  C_15
REMARK    4  A    between atoms: C_24  and  N_25
REMARK                            x       y       z     vdW  Elec       q    Type
REMARK                         _______ _______ _______ _____ _____    ______ ____
ROOT
ATOM      1  N   UNL     1      -1.088  11.328  22.132  0.00  0.00    +0.000 N 
ATOM      2  C   UNL     1      -1.081  11.432  20.665  0.00  0.00    +0.000 C 
ATOM      3  C   UNL     1       0.367  11.267  20.157  0.00  0.00    +0.000 C 
ATOM      4  N   UNL     1       0.950  10.006  20.653  0.00  0.00    +0.000 N 
ATOM      5  C   UNL     1       0.905   9.836  22.122  0.00  0.00    +0.000 C 
ATOM      6  C   UNL     1      -0.533  10.065  22.656  0.00  0.00    +0.000 C 
ENDROOT
BRANCH   1  11
ATOM      7  N   UNL     1      -3.888  15.054  25.035  0.00  0.00    +0.000 N 
ATOM      8  C   UNL     1      -3.154  14.108  24.352  0.00  0.00    +0.000 A 
ATOM      9  N   UNL     1      -3.677  12.890  24.245  0.00  0.00    +0.000 NA
ATOM     10  C   UNL     1      -2.953  11.996  23.537  0.00  0.00    +0.000 A 
ATOM     11  C   UNL     1      -1.735  12.251  22.923  0.00  0.00    +0.000 A 
ATOM     12  C   UNL     1      -1.298  13.561  23.144  0.00  0.00    +0.000 A 
ATOM     13  N   UNL     1      -1.973  14.482  23.858  0.00  0.00    +0.000 NA
ATOM     14  H   UNL     1      -4.511  14.592  25.682  0.00  0.00    +0.000 HD
ATOM     15  H   UNL     1      -3.270  15.762  25.405  0.00  0.00    +0.000 HD
BRANCH  12  16
ATOM     16  N   UNL     1      -0.109  14.040  22.563  0.00  0.00    +0.000 N 
ATOM     17  H   UNL     1       0.676  13.583  23.013  0.00  0.00    +0.000 HD
ATOM     18  H   UNL     1      -0.165  13.825  21.571  0.00  0.00    +0.000 HD
ENDBRANCH  12  16
ENDBRANCH   1  11
BRANCH   4  19
ATOM     19  C   UNL     1       1.470   9.050  19.808  0.00  0.00    +0.000 A 
ATOM     20  C   UNL     1       1.785   9.336  18.476  0.00  0.00    +0.000 A 
ATOM     21  C   UNL     1       2.311   8.364  17.624  0.00  0.00    +0.000 A 
ATOM     22  C   UNL     1       2.538   7.071  18.093  0.00  0.00    +0.000 A 
ATOM     23  C   UNL     1       2.234   6.721  19.416  0.00  0.00    +0.000 A 
ATOM     24  C   UNL     1       1.708   7.734  20.245  0.00  0.00    +0.000 A 
BRANCH  23  25
ATOM     25  C   UNL     1       2.441   5.345  19.920  0.00  0.00    +0.000 A 
ATOM     26  C   UNL     1       1.532   4.731  20.793  0.00  0.00    +0.000 A 
ATOM     27  C   UNL     1       1.752   3.434  21.258  0.00  0.00    +0.000 A 
ATOM     28  C   UNL     1       2.895   2.774  20.845  0.00  0.00    +0.000 A 
ATOM     29  N   UNL     1       3.808   3.316  20.015  0.00  0.00    +0.000 NA
ATOM     30  C   UNL     1       3.555   4.575  19.574  0.00  0.00    +0.000 A 
ENDBRANCH  23  25
ENDBRANCH   4  19
TORSDOF 4
ENDMDL
MODEL 2
REMARK VINA RESULT:      -7.8      2.855      4.302
REMARK  Name = 
REMARK  4 active torsions:
REMARK  status: ('A' for Active; 'I' for Inactive)
REMARK    1  A    between atoms: C_5  and  N_6
REMARK    2  A    between atoms: N_9  and  C_10
REMARK    3  A    between atoms: C_14  and  C_15
REMARK    4  A    between atoms: C_24  and  N_25
REMARK                            x       y       z     vdW  Elec       q    Type
REMARK                         _______ _______ _______ _____ _____    ______ ____
ROOT
ATOM      1  N   UNL     1       0.157  10.128  19.624  0.00  0.00    +0.000 N 
ATOM      2  C   UNL     1       0.544   9.709  18.268  0.00  0.00    +0.000 C 
ATOM      3  C   UNL     1       1.978   9.139  18.310  0.00  0.00    +0.000 C 
ATOM      4  N   UNL     1       2.077   8.054  19.304  0.00  0.00    +0.000 N 
ATOM      5  C   UNL     1       1.636   8.419  20.668  0.00  0.00    +0.000 C 
ATOM      6  C   UNL     1       0.221   9.055  20.635  0.00  0.00    +0.000 C 
ENDROOT
BRANCH   1  11
ATOM      7  N   UNL     1      -2.071  15.104  20.279  0.00  0.00    +0.000 N 
ATOM      8  C   UNL     1      -1.517  13.846  20.169  0.00  0.00    +0.000 A 
ATOM      9  N   UNL     1      -2.318  12.859  19.777  0.00  0.00    +0.000 NA
ATOM     10  C   UNL     1      -1.738  11.646  19.642  0.00  0.00    +0.000 A 
ATOM     11  C   UNL     1      -0.400  11.363  19.871  0.00  0.00    +0.000 A 
ATOM     12  C   UNL     1       0.310  12.489  20.302  0.00  0.00    +0.000 A 
ATOM     13  N   UNL     1      -0.226  13.712  20.472  0.00  0.00    +0.000 NA
ATOM     14  H   UNL     1      -3.066  15.021  20.431  0.00  0.00    +0.000 HD
ATOM     15  H   UNL     1      -1.540  15.652  20.939  0.00  0.00    +0.000 HD
BRANCH  12  16
ATOM     16  N   UNL     1       1.696  12.428  20.539  0.00  0.00    +0.000 N 
ATOM     17  H   UNL     1       2.079  11.648  20.016  0.00  0.00    +0.000 HD
ATOM     18  H   UNL     1       2.080  13.320  20.239  0.00  0.00    +0.000 HD
ENDBRANCH  12  16
ENDBRANCH   1  11
BRANCH   4  19
ATOM     19  C   UNL     1       2.519   6.790  18.978  0.00  0.00    +0.000 A 
ATOM     20  C   UNL     1       1.999   5.647  19.593  0.00  0.00    +0.000 A 
ATOM     21  C   UNL     1       2.449   4.369  19.259  0.00  0.00    +0.000 A 
ATOM     22  C   UNL     1       3.438   4.206  18.290  0.00  0.00    +0.000 A 
ATOM     23  C   UNL     1       4.004   5.314  17.645  0.00  0.00    +0.000 A 
ATOM     24  C   UNL     1       3.518   6.588  18.008  0.00  0.00    +0.000 A 
BRANCH  23  25
ATOM     25  C   UNL     1       5.075   5.160  16.636  0.00  0.00    +0.000 A 
ATOM     26  C   UNL     1       5.012   4.185  15.631  0.00  0.00    +0.000 A 
ATOM     27  C   UNL     1       6.037   4.055  14.694  0.00  0.00    +0.000 A 
ATOM     28  C   UNL     1       7.123   4.905  14.789  0.00  0.00    +0.000 A 
ATOM     29  N   UNL     1       7.244   5.855  15.737  0.00  0.00    +0.000 NA
ATOM     30  C   UNL     1       6.222   5.960  16.625  0.00  0.00    +0.000 A 
ENDBRANCH  23  25
ENDBRANCH   4  19
TORSDOF 4
ENDMDL
MODEL 3
REMARK VINA RESULT:      -7.7      3.614      9.217
REMARK  Name = 
REMARK  4 active torsions:
REMARK  status: ('A' for Active; 'I' for Inactive)
REMARK    1  A    between atoms: C_5  and  N_6
REMARK    2  A    between atoms: N_9  and  C_10
REMARK    3  A    between atoms: C_14  and  C_15
REMARK    4  A    between atoms: C_24  and  N_25
REMARK                            x       y       z     vdW  Elec       q    Type
REMARK                         _______ _______ _______ _____ _____    ______ ____
ROOT
ATOM      1  N   UNL     1       2.271   5.884  19.535  0.00  0.00    +0.000 N 
ATOM      2  C   UNL     1       1.421   6.303  20.660  0.00  0.00    +0.000 C 
ATOM      3  C   UNL     1       1.725   7.779  20.996  0.00  0.00    +0.000 C 
ATOM      4  N   UNL     1       1.566   8.628  19.800  0.00  0.00    +0.000 N 
ATOM      5  C   UNL     1       2.358   8.201  18.626  0.00  0.00    +0.000 C 
ATOM      6  C   UNL     1       2.113   6.700  18.316  0.00  0.00    +0.000 C 
ENDROOT
BRANCH   1  11
ATOM      7  N   UNL     1       5.158   1.238  20.009  0.00  0.00    +0.000 N 
ATOM      8  C   UNL     1       4.431   2.396  19.835  0.00  0.00    +0.000 A 
ATOM      9  N   UNL     1       3.119   2.331  20.045  0.00  0.00    +0.000 NA
ATOM     10  C   UNL     1       2.440   3.490  19.904  0.00  0.00    +0.000 A 
ATOM     11  C   UNL     1       2.997   4.715  19.570  0.00  0.00    +0.000 A 
ATOM     12  C   UNL     1       4.377   4.625  19.353  0.00  0.00    +0.000 A 
ATOM     13  N   UNL     1       5.094   3.491  19.461  0.00  0.00    +0.000 NA
ATOM     14  H   UNL     1       4.552   0.439  19.882  0.00  0.00    +0.000 HD
ATOM     15  H   UNL     1       6.001   1.280  19.455  0.00  0.00    +0.000 HD
BRANCH  12  16
ATOM     16  N   UNL     1       5.144   5.767  19.056  0.00  0.00    +0.000 N 
ATOM     17  H   UNL     1       4.999   6.452  19.789  0.00  0.00    +0.000 HD
ATOM     18  H   UNL     1       6.110   5.459  18.999  0.00  0.00    +0.000 HD
ENDBRANCH  12  16
ENDBRANCH   1  11
BRANCH   4  19
ATOM     19  C   UNL     1       0.722   9.716  19.773  0.00  0.00    +0.000 A 
ATOM     20  C   UNL     1       0.858  10.777  20.674  0.00  0.00    +0.000 A 
ATOM     21  C   UNL     1       0.001  11.877  20.642  0.00  0.00    +0.000 A 
ATOM     22  C   UNL     1      -1.021  11.941  19.696  0.00  0.00    +0.000 A 
ATOM     23  C   UNL     1      -1.214  10.904  18.772  0.00  0.00    +0.000 A 
ATOM     24  C   UNL     1      -0.323   9.813  18.835  0.00  0.00    +0.000 A 
BRANCH  23  25
ATOM     25  C   UNL     1      -2.312  10.944  17.782  0.00  0.00    +0.000 A 
ATOM     26  C   UNL     1      -2.184  10.369  16.509  0.00  0.00    +0.000 A 
ATOM     27  C   UNL     1      -3.233  10.424  15.591  0.00  0.00    +0.000 A 
ATOM     28  C   UNL     1      -4.398  11.070  15.963  0.00  0.00    +0.000 A 
ATOM     29  N   UNL     1      -4.576  11.647  17.168  0.00  0.00    +0.000 NA
ATOM     30  C   UNL     1      -3.539  11.565  18.039  0.00  0.00    +0.000 A 
ENDBRANCH  23  25
ENDBRANCH   4  19
TORSDOF 4
ENDMDL
MODEL 4
REMARK VINA RESULT:      -7.7      3.020      4.652
REMARK  Name = 
REMARK  4 active torsions:
REMARK  status: ('A' for Active; 'I' for Inactive)
REMARK    1  A    between atoms: C_5  and  N_6
REMARK    2  A    between atoms: N_9  and  C_10
REMARK    3  A    between atoms: C_14  and  C_15
REMARK    4  A    between atoms: C_24  and  N_25
REMARK                            x       y       z     vdW  Elec       q    Type
REMARK                         _______ _______ _______ _____ _____    ______ ____
ROOT
ATOM      1  N   UNL     1       0.263  10.024  19.315  0.00  0.00    +0.000 N 
ATOM      2  C   UNL     1       0.745   9.608  17.989  0.00  0.00    +0.000 C 
ATOM      3  C   UNL     1       2.177   9.050  18.128  0.00  0.00    +0.000 C 
ATOM      4  N   UNL     1       2.218   7.966  19.127  0.00  0.00    +0.000 N 
ATOM      5  C   UNL     1       1.683   8.327  20.458  0.00  0.00    +0.000 C 
ATOM      6  C   UNL     1       0.268   8.952  20.329  0.00  0.00    +0.000 C 
ENDROOT
BRANCH   1  11
ATOM      7  N   UNL     1      -2.118  14.837  20.464  0.00  0.00    +0.000 N 
ATOM      8  C   UNL     1      -1.506  13.649  20.125  0.00  0.00    +0.000 A 
ATOM      9  N   UNL     1      -0.263  13.457  20.558  0.00  0.00    +0.000 NA
ATOM     10  C   UNL     1       0.295  12.268  20.243  0.00  0.00    +0.000 A 
ATOM     11  C   UNL     1      -0.319  11.254  19.524  0.00  0.00    +0.000 A 
ATOM     12  C   UNL     1      -1.609  11.608  19.113  0.00  0.00    +0.000 A 
ATOM     13  N   UNL     1      -2.201  12.786  19.383  0.00  0.00    +0.000 NA
ATOM     14  H   UNL     1      -1.413  15.538  20.643  0.00  0.00    +0.000 HD
ATOM     15  H   UNL     1      -2.834  15.055  19.786  0.00  0.00    +0.000 HD
BRANCH  12  16
ATOM     16  N   UNL     1      -2.426  10.698  18.414  0.00  0.00    +0.000 N 
ATOM     17  H   UNL     1      -1.912   9.833  18.291  0.00  0.00    +0.000 HD
ATOM     18  H   UNL     1      -3.264  10.574  18.975  0.00  0.00    +0.000 HD
ENDBRANCH  12  16
ENDBRANCH   1  11
BRANCH   4  19
ATOM     19  C   UNL     1       2.690   6.706  18.832  0.00  0.00    +0.000 A 
ATOM     20  C   UNL     1       2.234   5.570  19.511  0.00  0.00    +0.000 A 
ATOM     21  C   UNL     1       2.716   4.296  19.208  0.00  0.00    +0.000 A 
ATOM     22  C   UNL     1       3.673   4.129  18.208  0.00  0.00    +0.000 A 
ATOM     23  C   UNL     1       4.175   5.229  17.500  0.00  0.00    +0.000 A 
ATOM     24  C   UNL     1       3.659   6.499  17.833  0.00  0.00    +0.000 A 
BRANCH  23  25
ATOM     25  C   UNL     1       5.213   5.071  16.457  0.00  0.00    +0.000 A 
ATOM     26  C   UNL     1       5.063   4.171  15.393  0.00  0.00    +0.000 A 
ATOM     27  C   UNL     1       6.058   4.036  14.425  0.00  0.00    +0.000 A 
ATOM     28  C   UNL     1       7.201   4.804  14.547  0.00  0.00    +0.000 A 
ATOM     29  N   UNL     1       7.405   5.679  15.552  0.00  0.00    +0.000 NA
ATOM     30  C   UNL     1       6.411   5.792  16.469  0.00  0.00    +0.000 A 
ENDBRANCH  23  25
ENDBRANCH   4  19
TORSDOF 4
ENDMDL
MODEL 5
REMARK VINA RESULT:      -7.7      3.719      9.224
REMARK  Name = 
REMARK  4 active torsions:
REMARK  status: ('A' for Active; 'I' for Inactive)
REMARK    1  A    between atoms: C_5  and  N_6
REMARK    2  A    between atoms: N_9  and  C_10
REMARK    3  A    between atoms: C_14  and  C_15
REMARK    4  A    between atoms: C_24  and  N_25
REMARK                            x       y       z     vdW  Elec       q    Type
REMARK                         _______ _______ _______ _____ _____    ______ ____
ROOT
ATOM      1  N   UNL     1       2.221   5.968  19.709  0.00  0.00    +0.000 N 
ATOM      2  C   UNL     1       1.379   6.486  20.799  0.00  0.00    +0.000 C 
ATOM      3  C   UNL     1       1.688   7.984  21.003  0.00  0.00    +0.000 C 
ATOM      4  N   UNL     1       1.522   8.726  19.739  0.00  0.00    +0.000 N 
ATOM      5  C   UNL     1       2.305   8.197  18.601  0.00  0.00    +0.000 C 
ATOM      6  C   UNL     1       2.056   6.675  18.424  0.00  0.00    +0.000 C 
ENDROOT
BRANCH   1  11
ATOM      7  N   UNL     1       5.103   1.299  19.900  0.00  0.00    +0.000 N 
ATOM      8  C   UNL     1       4.387   2.477  19.907  0.00  0.00    +0.000 A 
ATOM      9  N   UNL     1       5.027   3.582  19.532  0.00  0.00    +0.000 NA
ATOM     10  C   UNL     1       4.290   4.713  19.512  0.00  0.00    +0.000 A 
ATOM     11  C   UNL     1       2.946   4.806  19.841  0.00  0.00    +0.000 A 
ATOM     12  C   UNL     1       2.416   3.574  20.240  0.00  0.00    +0.000 A 
ATOM     13  N   UNL     1       3.113   2.424  20.296  0.00  0.00    +0.000 NA
ATOM     14  H   UNL     1       6.088   1.503  19.996  0.00  0.00    +0.000 HD
ATOM     15  H   UNL     1       4.693   0.649  20.555  0.00  0.00    +0.000 HD
BRANCH  12  16
ATOM     16  N   UNL     1       1.053   3.439  20.565  0.00  0.00    +0.000 N 
ATOM     17  H   UNL     1       0.816   4.139  21.258  0.00  0.00    +0.000 HD
ATOM     18  H   UNL     1       0.536   3.561  19.698  0.00  0.00    +0.000 HD
ENDBRANCH  12  16
ENDBRANCH   1  11
BRANCH   4  19
ATOM     19  C   UNL     1       0.679   9.809  19.622  0.00  0.00    +0.000 A 
ATOM     20  C   UNL     1       0.798  10.928  20.454  0.00  0.00    +0.000 A 
ATOM     21  C   UNL     1      -0.057  12.023  20.332  0.00  0.00    +0.000 A 
ATOM     22  C   UNL     1      -1.061  12.023  19.364  0.00  0.00    +0.000 A 
ATOM     23  C   UNL     1      -1.236  10.927  18.507  0.00  0.00    +0.000 A 
ATOM     24  C   UNL     1      -0.347   9.843  18.660  0.00  0.00    +0.000 A 
BRANCH  23  25
ATOM     25  C   UNL     1      -2.315  10.900  17.495  0.00  0.00    +0.000 A 
ATOM     26  C   UNL     1      -2.206  10.151  16.315  0.00  0.00    +0.000 A 
ATOM     27  C   UNL     1      -3.235  10.145  15.374  0.00  0.00    +0.000 A 
ATOM     28  C   UNL     1      -4.361  10.907  15.629  0.00  0.00    +0.000 A 
ATOM     29  N   UNL     1      -4.519  11.653  16.739  0.00  0.00    +0.000 NA
ATOM     30  C   UNL     1      -3.502  11.625  17.638  0.00  0.00    +0.000 A 
ENDBRANCH  23  25
ENDBRANCH   4  19
TORSDOF 4
ENDMDL
MODEL 6
REMARK VINA RESULT:      -7.5      2.930      4.510
REMARK  Name = 
REMARK  4 active torsions:
REMARK  status: ('A' for Active; 'I' for Inactive)
REMARK    1  A    between atoms: C_5  and  N_6
REMARK    2  A    between atoms: N_9  and  C_10
REMARK    3  A    between atoms: C_14  and  C_15
REMARK    4  A    between atoms: C_24  and  N_25
REMARK                            x       y       z     vdW  Elec       q    Type
REMARK                         _______ _______ _______ _____ _____    ______ ____
ROOT
ATOM      1  N   UNL     1       0.584   9.368  20.482  0.00  0.00    +0.000 N 
ATOM      2  C   UNL     1       0.739   9.277  19.022  0.00  0.00    +0.000 C 
ATOM      3  C   UNL     1       2.119   8.666  18.702  0.00  0.00    +0.000 C 
ATOM      4  N   UNL     1       2.285   7.369  19.386  0.00  0.00    +0.000 N 
ATOM      5  C   UNL     1       2.075   7.407  20.849  0.00  0.00    +0.000 C 
ATOM      6  C   UNL     1       0.719   8.080  21.190  0.00  0.00    +0.000 C 
ENDROOT
BRANCH   1  11
ATOM      7  N   UNL     1      -0.795  14.046  23.004  0.00  0.00    +0.000 N 
ATOM      8  C   UNL     1      -0.503  12.865  22.355  0.00  0.00    +0.000 A 
ATOM      9  N   UNL     1       0.010  12.953  21.131  0.00  0.00    +0.000 NA
ATOM     10  C   UNL     1       0.323  11.781  20.536  0.00  0.00    +0.000 A 
ATOM     11  C   UNL     1       0.158  10.523  21.097  0.00  0.00    +0.000 A 
ATOM     12  C   UNL     1      -0.415  10.587  22.372  0.00  0.00    +0.000 A 
ATOM     13  N   UNL     1      -0.762  11.727  22.998  0.00  0.00    +0.000 NA
ATOM     14  H   UNL     1      -0.951  14.775  22.322  0.00  0.00    +0.000 HD
ATOM     15  H   UNL     1      -1.518  13.885  23.691  0.00  0.00    +0.000 HD
BRANCH  12  16
ATOM     16  N   UNL     1      -0.619   9.423  23.137  0.00  0.00    +0.000 N 
ATOM     17  H   UNL     1      -1.497   9.514  23.634  0.00  0.00    +0.000 HD
ATOM     18  H   UNL     1      -0.622   8.645  22.483  0.00  0.00    +0.000 HD
ENDBRANCH  12  16
ENDBRANCH   1  11
BRANCH   4  19
ATOM     19  C   UNL     1       2.584   6.208  18.707  0.00  0.00    +0.000 A 
ATOM     20  C   UNL     1       1.837   5.038  18.884  0.00  0.00    +0.000 A 
ATOM     21  C   UNL     1       2.143   3.865  18.194  0.00  0.00    +0.000 A 
ATOM     22  C   UNL     1       3.213   3.837  17.300  0.00  0.00    +0.000 A 
ATOM     23  C   UNL     1       4.004   4.975  17.087  0.00  0.00    +0.000 A 
ATOM     24  C   UNL     1       3.658   6.141  17.800  0.00  0.00    +0.000 A 
BRANCH  23  25
ATOM     25  C   UNL     1       5.160   4.952  16.165  0.00  0.00    +0.000 A 
ATOM     26  C   UNL     1       5.177   4.149  15.016  0.00  0.00    +0.000 A 
ATOM     27  C   UNL     1       6.282   4.142  14.164  0.00  0.00    +0.000 A 
ATOM     28  C   UNL     1       7.365   4.937  14.488  0.00  0.00    +0.000 A 
ATOM     29  N   UNL     1       7.410   5.723  15.582  0.00  0.00    +0.000 NA
ATOM     30  C   UNL     1       6.313   5.714  16.381  0.00  0.00    +0.000 A 
ENDBRANCH  23  25
ENDBRANCH   4  19
TORSDOF 4
ENDMDL
MODEL 7
REMARK VINA RESULT:      -7.4      2.565      3.904
REMARK  Name = 
REMARK  4 active torsions:
REMARK  status: ('A' for Active; 'I' for Inactive)
REMARK    1  A    between atoms: C_5  and  N_6
REMARK    2  A    between atoms: N_9  and  C_10
REMARK    3  A    between atoms: C_14  and  C_15
REMARK    4  A    between atoms: C_24  and  N_25
REMARK                            x       y       z     vdW  Elec       q    Type
REMARK                         _______ _______ _______ _____ _____    ______ ____
ROOT
ATOM      1  N   UNL     1       0.017  10.159  20.058  0.00  0.00    +0.000 N 
ATOM      2  C   UNL     1       0.475   9.619  18.769  0.00  0.00    +0.000 C 
ATOM      3  C   UNL     1       1.874   8.994  18.955  0.00  0.00    +0.000 C 
ATOM      4  N   UNL     1       1.855   7.987  20.033  0.00  0.00    +0.000 N 
ATOM      5  C   UNL     1       1.341   8.476  21.331  0.00  0.00    +0.000 C 
ATOM      6  C   UNL     1      -0.038   9.166  21.149  0.00  0.00    +0.000 C 
ENDROOT
BRANCH   1  11
ATOM      7  N   UNL     1      -2.046  15.246  20.176  0.00  0.00    +0.000 N 
ATOM      8  C   UNL     1      -1.532  13.967  20.202  0.00  0.00    +0.000 A 
ATOM      9  N   UNL     1      -2.372  12.966  19.949  0.00  0.00    +0.000 NA
ATOM     10  C   UNL     1      -1.832  11.729  19.944  0.00  0.00    +0.000 A 
ATOM     11  C   UNL     1      -0.497  11.431  20.172  0.00  0.00    +0.000 A 
ATOM     12  C   UNL     1       0.258  12.576  20.450  0.00  0.00    +0.000 A 
ATOM     13  N   UNL     1      -0.237  13.827  20.487  0.00  0.00    +0.000 NA
ATOM     14  H   UNL     1      -3.039  15.213  20.361  0.00  0.00    +0.000 HD
ATOM     15  H   UNL     1      -1.481  15.850  20.755  0.00  0.00    +0.000 HD
BRANCH  12  16
ATOM     16  N   UNL     1       1.648  12.499  20.659  0.00  0.00    +0.000 N 
ATOM     17  H   UNL     1       2.073  12.073  19.843  0.00  0.00    +0.000 HD
ATOM     18  H   UNL     1       1.970  13.450  20.811  0.00  0.00    +0.000 HD
ENDBRANCH  12  16
ENDBRANCH   1  11
BRANCH   4  19
ATOM     19  C   UNL     1       2.257   6.685  19.835  0.00  0.00    +0.000 A 
ATOM     20  C   UNL     1       1.650   5.616  20.503  0.00  0.00    +0.000 A 
ATOM     21  C   UNL     1       2.060   4.299  20.299  0.00  0.00    +0.000 A 
ATOM     22  C   UNL     1       3.098   4.018  19.411  0.00  0.00    +0.000 A 
ATOM     23  C   UNL     1       3.752   5.047  18.719  0.00  0.00    +0.000 A 
ATOM     24  C   UNL     1       3.303   6.364  18.949  0.00  0.00    +0.000 A 
BRANCH  23  25
ATOM     25  C   UNL     1       4.874   4.768  17.796  0.00  0.00    +0.000 A 
ATOM     26  C   UNL     1       6.210   4.966  18.172  0.00  0.00    +0.000 A 
ATOM     27  C   UNL     1       7.250   4.701  17.281  0.00  0.00    +0.000 A 
ATOM     28  C   UNL     1       6.930   4.248  16.015  0.00  0.00    +0.000 A 
ATOM     29  N   UNL     1       5.666   4.046  15.594  0.00  0.00    +0.000 NA
ATOM     30  C   UNL     1       4.680   4.305  16.491  0.00  0.00    +0.000 A 
ENDBRANCH  23  25
ENDBRANCH   4  19
TORSDOF 4
ENDMDL
MODEL 8
REMARK VINA RESULT:      -7.4      2.540      3.900
REMARK  Name = 
REMARK  4 active torsions:
REMARK  status: ('A' for Active; 'I' for Inactive)
REMARK    1  A    between atoms: C_5  and  N_6
REMARK    2  A    between atoms: N_9  and  C_10
REMARK    3  A    between atoms: C_14  and  C_15
REMARK    4  A    between atoms: C_24  and  N_25
REMARK                            x       y       z     vdW  Elec       q    Type
REMARK                         _______ _______ _______ _____ _____    ______ ____
ROOT
ATOM      1  N   UNL     1      -0.179  10.263  20.291  0.00  0.00    +0.000 N 
ATOM      2  C   UNL     1       0.321   9.896  18.957  0.00  0.00    +0.000 C 
ATOM      3  C   UNL     1       1.736   9.296  19.099  0.00  0.00    +0.000 C 
ATOM      4  N   UNL     1       1.728   8.166  20.048  0.00  0.00    +0.000 N 
ATOM      5  C   UNL     1       1.174   8.480  21.383  0.00  0.00    +0.000 C 
ATOM      6  C   UNL     1      -0.222   9.146  21.254  0.00  0.00    +0.000 C 
ENDROOT
BRANCH   1  11
ATOM      7  N   UNL     1      -2.543  15.051  21.571  0.00  0.00    +0.000 N 
ATOM      8  C   UNL     1      -1.922  13.875  21.208  0.00  0.00    +0.000 A 
ATOM      9  N   UNL     1      -0.849  13.511  21.906  0.00  0.00    +0.000 NA
ATOM     10  C   UNL     1      -0.286  12.335  21.552  0.00  0.00    +0.000 A 
ATOM     11  C   UNL     1      -0.735  11.497  20.543  0.00  0.00    +0.000 A 
ATOM     12  C   UNL     1      -1.851  12.021  19.881  0.00  0.00    +0.000 A 
ATOM     13  N   UNL     1      -2.436  13.196  20.183  0.00  0.00    +0.000 NA
ATOM     14  H   UNL     1      -1.878  15.652  22.037  0.00  0.00    +0.000 HD
ATOM     15  H   UNL     1      -3.042  15.429  20.779  0.00  0.00    +0.000 HD
BRANCH  12  16
ATOM     16  N   UNL     1      -2.496  11.301  18.858  0.00  0.00    +0.000 N 
ATOM     17  H   UNL     1      -3.095  10.603  19.284  0.00  0.00    +0.000 HD
ATOM     18  H   UNL     1      -3.019  11.980  18.313  0.00  0.00    +0.000 HD
ENDBRANCH  12  16
ENDBRANCH   1  11
BRANCH   4  19
ATOM     19  C   UNL     1       2.177   6.910  19.706  0.00  0.00    +0.000 A 
ATOM     20  C   UNL     1       1.820   5.774  20.442  0.00  0.00    +0.000 A 
ATOM     21  C   UNL     1       2.276   4.504  20.090  0.00  0.00    +0.000 A 
ATOM     22  C   UNL     1       3.106   4.339  18.982  0.00  0.00    +0.000 A 
ATOM     23  C   UNL     1       3.505   5.440  18.211  0.00  0.00    +0.000 A 
ATOM     24  C   UNL     1       3.018   6.706  18.596  0.00  0.00    +0.000 A 
BRANCH  23  25
ATOM     25  C   UNL     1       4.409   5.285  17.050  0.00  0.00    +0.000 A 
ATOM     26  C   UNL     1       4.811   4.024  16.586  0.00  0.00    +0.000 A 
ATOM     27  C   UNL     1       5.668   3.905  15.492  0.00  0.00    +0.000 A 
ATOM     28  C   UNL     1       6.120   5.061  14.883  0.00  0.00    +0.000 A 
ATOM     29  N   UNL     1       5.775   6.299  15.289  0.00  0.00    +0.000 NA
ATOM     30  C   UNL     1       4.931   6.377  16.349  0.00  0.00    +0.000 A 
ENDBRANCH  23  25
ENDBRANCH   4  19
TORSDOF 4
ENDMDL
MODEL 9
REMARK VINA RESULT:      -7.4      3.306      4.724
REMARK  Name = 
REMARK  4 active torsions:
REMARK  status: ('A' for Active; 'I' for Inactive)
REMARK    1  A    between atoms: C_5  and  N_6
REMARK    2  A    between atoms: N_9  and  C_10
REMARK    3  A    between atoms: C_14  and  C_15
REMARK    4  A    between atoms: C_24  and  N_25
REMARK                            x       y       z     vdW  Elec       q    Type
REMARK                         _______ _______ _______ _____ _____    ______ ____
ROOT
ATOM      1  N   UNL     1       1.328  11.262  19.290  0.00  0.00    +0.000 N 
ATOM      2  C   UNL     1       1.294  10.358  20.450  0.00  0.00    +0.000 C 
ATOM      3  C   UNL     1       0.863   8.953  19.979  0.00  0.00    +0.000 C 
ATOM      4  N   UNL     1       1.744   8.476  18.896  0.00  0.00    +0.000 N 
ATOM      5  C   UNL     1       1.855   9.388  17.737  0.00  0.00    +0.000 C 
ATOM      6  C   UNL     1       2.222  10.822  18.202  0.00  0.00    +0.000 C 
ENDROOT
BRANCH   1  11
ATOM      7  N   UNL     1      -1.204  16.118  19.690  0.00  0.00    +0.000 N 
ATOM      8  C   UNL     1      -0.543  14.917  19.543  0.00  0.00    +0.000 A 
ATOM      9  N   UNL     1       0.567  14.740  20.255  0.00  0.00    +0.000 NA
ATOM     10  C   UNL     1       1.170  13.539  20.119  0.00  0.00    +0.000 A 
ATOM     11  C   UNL     1       0.725  12.499  19.316  0.00  0.00    +0.000 A 
ATOM     12  C   UNL     1      -0.434  12.839  18.609  0.00  0.00    +0.000 A 
ATOM     13  N   UNL     1      -1.060  14.028  18.695  0.00  0.00    +0.000 NA
ATOM     14  H   UNL     1      -0.552  16.824  20.000  0.00  0.00    +0.000 HD
ATOM     15  H   UNL     1      -1.745  16.311  18.860  0.00  0.00    +0.000 HD
BRANCH  12  16
ATOM     16  N   UNL     1      -1.079  11.905  17.777  0.00  0.00    +0.000 N 
ATOM     17  H   UNL     1      -0.902  10.975  18.139  0.00  0.00    +0.000 HD
ATOM     18  H   UNL     1      -2.066  12.143  17.786  0.00  0.00    +0.000 HD
ENDBRANCH  12  16
ENDBRANCH   1  11
BRANCH   4  19
ATOM     19  C   UNL     1       2.433   7.285  18.974  0.00  0.00    +0.000 A 
ATOM     20  C   UNL     1       2.228   6.383  20.024  0.00  0.00    +0.000 A 
ATOM     21  C   UNL     1       2.928   5.179  20.098  0.00  0.00    +0.000 A 
ATOM     22  C   UNL     1       3.857   4.846  19.113  0.00  0.00    +0.000 A 
ATOM     23  C   UNL     1       4.113   5.713  18.042  0.00  0.00    +0.000 A 
ATOM     24  C   UNL     1       3.381   6.918  18.001  0.00  0.00    +0.000 A 
BRANCH  23  25
ATOM     25  C   UNL     1       5.117   5.388  17.005  0.00  0.00    +0.000 A 
ATOM     26  C   UNL     1       4.956   4.305  16.131  0.00  0.00    +0.000 A 
ATOM     27  C   UNL     1       5.919   4.016  15.164  0.00  0.00    +0.000 A 
ATOM     28  C   UNL     1       7.043   4.818  15.098  0.00  0.00    +0.000 A 
ATOM     29  N   UNL     1       7.258   5.867  15.916  0.00  0.00    +0.000 NA
ATOM     30  C   UNL     1       6.294   6.125  16.837  0.00  0.00    +0.000 A 
ENDBRANCH  23  25
ENDBRANCH   4  19
TORSDOF 4
ENDMDL
