MODEL 1
REMARK VINA RESULT:      -8.8      0.000      0.000
REMARK  Name = 
REMARK  6 active torsions:
REMARK  status: ('A' for Active; 'I' for Inactive)
REMARK    1  A    between atoms: C_2  and  O_3
REMARK    2  A    between atoms: C_2  and  C_4
REMARK    3  A    between atoms: C_8  and  N_9
REMARK    4  A    between atoms: C_11  and  C_12
REMARK    5  A    between atoms: C_19  and  C_20
REMARK    6  A    between atoms: C_23  and  C_24
REMARK                            x       y       z     vdW  Elec       q    Type
REMARK                         _______ _______ _______ _____ _____    ______ ____
ROOT
ATOM      1  N   UNL     1      -1.551  11.803  18.597  0.00  0.00    +0.000 N 
ATOM      2  N   UNL     1      -0.877  13.004  18.349  0.00  0.00    +0.000 NA
ATOM      3  C   UNL     1       0.391  12.776  18.600  0.00  0.00    +0.000 C 
ATOM      4  C   UNL     1       0.627  11.350  18.911  0.00  0.00    +0.000 C 
ATOM      5  C   UNL     1       1.781  10.671  18.846  0.00  0.00    +0.000 C 
ATOM      6  C   UNL     1      -0.724  10.766  19.057  0.00  0.00    +0.000 C 
ATOM      7  O   UNL     1      -0.984   9.644  19.452  0.00  0.00    +0.000 OA
ENDROOT
BRANCH   1  12
ATOM      8  C   UNL     1      -5.258  12.012  18.999  0.00  0.00    +0.000 A 
ATOM      9  C   UNL     1      -5.695  11.700  17.707  0.00  0.00    +0.000 A 
ATOM     10  C   UNL     1      -4.764  11.353  16.736  0.00  0.00    +0.000 A 
ATOM     11  C   UNL     1      -3.402  11.356  17.044  0.00  0.00    +0.000 A 
ATOM     12  C   UNL     1      -2.938  11.705  18.321  0.00  0.00    +0.000 A 
ATOM     13  C   UNL     1      -3.886  12.014  19.305  0.00  0.00    +0.000 A 
BRANCH   8  15
ATOM     14  O   UNL     1      -6.670  13.551  20.137  0.00  0.00    +0.000 OA
ATOM     15  C   UNL     1      -6.217  12.426  20.053  0.00  0.00    +0.000 C 
BRANCH  15  16
ATOM     16  O   UNL     1      -6.523  11.439  20.924  0.00  0.00    +0.000 OA
ATOM     17  H   UNL     1      -5.822  10.776  21.055  0.00  0.00    +0.000 HD
ENDBRANCH  15  16
ENDBRANCH   8  15
ENDBRANCH   1  12
BRANCH   3  18
ATOM     18  C   UNL     1       1.443  13.811  18.584  0.00  0.00    +0.000 A 
ATOM     19  C   UNL     1       1.163  15.144  18.921  0.00  0.00    +0.000 A 
ATOM     20  C   UNL     1       2.166  16.113  18.878  0.00  0.00    +0.000 A 
ATOM     21  C   UNL     1       3.449  15.766  18.463  0.00  0.00    +0.000 A 
ATOM     22  C   UNL     1       3.730  14.450  18.094  0.00  0.00    +0.000 A 
ATOM     23  C   UNL     1       2.730  13.473  18.153  0.00  0.00    +0.000 A 
ENDBRANCH   3  18
BRANCH   5  24
ATOM     24  C   UNL     1       1.890   9.217  18.935  0.00  0.00    +0.000 A 
ATOM     25  C   UNL     1       1.743   8.603  20.178  0.00  0.00    +0.000 A 
ATOM     26  C   UNL     1       1.788   7.213  20.282  0.00  0.00    +0.000 A 
ATOM     27  C   UNL     1       1.955   6.393  19.151  0.00  0.00    +0.000 A 
ATOM     28  C   UNL     1       2.149   7.036  17.914  0.00  0.00    +0.000 A 
ATOM     29  C   UNL     1       2.122   8.433  17.806  0.00  0.00    +0.000 A 
BRANCH  27  30
ATOM     30  C   UNL     1       1.893   4.917  19.272  0.00  0.00    +0.000 A 
ATOM     31  C   UNL     1       2.078   4.096  18.141  0.00  0.00    +0.000 A 
ATOM     32  C   UNL     1       2.011   2.703  18.223  0.00  0.00    +0.000 A 
ATOM     33  C   UNL     1       1.778   2.094  19.449  0.00  0.00    +0.000 A 
ATOM     34  C   UNL     1       1.610   2.877  20.589  0.00  0.00    +0.000 A 
ATOM     35  C   UNL     1       1.662   4.273  20.498  0.00  0.00    +0.000 A 
ENDBRANCH  27  30
ENDBRANCH   5  24
TORSDOF 6
ENDMDL
MODEL 2
REMARK VINA RESULT:      -8.7      0.473      1.168
REMARK  Name = 
REMARK  6 active torsions:
REMARK  status: ('A' for Active; 'I' for Inactive)
REMARK    1  A    between atoms: C_2  and  O_3
REMARK    2  A    between atoms: C_2  and  C_4
REMARK    3  A    between atoms: C_8  and  N_9
REMARK    4  A    between atoms: C_11  and  C_12
REMARK    5  A    between atoms: C_19  and  C_20
REMARK    6  A    between atoms: C_23  and  C_24
REMARK                            x       y       z     vdW  Elec       q    Type
REMARK                         _______ _______ _______ _____ _____    ______ ____
ROOT
ATOM      1  N   UNL     1      -1.548  11.732  18.667  0.00  0.00    +0.000 N 
ATOM      2  N   UNL     1      -0.866  12.945  18.529  0.00  0.00    +0.000 NA
ATOM      3  C   UNL     1       0.387  12.703  18.832  0.00  0.00    +0.000 C 
ATOM      4  C   UNL     1       0.611  11.260  19.066  0.00  0.00    +0.000 C 
ATOM      5  C   UNL     1       1.769  10.587  19.021  0.00  0.00    +0.000 C 
ATOM      6  C   UNL     1      -0.744  10.668  19.105  0.00  0.00    +0.000 C 
ATOM      7  O   UNL     1      -1.020   9.524  19.416  0.00  0.00    +0.000 OA
ENDROOT
BRANCH   1  12
ATOM      8  C   UNL     1      -5.270  11.982  18.861  0.00  0.00    +0.000 A 
ATOM      9  C   UNL     1      -5.637  11.680  17.545  0.00  0.00    +0.000 A 
ATOM     10  C   UNL     1      -4.657  11.326  16.626  0.00  0.00    +0.000 A 
ATOM     11  C   UNL     1      -3.314  11.312  17.010  0.00  0.00    +0.000 A 
ATOM     12  C   UNL     1      -2.919  11.651  18.313  0.00  0.00    +0.000 A 
ATOM     13  C   UNL     1      -3.918  11.967  19.244  0.00  0.00    +0.000 A 
BRANCH   8  15
ATOM     14  O   UNL     1      -7.191  13.170  19.607  0.00  0.00    +0.000 OA
ATOM     15  C   UNL     1      -6.282  12.402  19.861  0.00  0.00    +0.000 C 
BRANCH  15  16
ATOM     16  O   UNL     1      -6.087  11.868  21.086  0.00  0.00    +0.000 OA
ATOM     17  H   UNL     1      -5.848  10.924  21.089  0.00  0.00    +0.000 HD
ENDBRANCH  15  16
ENDBRANCH   8  15
ENDBRANCH   1  12
BRANCH   3  18
ATOM     18  C   UNL     1       1.435  13.737  18.934  0.00  0.00    +0.000 A 
ATOM     19  C   UNL     1       2.382  13.921  17.916  0.00  0.00    +0.000 A 
ATOM     20  C   UNL     1       3.380  14.889  18.040  0.00  0.00    +0.000 A 
ATOM     21  C   UNL     1       3.461  15.657  19.199  0.00  0.00    +0.000 A 
ATOM     22  C   UNL     1       2.546  15.458  20.232  0.00  0.00    +0.000 A 
ATOM     23  C   UNL     1       1.534  14.500  20.102  0.00  0.00    +0.000 A 
ENDBRANCH   3  18
BRANCH   5  24
ATOM     24  C   UNL     1       1.878   9.130  19.026  0.00  0.00    +0.000 A 
ATOM     25  C   UNL     1       1.771   8.449  20.237  0.00  0.00    +0.000 A 
ATOM     26  C   UNL     1       1.816   7.055  20.263  0.00  0.00    +0.000 A 
ATOM     27  C   UNL     1       1.945   6.299  19.083  0.00  0.00    +0.000 A 
ATOM     28  C   UNL     1       2.100   7.009  17.878  0.00  0.00    +0.000 A 
ATOM     29  C   UNL     1       2.073   8.410  17.849  0.00  0.00    +0.000 A 
BRANCH  27  30
ATOM     30  C   UNL     1       1.884   4.819  19.124  0.00  0.00    +0.000 A 
ATOM     31  C   UNL     1       1.499   4.148  20.303  0.00  0.00    +0.000 A 
ATOM     32  C   UNL     1       1.448   2.754  20.375  0.00  0.00    +0.000 A 
ATOM     33  C   UNL     1       1.761   1.993  19.256  0.00  0.00    +0.000 A 
ATOM     34  C   UNL     1       2.126   2.626  18.070  0.00  0.00    +0.000 A 
ATOM     35  C   UNL     1       2.192   4.023  18.009  0.00  0.00    +0.000 A 
ENDBRANCH  27  30
ENDBRANCH   5  24
TORSDOF 6
ENDMDL
MODEL 3
REMARK VINA RESULT:      -8.6      1.950      2.802
REMARK  Name = 
REMARK  6 active torsions:
REMARK  status: ('A' for Active; 'I' for Inactive)
REMARK    1  A    between atoms: C_2  and  O_3
REMARK    2  A    between atoms: C_2  and  C_4
REMARK    3  A    between atoms: C_8  and  N_9
REMARK    4  A    between atoms: C_11  and  C_12
REMARK    5  A    between atoms: C_19  and  C_20
REMARK    6  A    between atoms: C_23  and  C_24
REMARK                            x       y       z     vdW  Elec       q    Type
REMARK                         _______ _______ _______ _____ _____    ______ ____
ROOT
ATOM      1  N   UNL     1      -1.420  11.562  18.386  0.00  0.00    +0.000 N 
ATOM      2  N   UNL     1      -0.786  12.791  18.601  0.00  0.00    +0.000 NA
ATOM      3  C   UNL     1       0.301  12.532  19.288  0.00  0.00    +0.000 C 
ATOM      4  C   UNL     1       0.497  11.074  19.450  0.00  0.00    +0.000 C 
ATOM      5  C   UNL     1       1.631  10.421  19.738  0.00  0.00    +0.000 C 
ATOM      6  C   UNL     1      -0.764  10.468  18.970  0.00  0.00    +0.000 C 
ATOM      7  O   UNL     1      -1.079   9.295  19.061  0.00  0.00    +0.000 OA
ENDROOT
BRANCH   1  12
ATOM      8  C   UNL     1      -3.720  10.799  15.543  0.00  0.00    +0.000 A 
ATOM      9  C   UNL     1      -4.950  11.214  16.063  0.00  0.00    +0.000 A 
ATOM     10  C   UNL     1      -4.997  11.807  17.318  0.00  0.00    +0.000 A 
ATOM     11  C   UNL     1      -3.826  11.951  18.065  0.00  0.00    +0.000 A 
ATOM     12  C   UNL     1      -2.586  11.505  17.581  0.00  0.00    +0.000 A 
ATOM     13  C   UNL     1      -2.543  10.945  16.298  0.00  0.00    +0.000 A 
BRANCH   8  15
ATOM     14  O   UNL     1      -2.582   9.927  13.645  0.00  0.00    +0.000 OA
ATOM     15  C   UNL     1      -3.633  10.125  14.224  0.00  0.00    +0.000 C 
BRANCH  15  16
ATOM     16  O   UNL     1      -4.834   9.771  13.716  0.00  0.00    +0.000 OA
ATOM     17  H   UNL     1      -4.921   8.828  13.488  0.00  0.00    +0.000 HD
ENDBRANCH  15  16
ENDBRANCH   8  15
ENDBRANCH   1  12
BRANCH   3  18
ATOM     18  C   UNL     1       1.207  13.560  19.837  0.00  0.00    +0.000 A 
ATOM     19  C   UNL     1       1.203  13.883  21.202  0.00  0.00    +0.000 A 
ATOM     20  C   UNL     1       2.051  14.875  21.698  0.00  0.00    +0.000 A 
ATOM     21  C   UNL     1       2.883  15.575  20.830  0.00  0.00    +0.000 A 
ATOM     22  C   UNL     1       2.869  15.284  19.466  0.00  0.00    +0.000 A 
ATOM     23  C   UNL     1       2.033  14.280  18.968  0.00  0.00    +0.000 A 
ENDBRANCH   3  18
BRANCH   5  24
ATOM     24  C   UNL     1       1.796   8.973  19.645  0.00  0.00    +0.000 A 
ATOM     25  C   UNL     1       1.507   8.186  20.759  0.00  0.00    +0.000 A 
ATOM     26  C   UNL     1       1.604   6.797  20.680  0.00  0.00    +0.000 A 
ATOM     27  C   UNL     1       1.966   6.150  19.484  0.00  0.00    +0.000 A 
ATOM     28  C   UNL     1       2.299   6.965  18.387  0.00  0.00    +0.000 A 
ATOM     29  C   UNL     1       2.221   8.363  18.466  0.00  0.00    +0.000 A 
BRANCH  27  30
ATOM     30  C   UNL     1       1.959   4.670  19.394  0.00  0.00    +0.000 A 
ATOM     31  C   UNL     1       1.594   3.885  20.507  0.00  0.00    +0.000 A 
ATOM     32  C   UNL     1       1.593   2.489  20.454  0.00  0.00    +0.000 A 
ATOM     33  C   UNL     1       1.937   1.842  19.275  0.00  0.00    +0.000 A 
ATOM     34  C   UNL     1       2.284   2.590  18.153  0.00  0.00    +0.000 A 
ATOM     35  C   UNL     1       2.300   3.988  18.215  0.00  0.00    +0.000 A 
ENDBRANCH  27  30
ENDBRANCH   5  24
TORSDOF 6
ENDMDL
MODEL 4
REMARK VINA RESULT:      -8.6      0.776      1.457
REMARK  Name = 
REMARK  6 active torsions:
REMARK  status: ('A' for Active; 'I' for Inactive)
REMARK    1  A    between atoms: C_2  and  O_3
REMARK    2  A    between atoms: C_2  and  C_4
REMARK    3  A    between atoms: C_8  and  N_9
REMARK    4  A    between atoms: C_11  and  C_12
REMARK    5  A    between atoms: C_19  and  C_20
REMARK    6  A    between atoms: C_23  and  C_24
REMARK                            x       y       z     vdW  Elec       q    Type
REMARK                         _______ _______ _______ _____ _____    ______ ____
ROOT
ATOM      1  N   UNL     1      -1.619  11.762  18.648  0.00  0.00    +0.000 N 
ATOM      2  N   UNL     1      -0.970  12.994  18.506  0.00  0.00    +0.000 NA
ATOM      3  C   UNL     1       0.297  12.779  18.773  0.00  0.00    +0.000 C 
ATOM      4  C   UNL     1       0.561  11.340  18.985  0.00  0.00    +0.000 C 
ATOM      5  C   UNL     1       1.734  10.696  18.901  0.00  0.00    +0.000 C 
ATOM      6  C   UNL     1      -0.777  10.714  19.052  0.00  0.00    +0.000 C 
ATOM      7  O   UNL     1      -1.017   9.560  19.357  0.00  0.00    +0.000 OA
ENDROOT
BRANCH   1  12
ATOM      8  C   UNL     1      -5.339  11.855  18.965  0.00  0.00    +0.000 A 
ATOM      9  C   UNL     1      -5.735  11.625  17.644  0.00  0.00    +0.000 A 
ATOM     10  C   UNL     1      -4.772  11.371  16.675  0.00  0.00    +0.000 A 
ATOM     11  C   UNL     1      -3.419  11.384  17.018  0.00  0.00    +0.000 A 
ATOM     12  C   UNL     1      -2.995  11.652  18.329  0.00  0.00    +0.000 A 
ATOM     13  C   UNL     1      -3.975  11.867  19.307  0.00  0.00    +0.000 A 
BRANCH   8  15
ATOM     14  O   UNL     1      -6.181  11.871  21.189  0.00  0.00    +0.000 OA
ATOM     15  C   UNL     1      -6.334  12.170  20.020  0.00  0.00    +0.000 C 
BRANCH  15  16
ATOM     16  O   UNL     1      -7.434  12.800  19.556  0.00  0.00    +0.000 OA
ATOM     17  H   UNL     1      -7.933  13.303  20.226  0.00  0.00    +0.000 HD
ENDBRANCH  15  16
ENDBRANCH   8  15
ENDBRANCH   1  12
BRANCH   3  18
ATOM     18  C   UNL     1       1.322  13.837  18.860  0.00  0.00    +0.000 A 
ATOM     19  C   UNL     1       2.447  13.834  18.023  0.00  0.00    +0.000 A 
ATOM     20  C   UNL     1       3.418  14.831  18.135  0.00  0.00    +0.000 A 
ATOM     21  C   UNL     1       3.290  15.819  19.107  0.00  0.00    +0.000 A 
ATOM     22  C   UNL     1       2.191  15.811  19.967  0.00  0.00    +0.000 A 
ATOM     23  C   UNL     1       1.208  14.823  19.846  0.00  0.00    +0.000 A 
ENDBRANCH   3  18
BRANCH   5  24
ATOM     24  C   UNL     1       1.879   9.242  18.887  0.00  0.00    +0.000 A 
ATOM     25  C   UNL     1       2.144   8.601  17.678  0.00  0.00    +0.000 A 
ATOM     26  C   UNL     1       2.341   7.220  17.645  0.00  0.00    +0.000 A 
ATOM     27  C   UNL     1       2.305   6.442  18.817  0.00  0.00    +0.000 A 
ATOM     28  C   UNL     1       1.988   7.103  20.018  0.00  0.00    +0.000 A 
ATOM     29  C   UNL     1       1.771   8.488  20.054  0.00  0.00    +0.000 A 
BRANCH  27  30
ATOM     30  C   UNL     1       2.622   4.995  18.773  0.00  0.00    +0.000 A 
ATOM     31  C   UNL     1       1.799   4.102  18.057  0.00  0.00    +0.000 A 
ATOM     32  C   UNL     1       2.066   2.731  18.010  0.00  0.00    +0.000 A 
ATOM     33  C   UNL     1       3.180   2.222  18.664  0.00  0.00    +0.000 A 
ATOM     34  C   UNL     1       4.023   3.081  19.364  0.00  0.00    +0.000 A 
ATOM     35  C   UNL     1       3.743   4.452  19.421  0.00  0.00    +0.000 A 
ENDBRANCH  27  30
ENDBRANCH   5  24
TORSDOF 6
ENDMDL
MODEL 5
REMARK VINA RESULT:      -8.5      1.986      2.776
REMARK  Name = 
REMARK  6 active torsions:
REMARK  status: ('A' for Active; 'I' for Inactive)
REMARK    1  A    between atoms: C_2  and  O_3
REMARK    2  A    between atoms: C_2  and  C_4
REMARK    3  A    between atoms: C_8  and  N_9
REMARK    4  A    between atoms: C_11  and  C_12
REMARK    5  A    between atoms: C_19  and  C_20
REMARK    6  A    between atoms: C_23  and  C_24
REMARK                            x       y       z     vdW  Elec       q    Type
REMARK                         _______ _______ _______ _____ _____    ______ ____
ROOT
ATOM      1  N   UNL     1      -1.373  11.512  18.380  0.00  0.00    +0.000 N 
ATOM      2  N   UNL     1      -0.757  12.742  18.634  0.00  0.00    +0.000 NA
ATOM      3  C   UNL     1       0.343  12.476  19.298  0.00  0.00    +0.000 C 
ATOM      4  C   UNL     1       0.565  11.018  19.403  0.00  0.00    +0.000 C 
ATOM      5  C   UNL     1       1.713  10.374  19.654  0.00  0.00    +0.000 C 
ATOM      6  C   UNL     1      -0.692  10.408  18.916  0.00  0.00    +0.000 C 
ATOM      7  O   UNL     1      -0.985   9.228  18.967  0.00  0.00    +0.000 OA
ENDROOT
BRANCH   1  12
ATOM      8  C   UNL     1      -3.703  10.786  15.552  0.00  0.00    +0.000 A 
ATOM      9  C   UNL     1      -4.928  11.192  16.092  0.00  0.00    +0.000 A 
ATOM     10  C   UNL     1      -4.961  11.767  17.356  0.00  0.00    +0.000 A 
ATOM     11  C   UNL     1      -3.783  11.901  18.092  0.00  0.00    +0.000 A 
ATOM     12  C   UNL     1      -2.547  11.464  17.588  0.00  0.00    +0.000 A 
ATOM     13  C   UNL     1      -2.518  10.923  16.296  0.00  0.00    +0.000 A 
BRANCH   8  15
ATOM     14  O   UNL     1      -2.582   9.917  13.643  0.00  0.00    +0.000 OA
ATOM     15  C   UNL     1      -3.630  10.132  14.223  0.00  0.00    +0.000 C 
BRANCH  15  16
ATOM     16  O   UNL     1      -4.838   9.817  13.707  0.00  0.00    +0.000 OA
ATOM     17  H   UNL     1      -5.321  10.564  13.309  0.00  0.00    +0.000 HD
ENDBRANCH  15  16
ENDBRANCH   8  15
ENDBRANCH   1  12
BRANCH   3  18
ATOM     18  C   UNL     1       1.238  13.499  19.874  0.00  0.00    +0.000 A 
ATOM     19  C   UNL     1       2.340  13.991  19.159  0.00  0.00    +0.000 A 
ATOM     20  C   UNL     1       3.189  14.942  19.729  0.00  0.00    +0.000 A 
ATOM     21  C   UNL     1       2.963  15.382  21.030  0.00  0.00    +0.000 A 
ATOM     22  C   UNL     1       1.889  14.874  21.761  0.00  0.00    +0.000 A 
ATOM     23  C   UNL     1       1.028  13.934  21.187  0.00  0.00    +0.000 A 
ENDBRANCH   3  18
BRANCH   5  24
ATOM     24  C   UNL     1       1.901   8.933  19.505  0.00  0.00    +0.000 A 
ATOM     25  C   UNL     1       1.667   8.103  20.600  0.00  0.00    +0.000 A 
ATOM     26  C   UNL     1       1.786   6.720  20.470  0.00  0.00    +0.000 A 
ATOM     27  C   UNL     1       2.116   6.121  19.240  0.00  0.00    +0.000 A 
ATOM     28  C   UNL     1       2.395   6.979  18.161  0.00  0.00    +0.000 A 
ATOM     29  C   UNL     1       2.295   8.371  18.291  0.00  0.00    +0.000 A 
BRANCH  27  30
ATOM     30  C   UNL     1       2.133   4.645  19.100  0.00  0.00    +0.000 A 
ATOM     31  C   UNL     1       2.897   4.029  18.088  0.00  0.00    +0.000 A 
ATOM     32  C   UNL     1       2.920   2.642  17.923  0.00  0.00    +0.000 A 
ATOM     33  C   UNL     1       2.193   1.832  18.785  0.00  0.00    +0.000 A 
ATOM     34  C   UNL     1       1.443   2.409  19.807  0.00  0.00    +0.000 A 
ATOM     35  C   UNL     1       1.410   3.800  19.958  0.00  0.00    +0.000 A 
ENDBRANCH  27  30
ENDBRANCH   5  24
TORSDOF 6
ENDMDL
MODEL 6
REMARK VINA RESULT:      -8.5      2.070      2.895
REMARK  Name = 
REMARK  6 active torsions:
REMARK  status: ('A' for Active; 'I' for Inactive)
REMARK    1  A    between atoms: C_2  and  O_3
REMARK    2  A    between atoms: C_2  and  C_4
REMARK    3  A    between atoms: C_8  and  N_9
REMARK    4  A    between atoms: C_11  and  C_12
REMARK    5  A    between atoms: C_19  and  C_20
REMARK    6  A    between atoms: C_23  and  C_24
REMARK                            x       y       z     vdW  Elec       q    Type
REMARK                         _______ _______ _______ _____ _____    ______ ____
ROOT
ATOM      1  N   UNL     1      -1.342  11.458  18.434  0.00  0.00    +0.000 N 
ATOM      2  N   UNL     1      -0.685  12.667  18.688  0.00  0.00    +0.000 NA
ATOM      3  C   UNL     1       0.399  12.365  19.363  0.00  0.00    +0.000 C 
ATOM      4  C   UNL     1       0.569  10.900  19.474  0.00  0.00    +0.000 C 
ATOM      5  C   UNL     1       1.692  10.218  19.737  0.00  0.00    +0.000 C 
ATOM      6  C   UNL     1      -0.704  10.333  18.979  0.00  0.00    +0.000 C 
ATOM      7  O   UNL     1      -1.039   9.163  19.032  0.00  0.00    +0.000 OA
ENDROOT
BRANCH   1  12
ATOM      8  C   UNL     1      -3.673  10.803  15.590  0.00  0.00    +0.000 A 
ATOM      9  C   UNL     1      -4.888  11.252  16.119  0.00  0.00    +0.000 A 
ATOM     10  C   UNL     1      -4.911  11.832  17.381  0.00  0.00    +0.000 A 
ATOM     11  C   UNL     1      -3.734  11.928  18.126  0.00  0.00    +0.000 A 
ATOM     12  C   UNL     1      -2.511  11.447  17.633  0.00  0.00    +0.000 A 
ATOM     13  C   UNL     1      -2.490  10.901  16.343  0.00  0.00    +0.000 A 
BRANCH   8  15
ATOM     14  O   UNL     1      -2.570   9.931  13.672  0.00  0.00    +0.000 OA
ATOM     15  C   UNL     1      -3.612  10.142  14.263  0.00  0.00    +0.000 C 
BRANCH  15  16
ATOM     16  O   UNL     1      -4.824   9.816  13.764  0.00  0.00    +0.000 OA
ATOM     17  H   UNL     1      -5.402  10.573  13.563  0.00  0.00    +0.000 HD
ENDBRANCH  15  16
ENDBRANCH   8  15
ENDBRANCH   1  12
BRANCH   3  18
ATOM     18  C   UNL     1       1.325  13.358  19.942  0.00  0.00    +0.000 A 
ATOM     19  C   UNL     1       1.104  13.909  21.213  0.00  0.00    +0.000 A 
ATOM     20  C   UNL     1       1.978  14.864  21.735  0.00  0.00    +0.000 A 
ATOM     21  C   UNL     1       3.059  15.303  20.976  0.00  0.00    +0.000 A 
ATOM     22  C   UNL     1       3.268  14.786  19.698  0.00  0.00    +0.000 A 
ATOM     23  C   UNL     1       2.404  13.817  19.179  0.00  0.00    +0.000 A 
ENDBRANCH   3  18
BRANCH   5  24
ATOM     24  C   UNL     1       1.832   8.770  19.594  0.00  0.00    +0.000 A 
ATOM     25  C   UNL     1       2.247   8.248  18.370  0.00  0.00    +0.000 A 
ATOM     26  C   UNL     1       2.441   6.875  18.224  0.00  0.00    +0.000 A 
ATOM     27  C   UNL     1       2.252   5.985  19.298  0.00  0.00    +0.000 A 
ATOM     28  C   UNL     1       1.786   6.528  20.509  0.00  0.00    +0.000 A 
ATOM     29  C   UNL     1       1.573   7.906  20.657  0.00  0.00    +0.000 A 
BRANCH  27  30
ATOM     30  C   UNL     1       2.566   4.544  19.148  0.00  0.00    +0.000 A 
ATOM     31  C   UNL     1       1.555   3.620  18.812  0.00  0.00    +0.000 A 
ATOM     32  C   UNL     1       1.820   2.255  18.679  0.00  0.00    +0.000 A 
ATOM     33  C   UNL     1       3.113   1.781  18.859  0.00  0.00    +0.000 A 
ATOM     34  C   UNL     1       4.137   2.672  19.173  0.00  0.00    +0.000 A 
ATOM     35  C   UNL     1       3.864   4.036  19.321  0.00  0.00    +0.000 A 
ENDBRANCH  27  30
ENDBRANCH   5  24
TORSDOF 6
ENDMDL
MODEL 7
REMARK VINA RESULT:      -8.5      1.912      2.843
REMARK  Name = 
REMARK  6 active torsions:
REMARK  status: ('A' for Active; 'I' for Inactive)
REMARK    1  A    between atoms: C_2  and  O_3
REMARK    2  A    between atoms: C_2  and  C_4
REMARK    3  A    between atoms: C_8  and  N_9
REMARK    4  A    between atoms: C_11  and  C_12
REMARK    5  A    between atoms: C_19  and  C_20
REMARK    6  A    between atoms: C_23  and  C_24
REMARK                            x       y       z     vdW  Elec       q    Type
REMARK                         _______ _______ _______ _____ _____    ______ ____
ROOT
ATOM      1  N   UNL     1      -1.322  11.534  18.169  0.00  0.00    +0.000 N 
ATOM      2  N   UNL     1      -0.660  12.758  18.318  0.00  0.00    +0.000 NA
ATOM      3  C   UNL     1       0.456  12.500  18.959  0.00  0.00    +0.000 C 
ATOM      4  C   UNL     1       0.637  11.045  19.152  0.00  0.00    +0.000 C 
ATOM      5  C   UNL     1       1.774  10.381  19.404  0.00  0.00    +0.000 C 
ATOM      6  C   UNL     1      -0.654  10.446  18.751  0.00  0.00    +0.000 C 
ATOM      7  O   UNL     1      -0.981   9.281  18.890  0.00  0.00    +0.000 OA
ENDROOT
BRANCH   1  12
ATOM      8  C   UNL     1      -3.757  10.768  15.442  0.00  0.00    +0.000 A 
ATOM      9  C   UNL     1      -4.962  11.175  16.025  0.00  0.00    +0.000 A 
ATOM     10  C   UNL     1      -4.949  11.764  17.283  0.00  0.00    +0.000 A 
ATOM     11  C   UNL     1      -3.742  11.911  17.971  0.00  0.00    +0.000 A 
ATOM     12  C   UNL     1      -2.526  11.473  17.424  0.00  0.00    +0.000 A 
ATOM     13  C   UNL     1      -2.545  10.917  16.138  0.00  0.00    +0.000 A 
BRANCH   8  15
ATOM     14  O   UNL     1      -4.735   9.688  13.562  0.00  0.00    +0.000 OA
ATOM     15  C   UNL     1      -3.734  10.099  14.118  0.00  0.00    +0.000 C 
BRANCH  15  16
ATOM     16  O   UNL     1      -2.494   9.970  13.598  0.00  0.00    +0.000 OA
ATOM     17  H   UNL     1      -1.812   9.679  14.230  0.00  0.00    +0.000 HD
ENDBRANCH  15  16
ENDBRANCH   8  15
ENDBRANCH   1  12
BRANCH   3  18
ATOM     18  C   UNL     1       1.402  13.528  19.434  0.00  0.00    +0.000 A 
ATOM     19  C   UNL     1       2.404  14.041  18.597  0.00  0.00    +0.000 A 
ATOM     20  C   UNL     1       3.304  14.997  19.070  0.00  0.00    +0.000 A 
ATOM     21  C   UNL     1       3.232  15.422  20.394  0.00  0.00    +0.000 A 
ATOM     22  C   UNL     1       2.261  14.893  21.243  0.00  0.00    +0.000 A 
ATOM     23  C   UNL     1       1.347  13.948  20.767  0.00  0.00    +0.000 A 
ENDBRANCH   3  18
BRANCH   5  24
ATOM     24  C   UNL     1       1.914   8.928  19.344  0.00  0.00    +0.000 A 
ATOM     25  C   UNL     1       1.647   8.176  20.486  0.00  0.00    +0.000 A 
ATOM     26  C   UNL     1       1.720   6.784  20.440  0.00  0.00    +0.000 A 
ATOM     27  C   UNL     1       2.033   6.100  19.251  0.00  0.00    +0.000 A 
ATOM     28  C   UNL     1       2.345   6.881  18.124  0.00  0.00    +0.000 A 
ATOM     29  C   UNL     1       2.292   8.281  18.168  0.00  0.00    +0.000 A 
BRANCH  27  30
ATOM     30  C   UNL     1       2.000   4.619  19.201  0.00  0.00    +0.000 A 
ATOM     31  C   UNL     1       1.542   3.872  20.305  0.00  0.00    +0.000 A 
ATOM     32  C   UNL     1       1.513   2.476  20.290  0.00  0.00    +0.000 A 
ATOM     33  C   UNL     1       1.925   1.789  19.156  0.00  0.00    +0.000 A 
ATOM     34  C   UNL     1       2.365   2.498  18.041  0.00  0.00    +0.000 A 
ATOM     35  C   UNL     1       2.407   3.897  18.067  0.00  0.00    +0.000 A 
ENDBRANCH  27  30
ENDBRANCH   5  24
TORSDOF 6
ENDMDL
MODEL 8
REMARK VINA RESULT:      -8.4      1.388      2.072
REMARK  Name = 
REMARK  6 active torsions:
REMARK  status: ('A' for Active; 'I' for Inactive)
REMARK    1  A    between atoms: C_2  and  O_3
REMARK    2  A    between atoms: C_2  and  C_4
REMARK    3  A    between atoms: C_8  and  N_9
REMARK    4  A    between atoms: C_11  and  C_12
REMARK    5  A    between atoms: C_19  and  C_20
REMARK    6  A    between atoms: C_23  and  C_24
REMARK                            x       y       z     vdW  Elec       q    Type
REMARK                         _______ _______ _______ _____ _____    ______ ____
ROOT
ATOM      1  N   UNL     1      -2.116  12.010  19.194  0.00  0.00    +0.000 N 
ATOM      2  N   UNL     1      -1.604  13.286  19.454  0.00  0.00    +0.000 NA
ATOM      3  C   UNL     1      -0.353  13.117  19.812  0.00  0.00    +0.000 C 
ATOM      4  C   UNL     1       0.055  11.702  19.679  0.00  0.00    +0.000 C 
ATOM      5  C   UNL     1       1.297  11.207  19.580  0.00  0.00    +0.000 C 
ATOM      6  C   UNL     1      -1.202  10.968  19.418  0.00  0.00    +0.000 C 
ATOM      7  O   UNL     1      -1.336   9.759  19.385  0.00  0.00    +0.000 OA
ENDROOT
BRANCH   1  12
ATOM      8  C   UNL     1      -5.842  12.134  18.956  0.00  0.00    +0.000 A 
ATOM      9  C   UNL     1      -6.045  11.781  17.618  0.00  0.00    +0.000 A 
ATOM     10  C   UNL     1      -4.955  11.436  16.828  0.00  0.00    +0.000 A 
ATOM     11  C   UNL     1      -3.666  11.480  17.362  0.00  0.00    +0.000 A 
ATOM     12  C   UNL     1      -3.433  11.871  18.690  0.00  0.00    +0.000 A 
ATOM     13  C   UNL     1      -4.542  12.178  19.490  0.00  0.00    +0.000 A 
BRANCH   8  15
ATOM     14  O   UNL     1      -7.434  11.841  20.698  0.00  0.00    +0.000 OA
ATOM     15  C   UNL     1      -6.975  12.547  19.821  0.00  0.00    +0.000 C 
BRANCH  15  16
ATOM     16  O   UNL     1      -7.461  13.772  19.527  0.00  0.00    +0.000 OA
ATOM     17  H   UNL     1      -7.894  13.845  18.657  0.00  0.00    +0.000 HD
ENDBRANCH  15  16
ENDBRANCH   8  15
ENDBRANCH   1  12
BRANCH   3  18
ATOM     18  C   UNL     1       0.530  14.197  20.293  0.00  0.00    +0.000 A 
ATOM     19  C   UNL     1       0.879  14.307  21.648  0.00  0.00    +0.000 A 
ATOM     20  C   UNL     1       1.697  15.349  22.088  0.00  0.00    +0.000 A 
ATOM     21  C   UNL     1       2.144  16.310  21.185  0.00  0.00    +0.000 A 
ATOM     22  C   UNL     1       1.775  16.228  19.842  0.00  0.00    +0.000 A 
ATOM     23  C   UNL     1       0.969  15.176  19.395  0.00  0.00    +0.000 A 
ENDBRANCH   3  18
BRANCH   5  24
ATOM     24  C   UNL     1       1.609   9.828  19.212  0.00  0.00    +0.000 A 
ATOM     25  C   UNL     1       1.906   9.534  17.882  0.00  0.00    +0.000 A 
ATOM     26  C   UNL     1       2.261   8.236  17.515  0.00  0.00    +0.000 A 
ATOM     27  C   UNL     1       2.356   7.200  18.462  0.00  0.00    +0.000 A 
ATOM     28  C   UNL     1       2.005   7.509  19.789  0.00  0.00    +0.000 A 
ATOM     29  C   UNL     1       1.630   8.808  20.162  0.00  0.00    +0.000 A 
BRANCH  27  30
ATOM     30  C   UNL     1       2.837   5.856  18.066  0.00  0.00    +0.000 A 
ATOM     31  C   UNL     1       4.189   5.649  17.723  0.00  0.00    +0.000 A 
ATOM     32  C   UNL     1       4.666   4.396  17.332  0.00  0.00    +0.000 A 
ATOM     33  C   UNL     1       3.804   3.309  17.296  0.00  0.00    +0.000 A 
ATOM     34  C   UNL     1       2.467   3.476  17.648  0.00  0.00    +0.000 A 
ATOM     35  C   UNL     1       1.989   4.737  18.023  0.00  0.00    +0.000 A 
ENDBRANCH  27  30
ENDBRANCH   5  24
TORSDOF 6
ENDMDL
MODEL 9
REMARK VINA RESULT:      -8.4      0.776      1.297
REMARK  Name = 
REMARK  6 active torsions:
REMARK  status: ('A' for Active; 'I' for Inactive)
REMARK    1  A    between atoms: C_2  and  O_3
REMARK    2  A    between atoms: C_2  and  C_4
REMARK    3  A    between atoms: C_8  and  N_9
REMARK    4  A    between atoms: C_11  and  C_12
REMARK    5  A    between atoms: C_19  and  C_20
REMARK    6  A    between atoms: C_23  and  C_24
REMARK                            x       y       z     vdW  Elec       q    Type
REMARK                         _______ _______ _______ _____ _____    ______ ____
ROOT
ATOM      1  N   UNL     1      -1.435  11.659  18.593  0.00  0.00    +0.000 N 
ATOM      2  N   UNL     1      -0.718  12.858  18.523  0.00  0.00    +0.000 NA
ATOM      3  C   UNL     1       0.518  12.571  18.856  0.00  0.00    +0.000 C 
ATOM      4  C   UNL     1       0.697  11.114  19.042  0.00  0.00    +0.000 C 
ATOM      5  C   UNL     1       1.838  10.412  19.008  0.00  0.00    +0.000 C 
ATOM      6  C   UNL     1      -0.673  10.559  19.015  0.00  0.00    +0.000 C 
ATOM      7  O   UNL     1      -0.990   9.412  19.273  0.00  0.00    +0.000 OA
ENDROOT
BRANCH   1  12
ATOM      8  C   UNL     1      -5.142  12.116  18.631  0.00  0.00    +0.000 A 
ATOM      9  C   UNL     1      -5.479  11.753  17.323  0.00  0.00    +0.000 A 
ATOM     10  C   UNL     1      -4.489  11.293  16.464  0.00  0.00    +0.000 A 
ATOM     11  C   UNL     1      -3.163  11.232  16.898  0.00  0.00    +0.000 A 
ATOM     12  C   UNL     1      -2.795  11.629  18.193  0.00  0.00    +0.000 A 
ATOM     13  C   UNL     1      -3.806  12.053  19.065  0.00  0.00    +0.000 A 
BRANCH   8  15
ATOM     14  O   UNL     1      -6.242  13.825  19.866  0.00  0.00    +0.000 OA
ATOM     15  C   UNL     1      -6.164  12.649  19.566  0.00  0.00    +0.000 C 
BRANCH  15  16
ATOM     16  O   UNL     1      -6.984  11.702  20.069  0.00  0.00    +0.000 OA
ATOM     17  H   UNL     1      -7.374  11.103  19.407  0.00  0.00    +0.000 HD
ENDBRANCH  15  16
ENDBRANCH   8  15
ENDBRANCH   1  12
BRANCH   3  18
ATOM     18  C   UNL     1       1.589  13.571  19.031  0.00  0.00    +0.000 A 
ATOM     19  C   UNL     1       1.664  14.367  20.184  0.00  0.00    +0.000 A 
ATOM     20  C   UNL     1       2.671  15.324  20.321  0.00  0.00    +0.000 A 
ATOM     21  C   UNL     1       3.590  15.517  19.294  0.00  0.00    +0.000 A 
ATOM     22  C   UNL     1       3.504  14.754  18.129  0.00  0.00    +0.000 A 
ATOM     23  C   UNL     1       2.506  13.783  17.996  0.00  0.00    +0.000 A 
ENDBRANCH   3  18
BRANCH   5  24
ATOM     24  C   UNL     1       1.909   8.954  18.961  0.00  0.00    +0.000 A 
ATOM     25  C   UNL     1       2.067   8.324  17.727  0.00  0.00    +0.000 A 
ATOM     26  C   UNL     1       2.193   6.936  17.660  0.00  0.00    +0.000 A 
ATOM     27  C   UNL     1       2.191   6.139  18.819  0.00  0.00    +0.000 A 
ATOM     28  C   UNL     1       1.981   6.791  20.048  0.00  0.00    +0.000 A 
ATOM     29  C   UNL     1       1.836   8.183  20.120  0.00  0.00    +0.000 A 
BRANCH  27  30
ATOM     30  C   UNL     1       2.432   4.679  18.732  0.00  0.00    +0.000 A 
ATOM     31  C   UNL     1       1.397   3.762  19.010  0.00  0.00    +0.000 A 
ATOM     32  C   UNL     1       1.600   2.382  18.949  0.00  0.00    +0.000 A 
ATOM     33  C   UNL     1       2.844   1.882  18.587  0.00  0.00    +0.000 A 
ATOM     34  C   UNL     1       3.882   2.762  18.288  0.00  0.00    +0.000 A 
ATOM     35  C   UNL     1       3.678   4.144  18.365  0.00  0.00    +0.000 A 
ENDBRANCH  27  30
ENDBRANCH   5  24
TORSDOF 6
ENDMDL
