MODEL 1
REMARK VINA RESULT:      -7.7      0.000      0.000
REMARK  Name = 
REMARK  2 active torsions:
REMARK  status: ('A' for Active; 'I' for Inactive)
REMARK    1  A    between atoms: C_2  and  C_4
REMARK    2  A    between atoms: C_10  and  C_11
REMARK                            x       y       z     vdW  Elec       q    Type
REMARK                         _______ _______ _______ _____ _____    ______ ____
ROOT
ATOM      1  C   UNL     1       1.873   3.705  19.097  0.00  0.00    +0.000 A 
ATOM      2  C   UNL     1       1.276   4.399  20.168  0.00  0.00    +0.000 A 
ATOM      3  C   UNL     1       1.708   5.676  20.531  0.00  0.00    +0.000 A 
ATOM      4  C   UNL     1       2.748   6.310  19.844  0.00  0.00    +0.000 A 
ATOM      5  C   UNL     1       3.321   5.607  18.782  0.00  0.00    +0.000 A 
ATOM      6  N   UNL     1       4.336   5.927  17.917  0.00  0.00    +0.000 N 
ATOM      7  C   UNL     1       4.524   4.885  17.038  0.00  0.00    +0.000 A 
ATOM      8  N   UNL     1       3.675   3.910  17.311  0.00  0.00    +0.000 NA
ATOM      9  C   UNL     1       2.916   4.335  18.391  0.00  0.00    +0.000 A 
ATOM     10  H   UNL     1       4.852   6.793  17.934  0.00  0.00    +0.000 HD
ENDROOT
BRANCH   7  11
ATOM     11  C   UNL     1       5.518   4.874  15.969  0.00  0.00    +0.000 A 
ATOM     12  C   UNL     1       6.736   5.525  16.024  0.00  0.00    +0.000 A 
ATOM     13  N   UNL     1       7.656   5.517  15.034  0.00  0.00    +0.000 NA
ATOM     14  C   UNL     1       7.324   4.818  13.939  0.00  0.00    +0.000 A 
ATOM     15  N   UNL     1       6.180   4.143  13.758  0.00  0.00    +0.000 NA
ATOM     16  C   UNL     1       5.301   4.191  14.786  0.00  0.00    +0.000 A 
ENDBRANCH   7  11
BRANCH   1  18
ATOM     17  N   UNL     1       2.338   1.399  18.484  0.00  0.00    +0.000 N 
ATOM     18  C   UNL     1       1.395   2.344  18.759  0.00  0.00    +0.000 C 
ATOM     19  O   UNL     1       0.200   2.072  18.736  0.00  0.00    +0.000 OA
ATOM     20  H   UNL     1       2.041   0.459  18.262  0.00  0.00    +0.000 HD
ATOM     21  H   UNL     1       3.329   1.623  18.499  0.00  0.00    +0.000 HD
ENDBRANCH   1  18
TORSDOF 2
ENDMDL
MODEL 2
REMARK VINA RESULT:      -7.7      0.063      1.110
REMARK  Name = 
REMARK  2 active torsions:
REMARK  status: ('A' for Active; 'I' for Inactive)
REMARK    1  A    between atoms: C_2  and  C_4
REMARK    2  A    between atoms: C_10  and  C_11
REMARK                            x       y       z     vdW  Elec       q    Type
REMARK                         _______ _______ _______ _____ _____    ______ ____
ROOT
ATOM      1  C   UNL     1       1.844   3.741  19.134  0.00  0.00    +0.000 A 
ATOM      2  C   UNL     1       1.260   4.445  20.205  0.00  0.00    +0.000 A 
ATOM      3  C   UNL     1       1.702   5.722  20.556  0.00  0.00    +0.000 A 
ATOM      4  C   UNL     1       2.739   6.346  19.854  0.00  0.00    +0.000 A 
ATOM      5  C   UNL     1       3.299   5.633  18.792  0.00  0.00    +0.000 A 
ATOM      6  N   UNL     1       4.307   5.941  17.917  0.00  0.00    +0.000 N 
ATOM      7  C   UNL     1       4.483   4.892  17.043  0.00  0.00    +0.000 A 
ATOM      8  N   UNL     1       3.631   3.924  17.331  0.00  0.00    +0.000 NA
ATOM      9  C   UNL     1       2.884   4.360  18.414  0.00  0.00    +0.000 A 
ATOM     10  H   UNL     1       4.828   6.805  17.923  0.00  0.00    +0.000 HD
ENDROOT
BRANCH   7  11
ATOM     11  C   UNL     1       5.467   4.869  15.965  0.00  0.00    +0.000 A 
ATOM     12  C   UNL     1       5.320   4.166  14.784  0.00  0.00    +0.000 A 
ATOM     13  N   UNL     1       6.230   4.143  13.786  0.00  0.00    +0.000 NA
ATOM     14  C   UNL     1       7.341   4.864  13.997  0.00  0.00    +0.000 A 
ATOM     15  N   UNL     1       7.608   5.589  15.093  0.00  0.00    +0.000 NA
ATOM     16  C   UNL     1       6.656   5.570  16.055  0.00  0.00    +0.000 A 
ENDBRANCH   7  11
BRANCH   1  18
ATOM     17  N   UNL     1       2.293   1.421  18.559  0.00  0.00    +0.000 N 
ATOM     18  C   UNL     1       1.356   2.379  18.810  0.00  0.00    +0.000 C 
ATOM     19  O   UNL     1       0.159   2.119  18.776  0.00  0.00    +0.000 OA
ATOM     20  H   UNL     1       1.989   0.482  18.347  0.00  0.00    +0.000 HD
ATOM     21  H   UNL     1       3.286   1.635  18.582  0.00  0.00    +0.000 HD
ENDBRANCH   1  18
TORSDOF 2
ENDMDL
MODEL 3
REMARK VINA RESULT:      -7.6      3.098      6.584
REMARK  Name = 
REMARK  2 active torsions:
REMARK  status: ('A' for Active; 'I' for Inactive)
REMARK    1  A    between atoms: C_2  and  C_4
REMARK    2  A    between atoms: C_10  and  C_11
REMARK                            x       y       z     vdW  Elec       q    Type
REMARK                         _______ _______ _______ _____ _____    ______ ____
ROOT
ATOM      1  C   UNL     1       6.984   5.466  17.564  0.00  0.00    +0.000 A 
ATOM      2  C   UNL     1       7.437   5.450  16.231  0.00  0.00    +0.000 A 
ATOM      3  C   UNL     1       6.742   4.754  15.240  0.00  0.00    +0.000 A 
ATOM      4  C   UNL     1       5.571   4.050  15.538  0.00  0.00    +0.000 A 
ATOM      5  C   UNL     1       5.136   4.084  16.865  0.00  0.00    +0.000 A 
ATOM      6  N   UNL     1       4.054   3.517  17.486  0.00  0.00    +0.000 N 
ATOM      7  C   UNL     1       4.070   3.855  18.820  0.00  0.00    +0.000 A 
ATOM      8  N   UNL     1       5.124   4.611  19.076  0.00  0.00    +0.000 NA
ATOM      9  C   UNL     1       5.802   4.767  17.877  0.00  0.00    +0.000 A 
ATOM     10  H   UNL     1       3.362   2.945  17.025  0.00  0.00    +0.000 HD
ENDROOT
BRANCH   7  11
ATOM     11  C   UNL     1       3.066   3.435  19.792  0.00  0.00    +0.000 A 
ATOM     12  C   UNL     1       1.701   3.541  19.606  0.00  0.00    +0.000 A 
ATOM     13  N   UNL     1       0.770   3.154  20.506  0.00  0.00    +0.000 NA
ATOM     14  C   UNL     1       1.248   2.637  21.648  0.00  0.00    +0.000 A 
ATOM     15  N   UNL     1       2.543   2.478  21.954  0.00  0.00    +0.000 NA
ATOM     16  C   UNL     1       3.424   2.885  21.010  0.00  0.00    +0.000 A 
ENDBRANCH   7  11
BRANCH   1  18
ATOM     17  N   UNL     1       8.059   5.544  19.743  0.00  0.00    +0.000 N 
ATOM     18  C   UNL     1       7.765   6.202  18.586  0.00  0.00    +0.000 C 
ATOM     19  O   UNL     1       8.142   7.353  18.399  0.00  0.00    +0.000 OA
ATOM     20  H   UNL     1       8.600   6.017  20.452  0.00  0.00    +0.000 HD
ATOM     21  H   UNL     1       7.745   4.591  19.903  0.00  0.00    +0.000 HD
ENDBRANCH   1  18
TORSDOF 2
ENDMDL
MODEL 4
REMARK VINA RESULT:      -7.6      3.099      6.546
REMARK  Name = 
REMARK  2 active torsions:
REMARK  status: ('A' for Active; 'I' for Inactive)
REMARK    1  A    between atoms: C_2  and  C_4
REMARK    2  A    between atoms: C_10  and  C_11
REMARK                            x       y       z     vdW  Elec       q    Type
REMARK                         _______ _______ _______ _____ _____    ______ ____
ROOT
ATOM      1  C   UNL     1       6.993   5.491  17.565  0.00  0.00    +0.000 A 
ATOM      2  C   UNL     1       7.426   5.466  16.225  0.00  0.00    +0.000 A 
ATOM      3  C   UNL     1       6.723   4.753  15.252  0.00  0.00    +0.000 A 
ATOM      4  C   UNL     1       5.564   4.040  15.575  0.00  0.00    +0.000 A 
ATOM      5  C   UNL     1       5.149   4.084  16.907  0.00  0.00    +0.000 A 
ATOM      6  N   UNL     1       4.082   3.512  17.550  0.00  0.00    +0.000 N 
ATOM      7  C   UNL     1       4.115   3.864  18.880  0.00  0.00    +0.000 A 
ATOM      8  N   UNL     1       5.165   4.632  19.113  0.00  0.00    +0.000 NA
ATOM      9  C   UNL     1       5.823   4.784  17.903  0.00  0.00    +0.000 A 
ATOM     10  H   UNL     1       3.389   2.929  17.105  0.00  0.00    +0.000 HD
ENDROOT
BRANCH   7  11
ATOM     11  C   UNL     1       3.131   3.443  19.872  0.00  0.00    +0.000 A 
ATOM     12  C   UNL     1       3.432   2.764  21.038  0.00  0.00    +0.000 A 
ATOM     13  N   UNL     1       2.522   2.373  21.956  0.00  0.00    +0.000 NA
ATOM     14  C   UNL     1       1.247   2.684  21.678  0.00  0.00    +0.000 A 
ATOM     15  N   UNL     1       0.820   3.338  20.589  0.00  0.00    +0.000 NA
ATOM     16  C   UNL     1       1.782   3.702  19.708  0.00  0.00    +0.000 A 
ENDBRANCH   7  11
BRANCH   1  18
ATOM     17  N   UNL     1       8.108   5.599  19.723  0.00  0.00    +0.000 N 
ATOM     18  C   UNL     1       7.782   6.245  18.567  0.00  0.00    +0.000 C 
ATOM     19  O   UNL     1       8.138   7.400  18.366  0.00  0.00    +0.000 OA
ATOM     20  H   UNL     1       8.654   6.085  20.419  0.00  0.00    +0.000 HD
ATOM     21  H   UNL     1       7.810   4.642  19.895  0.00  0.00    +0.000 HD
ENDBRANCH   1  18
TORSDOF 2
ENDMDL
MODEL 5
REMARK VINA RESULT:      -7.3      1.850      2.975
REMARK  Name = 
REMARK  2 active torsions:
REMARK  status: ('A' for Active; 'I' for Inactive)
REMARK    1  A    between atoms: C_2  and  C_4
REMARK    2  A    between atoms: C_10  and  C_11
REMARK                            x       y       z     vdW  Elec       q    Type
REMARK                         _______ _______ _______ _____ _____    ______ ____
ROOT
ATOM      1  C   UNL     1       2.552   5.361  20.093  0.00  0.00    +0.000 A 
ATOM      2  C   UNL     1       2.067   4.532  21.123  0.00  0.00    +0.000 A 
ATOM      3  C   UNL     1       2.450   3.192  21.212  0.00  0.00    +0.000 A 
ATOM      4  C   UNL     1       3.329   2.628  20.281  0.00  0.00    +0.000 A 
ATOM      5  C   UNL     1       3.802   3.469  19.272  0.00  0.00    +0.000 A 
ATOM      6  N   UNL     1       4.656   3.246  18.223  0.00  0.00    +0.000 N 
ATOM      7  C   UNL     1       4.806   4.412  17.508  0.00  0.00    +0.000 A 
ATOM      8  N   UNL     1       4.077   5.369  18.055  0.00  0.00    +0.000 NA
ATOM      9  C   UNL     1       3.444   4.808  19.153  0.00  0.00    +0.000 A 
ATOM     10  H   UNL     1       5.098   2.362  18.021  0.00  0.00    +0.000 HD
ENDROOT
BRANCH   7  11
ATOM     11  C   UNL     1       5.649   4.554  16.325  0.00  0.00    +0.000 A 
ATOM     12  C   UNL     1       5.426   3.912  15.121  0.00  0.00    +0.000 A 
ATOM     13  N   UNL     1       6.207   4.041  14.026  0.00  0.00    +0.000 NA
ATOM     14  C   UNL     1       7.261   4.859  14.159  0.00  0.00    +0.000 A 
ATOM     15  N   UNL     1       7.590   5.540  15.265  0.00  0.00    +0.000 NA
ATOM     16  C   UNL     1       6.768   5.367  16.326  0.00  0.00    +0.000 A 
ENDBRANCH   7  11
BRANCH   1  18
ATOM     17  N   UNL     1       2.379   7.464  18.885  0.00  0.00    +0.000 N 
ATOM     18  C   UNL     1       2.103   6.772  20.026  0.00  0.00    +0.000 C 
ATOM     19  O   UNL     1       1.500   7.296  20.954  0.00  0.00    +0.000 OA
ATOM     20  H   UNL     1       2.075   8.424  18.807  0.00  0.00    +0.000 HD
ATOM     21  H   UNL     1       2.883   7.033  18.114  0.00  0.00    +0.000 HD
ENDBRANCH   1  18
TORSDOF 2
ENDMDL
MODEL 6
REMARK VINA RESULT:      -7.2      1.660      2.749
REMARK  Name = 
REMARK  2 active torsions:
REMARK  status: ('A' for Active; 'I' for Inactive)
REMARK    1  A    between atoms: C_2  and  C_4
REMARK    2  A    between atoms: C_10  and  C_11
REMARK                            x       y       z     vdW  Elec       q    Type
REMARK                         _______ _______ _______ _____ _____    ______ ____
ROOT
ATOM      1  C   UNL     1       2.030   5.298  19.790  0.00  0.00    +0.000 A 
ATOM      2  C   UNL     1       1.222   4.415  20.535  0.00  0.00    +0.000 A 
ATOM      3  C   UNL     1       1.273   3.036  20.321  0.00  0.00    +0.000 A 
ATOM      4  C   UNL     1       2.127   2.485  19.362  0.00  0.00    +0.000 A 
ATOM      5  C   UNL     1       2.922   3.377  18.639  0.00  0.00    +0.000 A 
ATOM      6  N   UNL     1       3.848   3.178  17.648  0.00  0.00    +0.000 N 
ATOM      7  C   UNL     1       4.364   4.394  17.261  0.00  0.00    +0.000 A 
ATOM      8  N   UNL     1       3.799   5.362  17.962  0.00  0.00    +0.000 NA
ATOM      9  C   UNL     1       2.900   4.755  18.825  0.00  0.00    +0.000 A 
ATOM     10  H   UNL     1       4.102   2.277  17.272  0.00  0.00    +0.000 HD
ENDROOT
BRANCH   7  11
ATOM     11  C   UNL     1       5.382   4.571  16.230  0.00  0.00    +0.000 A 
ATOM     12  C   UNL     1       6.520   5.342  16.376  0.00  0.00    +0.000 A 
ATOM     13  N   UNL     1       7.462   5.508  15.422  0.00  0.00    +0.000 NA
ATOM     14  C   UNL     1       7.238   4.863  14.267  0.00  0.00    +0.000 A 
ATOM     15  N   UNL     1       6.180   4.086  13.996  0.00  0.00    +0.000 NA
ATOM     16  C   UNL     1       5.273   3.961  14.993  0.00  0.00    +0.000 A 
ENDBRANCH   7  11
BRANCH   1  18
ATOM     17  N   UNL     1       2.383   7.590  19.060  0.00  0.00    +0.000 N 
ATOM     18  C   UNL     1       1.928   6.755  20.037  0.00  0.00    +0.000 C 
ATOM     19  O   UNL     1       1.447   7.197  21.074  0.00  0.00    +0.000 OA
ATOM     20  H   UNL     1       2.316   8.588  19.196  0.00  0.00    +0.000 HD
ATOM     21  H   UNL     1       2.786   7.226  18.200  0.00  0.00    +0.000 HD
ENDBRANCH   1  18
TORSDOF 2
ENDMDL
MODEL 7
REMARK VINA RESULT:      -7.2      2.902      6.617
REMARK  Name = 
REMARK  2 active torsions:
REMARK  status: ('A' for Active; 'I' for Inactive)
REMARK    1  A    between atoms: C_2  and  C_4
REMARK    2  A    between atoms: C_10  and  C_11
REMARK                            x       y       z     vdW  Elec       q    Type
REMARK                         _______ _______ _______ _____ _____    ______ ____
ROOT
ATOM      1  C   UNL     1       6.894   5.702  17.028  0.00  0.00    +0.000 A 
ATOM      2  C   UNL     1       7.377   5.447  15.730  0.00  0.00    +0.000 A 
ATOM      3  C   UNL     1       6.837   4.425  14.947  0.00  0.00    +0.000 A 
ATOM      4  C   UNL     1       5.797   3.621  15.424  0.00  0.00    +0.000 A 
ATOM      5  C   UNL     1       5.329   3.896  16.711  0.00  0.00    +0.000 A 
ATOM      6  N   UNL     1       4.344   3.314  17.467  0.00  0.00    +0.000 N 
ATOM      7  C   UNL     1       4.269   3.959  18.681  0.00  0.00    +0.000 A 
ATOM      8  N   UNL     1       5.170   4.924  18.732  0.00  0.00    +0.000 NA
ATOM      9  C   UNL     1       5.842   4.905  17.519  0.00  0.00    +0.000 A 
ATOM     10  H   UNL     1       3.773   2.539  17.168  0.00  0.00    +0.000 HD
ENDROOT
BRANCH   7  11
ATOM     11  C   UNL     1       3.327   3.616  19.742  0.00  0.00    +0.000 A 
ATOM     12  C   UNL     1       2.059   4.153  19.869  0.00  0.00    +0.000 A 
ATOM     13  N   UNL     1       1.187   3.838  20.852  0.00  0.00    +0.000 NA
ATOM     14  C   UNL     1       1.623   2.938  21.747  0.00  0.00    +0.000 A 
ATOM     15  N   UNL     1       2.823   2.343  21.739  0.00  0.00    +0.000 NA
ATOM     16  C   UNL     1       3.649   2.702  20.729  0.00  0.00    +0.000 A 
ENDBRANCH   7  11
BRANCH   1  18
ATOM     17  N   UNL     1       7.416   8.055  17.348  0.00  0.00    +0.000 N 
ATOM     18  C   UNL     1       7.511   6.784  17.831  0.00  0.00    +0.000 C 
ATOM     19  O   UNL     1       8.078   6.551  18.892  0.00  0.00    +0.000 OA
ATOM     20  H   UNL     1       7.817   8.813  17.880  0.00  0.00    +0.000 HD
ATOM     21  H   UNL     1       6.949   8.251  16.466  0.00  0.00    +0.000 HD
ENDBRANCH   1  18
TORSDOF 2
ENDMDL
MODEL 8
REMARK VINA RESULT:      -7.1      1.569      1.597
REMARK  Name = 
REMARK  2 active torsions:
REMARK  status: ('A' for Active; 'I' for Inactive)
REMARK    1  A    between atoms: C_2  and  C_4
REMARK    2  A    between atoms: C_10  and  C_11
REMARK                            x       y       z     vdW  Elec       q    Type
REMARK                         _______ _______ _______ _____ _____    ______ ____
ROOT
ATOM      1  C   UNL     1       3.316   3.824  20.184  0.00  0.00    +0.000 A 
ATOM      2  C   UNL     1       2.345   4.528  20.923  0.00  0.00    +0.000 A 
ATOM      3  C   UNL     1       1.872   5.771  20.495  0.00  0.00    +0.000 A 
ATOM      4  C   UNL     1       2.345   6.357  19.317  0.00  0.00    +0.000 A 
ATOM      5  C   UNL     1       3.302   5.639  18.597  0.00  0.00    +0.000 A 
ATOM      6  N   UNL     1       3.961   5.916  17.427  0.00  0.00    +0.000 N 
ATOM      7  C   UNL     1       4.812   4.876  17.132  0.00  0.00    +0.000 A 
ATOM      8  N   UNL     1       4.728   3.949  18.070  0.00  0.00    +0.000 NA
ATOM      9  C   UNL     1       3.795   4.400  18.991  0.00  0.00    +0.000 A 
ATOM     10  H   UNL     1       3.831   6.754  16.880  0.00  0.00    +0.000 HD
ENDROOT
BRANCH   7  11
ATOM     11  C   UNL     1       5.673   4.820  15.954  0.00  0.00    +0.000 A 
ATOM     12  C   UNL     1       6.916   5.417  15.862  0.00  0.00    +0.000 A 
ATOM     13  N   UNL     1       7.713   5.368  14.772  0.00  0.00    +0.000 NA
ATOM     14  C   UNL     1       7.226   4.681  13.728  0.00  0.00    +0.000 A 
ATOM     15  N   UNL     1       6.041   4.056  13.686  0.00  0.00    +0.000 NA
ATOM     16  C   UNL     1       5.291   4.144  14.809  0.00  0.00    +0.000 A 
ENDBRANCH   7  11
BRANCH   1  18
ATOM     17  N   UNL     1       4.751   1.876  19.947  0.00  0.00    +0.000 N 
ATOM     18  C   UNL     1       3.803   2.518  20.687  0.00  0.00    +0.000 C 
ATOM     19  O   UNL     1       3.379   2.035  21.730  0.00  0.00    +0.000 OA
ATOM     20  H   UNL     1       5.110   0.990  20.272  0.00  0.00    +0.000 HD
ATOM     21  H   UNL     1       5.102   2.273  19.079  0.00  0.00    +0.000 HD
ENDBRANCH   1  18
TORSDOF 2
ENDMDL
MODEL 9
REMARK VINA RESULT:      -7.1      1.058      1.534
REMARK  Name = 
REMARK  2 active torsions:
REMARK  status: ('A' for Active; 'I' for Inactive)
REMARK    1  A    between atoms: C_2  and  C_4
REMARK    2  A    between atoms: C_10  and  C_11
REMARK                            x       y       z     vdW  Elec       q    Type
REMARK                         _______ _______ _______ _____ _____    ______ ____
ROOT
ATOM      1  C   UNL     1       2.316   4.175  19.909  0.00  0.00    +0.000 A 
ATOM      2  C   UNL     1       1.551   5.037  20.719  0.00  0.00    +0.000 A 
ATOM      3  C   UNL     1       1.596   6.422  20.543  0.00  0.00    +0.000 A 
ATOM      4  C   UNL     1       2.401   6.999  19.556  0.00  0.00    +0.000 A 
ATOM      5  C   UNL     1       3.146   6.126  18.761  0.00  0.00    +0.000 A 
ATOM      6  N   UNL     1       4.017   6.351  17.726  0.00  0.00    +0.000 N 
ATOM      7  C   UNL     1       4.494   5.145  17.268  0.00  0.00    +0.000 A 
ATOM      8  N   UNL     1       3.968   4.159  17.973  0.00  0.00    +0.000 NA
ATOM      9  C   UNL     1       3.126   4.743  18.906  0.00  0.00    +0.000 A 
ATOM     10  H   UNL     1       4.259   7.263  17.368  0.00  0.00    +0.000 HD
ENDROOT
BRANCH   7  11
ATOM     11  C   UNL     1       5.440   4.994  16.166  0.00  0.00    +0.000 A 
ATOM     12  C   UNL     1       5.216   4.224  15.040  0.00  0.00    +0.000 A 
ATOM     13  N   UNL     1       6.092   4.082  14.021  0.00  0.00    +0.000 NA
ATOM     14  C   UNL     1       7.247   4.752  14.151  0.00  0.00    +0.000 A 
ATOM     15  N   UNL     1       7.588   5.530  15.187  0.00  0.00    +0.000 NA
ATOM     16  C   UNL     1       6.668   5.630  16.174  0.00  0.00    +0.000 A 
ENDBRANCH   7  11
BRANCH   1  18
ATOM     17  N   UNL     1       1.974   1.917  19.075  0.00  0.00    +0.000 N 
ATOM     18  C   UNL     1       2.253   2.714  20.145  0.00  0.00    +0.000 C 
ATOM     19  O   UNL     1       2.452   2.235  21.255  0.00  0.00    +0.000 OA
ATOM     20  H   UNL     1       1.935   0.917  19.204  0.00  0.00    +0.000 HD
ATOM     21  H   UNL     1       1.804   2.312  18.153  0.00  0.00    +0.000 HD
ENDBRANCH   1  18
TORSDOF 2
ENDMDL
