MODEL 1
REMARK VINA RESULT:      -8.2      0.000      0.000
REMARK  Name = 
REMARK  6 active torsions:
REMARK  status: ('A' for Active; 'I' for Inactive)
REMARK    1  A    between atoms: C_1  and  C_2
REMARK    2  A    between atoms: C_4  and  C_5
REMARK    3  A    between atoms: C_6  and  C_7
REMARK    4  A    between atoms: C_7  and  N_8
REMARK    5  A    between atoms: N_11  and  C_12
REMARK    6  A    between atoms: C_12  and  C_13
REMARK                            x       y       z     vdW  Elec       q    Type
REMARK                         _______ _______ _______ _____ _____    ______ ____
ROOT
ATOM      1  N   UNL     1       7.908   6.009  18.512  0.00  0.00    +0.000 N 
ATOM      2  C   UNL     1       7.980   7.239  17.912  0.00  0.00    +0.000 C 
ATOM      3  O   UNL     1       7.653   7.450  16.751  0.00  0.00    +0.000 OA
ATOM      4  N   UNL     1       8.439   8.230  18.733  0.00  0.00    +0.000 N 
ATOM      5  H   UNL     1       8.334   5.882  19.419  0.00  0.00    +0.000 HD
ATOM      6  H   UNL     1       8.674   8.053  19.700  0.00  0.00    +0.000 HD
ENDROOT
BRANCH   1   7
ATOM      7  C   UNL     1       7.565   4.813  17.758  0.00  0.00    +0.000 C 
BRANCH   7  13
ATOM      8  C   UNL     1       1.809   3.866  17.886  0.00  0.00    +0.000 C 
ATOM      9  C   UNL     1       3.287   4.111  17.780  0.00  0.00    +0.000 A 
ATOM     10  C   UNL     1       3.952   4.084  16.618  0.00  0.00    +0.000 A 
ATOM     11  C   UNL     1       5.384   4.331  16.570  0.00  0.00    +0.000 A 
ATOM     12  C   UNL     1       6.031   4.244  15.217  0.00  0.00    +0.000 C 
ATOM     13  C   UNL     1       6.075   4.621  17.697  0.00  0.00    +0.000 A 
ATOM     14  C   UNL     1       5.329   4.630  18.998  0.00  0.00    +0.000 A 
ATOM     15  O   UNL     1       5.889   4.848  20.069  0.00  0.00    +0.000 OA
ATOM     16  N   UNL     1       3.977   4.375  18.938  0.00  0.00    +0.000 N 
ATOM     17  H   UNL     1       3.492   4.384  19.828  0.00  0.00    +0.000 HD
ENDBRANCH   7  13
ENDBRANCH   1   7
BRANCH   4  18
ATOM     18  C   UNL     1       8.511   9.597  18.252  0.00  0.00    +0.000 C 
BRANCH  18  19
ATOM     19  C   UNL     1       9.261  10.462  19.198  0.00  0.00    +0.000 A 
ATOM     20  N   UNL     1       9.116  10.554  20.515  0.00  0.00    +0.000 NA
ATOM     21  N   UNL     1      10.019  11.495  21.005  0.00  0.00    +0.000 NA
ATOM     22  C   UNL     1      10.679  11.942  19.972  0.00  0.00    +0.000 A 
ATOM     23  N   UNL     1      10.236  11.329  18.846  0.00  0.00    +0.000 N 
ATOM     24  C   UNL     1      10.923  11.775  17.655  0.00  0.00    +0.000 C 
ATOM     25  C   UNL     1      12.147  12.512  18.244  0.00  0.00    +0.000 C 
ATOM     26  C   UNL     1      11.752  12.911  19.691  0.00  0.00    +0.000 C 
ENDBRANCH  18  19
ENDBRANCH   4  18
TORSDOF 4
ENDMDL
MODEL 2
REMARK VINA RESULT:      -7.8      5.333      7.674
REMARK  Name = 
REMARK  6 active torsions:
REMARK  status: ('A' for Active; 'I' for Inactive)
REMARK    1  A    between atoms: C_1  and  C_2
REMARK    2  A    between atoms: C_4  and  C_5
REMARK    3  A    between atoms: C_6  and  C_7
REMARK    4  A    between atoms: C_7  and  N_8
REMARK    5  A    between atoms: N_11  and  C_12
REMARK    6  A    between atoms: C_12  and  C_13
REMARK                            x       y       z     vdW  Elec       q    Type
REMARK                         _______ _______ _______ _____ _____    ______ ____
ROOT
ATOM      1  N   UNL     1       3.363   5.663  20.181  0.00  0.00    +0.000 N 
ATOM      2  C   UNL     1       2.090   6.012  20.547  0.00  0.00    +0.000 C 
ATOM      3  O   UNL     1       1.178   5.206  20.686  0.00  0.00    +0.000 OA
ATOM      4  N   UNL     1       1.922   7.349  20.765  0.00  0.00    +0.000 N 
ATOM      5  H   UNL     1       4.020   6.393  19.942  0.00  0.00    +0.000 HD
ATOM      6  H   UNL     1       2.689   8.002  20.681  0.00  0.00    +0.000 HD
ENDROOT
BRANCH   1   7
ATOM      7  C   UNL     1       3.697   4.304  19.784  0.00  0.00    +0.000 C 
BRANCH   7  13
ATOM      8  C   UNL     1       7.031   4.617  15.005  0.00  0.00    +0.000 C 
ATOM      9  C   UNL     1       6.122   4.502  16.196  0.00  0.00    +0.000 A 
ATOM     10  C   UNL     1       4.860   4.058  16.114  0.00  0.00    +0.000 A 
ATOM     11  C   UNL     1       4.023   3.963  17.298  0.00  0.00    +0.000 A 
ATOM     12  C   UNL     1       2.616   3.483  17.083  0.00  0.00    +0.000 C 
ATOM     13  C   UNL     1       4.508   4.295  18.517  0.00  0.00    +0.000 A 
ATOM     14  C   UNL     1       5.914   4.810  18.601  0.00  0.00    +0.000 A 
ATOM     15  O   UNL     1       6.416   5.165  19.663  0.00  0.00    +0.000 OA
ATOM     16  N   UNL     1       6.621   4.870  17.421  0.00  0.00    +0.000 N 
ATOM     17  H   UNL     1       7.569   5.222  17.498  0.00  0.00    +0.000 HD
ENDBRANCH   7  13
ENDBRANCH   1   7
BRANCH   4  18
ATOM     18  C   UNL     1       0.641   7.857  21.218  0.00  0.00    +0.000 C 
BRANCH  18  19
ATOM     19  C   UNL     1       0.526   9.320  20.982  0.00  0.00    +0.000 A 
ATOM     20  N   UNL     1       0.987  10.021  19.953  0.00  0.00    +0.000 NA
ATOM     21  N   UNL     1       0.664  11.364  20.140  0.00  0.00    +0.000 NA
ATOM     22  C   UNL     1       0.022  11.432  21.274  0.00  0.00    +0.000 A 
ATOM     23  N   UNL     1      -0.078  10.193  21.818  0.00  0.00    +0.000 N 
ATOM     24  C   UNL     1      -0.781  10.187  23.081  0.00  0.00    +0.000 C 
ATOM     25  C   UNL     1      -1.448  11.581  23.086  0.00  0.00    +0.000 C 
ATOM     26  C   UNL     1      -0.614  12.459  22.115  0.00  0.00    +0.000 C 
ENDBRANCH  18  19
ENDBRANCH   4  18
TORSDOF 4
ENDMDL
MODEL 3
REMARK VINA RESULT:      -7.7      5.221      6.849
REMARK  Name = 
REMARK  6 active torsions:
REMARK  status: ('A' for Active; 'I' for Inactive)
REMARK    1  A    between atoms: C_1  and  C_2
REMARK    2  A    between atoms: C_4  and  C_5
REMARK    3  A    between atoms: C_6  and  C_7
REMARK    4  A    between atoms: C_7  and  N_8
REMARK    5  A    between atoms: N_11  and  C_12
REMARK    6  A    between atoms: C_12  and  C_13
REMARK                            x       y       z     vdW  Elec       q    Type
REMARK                         _______ _______ _______ _____ _____    ______ ____
ROOT
ATOM      1  N   UNL     1       4.522   5.473  19.508  0.00  0.00    +0.000 N 
ATOM      2  C   UNL     1       3.231   5.509  19.964  0.00  0.00    +0.000 C 
ATOM      3  O   UNL     1       2.563   4.509  20.194  0.00  0.00    +0.000 OA
ATOM      4  N   UNL     1       2.747   6.771  20.161  0.00  0.00    +0.000 N 
ATOM      5  H   UNL     1       4.956   6.332  19.201  0.00  0.00    +0.000 HD
ATOM      6  H   UNL     1       3.318   7.590  20.002  0.00  0.00    +0.000 HD
ENDROOT
BRANCH   1   7
ATOM      7  C   UNL     1       5.159   4.224  19.120  0.00  0.00    +0.000 C 
BRANCH   7  13
ATOM      8  C   UNL     1       7.233   4.742  13.691  0.00  0.00    +0.000 C 
ATOM      9  C   UNL     1       6.636   4.583  15.061  0.00  0.00    +0.000 A 
ATOM     10  C   UNL     1       5.347   4.281  15.267  0.00  0.00    +0.000 A 
ATOM     11  C   UNL     1       4.821   4.137  16.614  0.00  0.00    +0.000 A 
ATOM     12  C   UNL     1       3.355   3.828  16.728  0.00  0.00    +0.000 C 
ATOM     13  C   UNL     1       5.627   4.277  17.692  0.00  0.00    +0.000 A 
ATOM     14  C   UNL     1       7.064   4.635  17.456  0.00  0.00    +0.000 A 
ATOM     15  O   UNL     1       7.852   4.815  18.380  0.00  0.00    +0.000 OA
ATOM     16  N   UNL     1       7.463   4.758  16.143  0.00  0.00    +0.000 N 
ATOM     17  H   UNL     1       8.437   5.001  16.005  0.00  0.00    +0.000 HD
ENDBRANCH   7  13
ENDBRANCH   1   7
BRANCH   4  18
ATOM     18  C   UNL     1       1.414   6.963  20.700  0.00  0.00    +0.000 C 
BRANCH  18  19
ATOM     19  C   UNL     1       1.183   8.382  21.077  0.00  0.00    +0.000 A 
ATOM     20  N   UNL     1       1.059   8.896  22.295  0.00  0.00    +0.000 NA
ATOM     21  N   UNL     1       0.845  10.268  22.187  0.00  0.00    +0.000 NA
ATOM     22  C   UNL     1       0.846  10.540  20.911  0.00  0.00    +0.000 A 
ATOM     23  N   UNL     1       1.049   9.402  20.201  0.00  0.00    +0.000 N 
ATOM     24  C   UNL     1       1.063   9.624  18.772  0.00  0.00    +0.000 C 
ATOM     25  C   UNL     1       1.207  11.160  18.686  0.00  0.00    +0.000 C 
ATOM     26  C   UNL     1       0.690  11.716  20.039  0.00  0.00    +0.000 C 
ENDBRANCH  18  19
ENDBRANCH   4  18
TORSDOF 4
ENDMDL
MODEL 4
REMARK VINA RESULT:      -7.7      0.855      1.561
REMARK  Name = 
REMARK  6 active torsions:
REMARK  status: ('A' for Active; 'I' for Inactive)
REMARK    1  A    between atoms: C_1  and  C_2
REMARK    2  A    between atoms: C_4  and  C_5
REMARK    3  A    between atoms: C_6  and  C_7
REMARK    4  A    between atoms: C_7  and  N_8
REMARK    5  A    between atoms: N_11  and  C_12
REMARK    6  A    between atoms: C_12  and  C_13
REMARK                            x       y       z     vdW  Elec       q    Type
REMARK                         _______ _______ _______ _____ _____    ______ ____
ROOT
ATOM      1  N   UNL     1       7.923   6.076  18.240  0.00  0.00    +0.000 N 
ATOM      2  C   UNL     1       7.713   7.320  17.707  0.00  0.00    +0.000 C 
ATOM      3  O   UNL     1       7.062   7.524  16.690  0.00  0.00    +0.000 OA
ATOM      4  N   UNL     1       8.282   8.333  18.424  0.00  0.00    +0.000 N 
ATOM      5  H   UNL     1       8.590   5.971  18.990  0.00  0.00    +0.000 HD
ATOM      6  H   UNL     1       8.789   8.159  19.282  0.00  0.00    +0.000 HD
ENDROOT
BRANCH   1   7
ATOM      7  C   UNL     1       7.502   4.869  17.544  0.00  0.00    +0.000 C 
BRANCH   7  13
ATOM      8  C   UNL     1       1.841   3.810  18.484  0.00  0.00    +0.000 C 
ATOM      9  C   UNL     1       3.284   4.083  18.170  0.00  0.00    +0.000 A 
ATOM     10  C   UNL     1       3.779   4.067  16.925  0.00  0.00    +0.000 A 
ATOM     11  C   UNL     1       5.184   4.342  16.676  0.00  0.00    +0.000 A 
ATOM     12  C   UNL     1       5.635   4.265  15.245  0.00  0.00    +0.000 C 
ATOM     13  C   UNL     1       6.021   4.648  17.694  0.00  0.00    +0.000 A 
ATOM     14  C   UNL     1       5.467   4.645  19.088  0.00  0.00    +0.000 A 
ATOM     15  O   UNL     1       6.168   4.877  20.069  0.00  0.00    +0.000 OA
ATOM     16  N   UNL     1       4.125   4.363  19.219  0.00  0.00    +0.000 N 
ATOM     17  H   UNL     1       3.770   4.365  20.168  0.00  0.00    +0.000 HD
ENDBRANCH   7  13
ENDBRANCH   1   7
BRANCH   4  18
ATOM     18  C   UNL     1       8.092   9.712  18.014  0.00  0.00    +0.000 C 
BRANCH  18  19
ATOM     19  C   UNL     1       9.292  10.534  18.311  0.00  0.00    +0.000 A 
ATOM     20  N   UNL     1      10.264  10.896  17.480  0.00  0.00    +0.000 NA
ATOM     21  N   UNL     1      11.197  11.658  18.180  0.00  0.00    +0.000 NA
ATOM     22  C   UNL     1      10.763  11.732  19.408  0.00  0.00    +0.000 A 
ATOM     23  N   UNL     1       9.596  11.050  19.522  0.00  0.00    +0.000 N 
ATOM     24  C   UNL     1       9.051  11.087  20.862  0.00  0.00    +0.000 C 
ATOM     25  C   UNL     1       9.872  12.223  21.513  0.00  0.00    +0.000 C 
ATOM     26  C   UNL     1      11.179  12.337  20.684  0.00  0.00    +0.000 C 
ENDBRANCH  18  19
ENDBRANCH   4  18
TORSDOF 4
ENDMDL
MODEL 5
REMARK VINA RESULT:      -7.6      5.375      8.355
REMARK  Name = 
REMARK  6 active torsions:
REMARK  status: ('A' for Active; 'I' for Inactive)
REMARK    1  A    between atoms: C_1  and  C_2
REMARK    2  A    between atoms: C_4  and  C_5
REMARK    3  A    between atoms: C_6  and  C_7
REMARK    4  A    between atoms: C_7  and  N_8
REMARK    5  A    between atoms: N_11  and  C_12
REMARK    6  A    between atoms: C_12  and  C_13
REMARK                            x       y       z     vdW  Elec       q    Type
REMARK                         _______ _______ _______ _____ _____    ______ ____
ROOT
ATOM      1  N   UNL     1       2.014   7.407  20.468  0.00  0.00    +0.000 N 
ATOM      2  C   UNL     1       2.333   6.094  20.244  0.00  0.00    +0.000 C 
ATOM      3  O   UNL     1       1.555   5.165  20.421  0.00  0.00    +0.000 OA
ATOM      4  N   UNL     1       3.604   5.903  19.782  0.00  0.00    +0.000 N 
ATOM      5  H   UNL     1       2.749   8.099  20.443  0.00  0.00    +0.000 HD
ATOM      6  H   UNL     1       4.228   6.678  19.606  0.00  0.00    +0.000 HD
ENDROOT
BRANCH   1   7
ATOM      7  C   UNL     1       0.751   7.790  21.081  0.00  0.00    +0.000 C 
BRANCH   7  13
ATOM      8  C   UNL     1       0.060  13.506  20.131  0.00  0.00    +0.000 C 
ATOM      9  C   UNL     1       0.208  12.043  20.441  0.00  0.00    +0.000 A 
ATOM     10  C   UNL     1      -0.041  11.523  21.650  0.00  0.00    +0.000 A 
ATOM     11  C   UNL     1       0.115  10.099  21.897  0.00  0.00    +0.000 A 
ATOM     12  C   UNL     1      -0.160   9.631  23.298  0.00  0.00    +0.000 C 
ATOM     13  C   UNL     1       0.489   9.261  20.903  0.00  0.00    +0.000 A 
ATOM     14  C   UNL     1       0.786   9.851  19.557  0.00  0.00    +0.000 A 
ATOM     15  O   UNL     1       1.164   9.164  18.612  0.00  0.00    +0.000 OA
ATOM     16  N   UNL     1       0.616  11.212  19.428  0.00  0.00    +0.000 N 
ATOM     17  H   UNL     1       0.823  11.592  18.511  0.00  0.00    +0.000 HD
ENDBRANCH   7  13
ENDBRANCH   1   7
BRANCH   4  18
ATOM     18  C   UNL     1       4.062   4.568  19.442  0.00  0.00    +0.000 C 
BRANCH  18  19
ATOM     19  C   UNL     1       5.392   4.606  18.781  0.00  0.00    +0.000 A 
ATOM     20  N   UNL     1       6.585   4.739  19.349  0.00  0.00    +0.000 NA
ATOM     21  N   UNL     1       7.562   4.732  18.355  0.00  0.00    +0.000 NA
ATOM     22  C   UNL     1       6.931   4.597  17.222  0.00  0.00    +0.000 A 
ATOM     23  N   UNL     1       5.595   4.519  17.448  0.00  0.00    +0.000 N 
ATOM     24  C   UNL     1       4.826   4.368  16.233  0.00  0.00    +0.000 C 
ATOM     25  C   UNL     1       5.915   3.986  15.206  0.00  0.00    +0.000 C 
ATOM     26  C   UNL     1       7.256   4.509  15.788  0.00  0.00    +0.000 C 
ENDBRANCH  18  19
ENDBRANCH   4  18
TORSDOF 4
ENDMDL
MODEL 6
REMARK VINA RESULT:      -7.6      5.315      7.970
REMARK  Name = 
REMARK  6 active torsions:
REMARK  status: ('A' for Active; 'I' for Inactive)
REMARK    1  A    between atoms: C_1  and  C_2
REMARK    2  A    between atoms: C_4  and  C_5
REMARK    3  A    between atoms: C_6  and  C_7
REMARK    4  A    between atoms: C_7  and  N_8
REMARK    5  A    between atoms: N_11  and  C_12
REMARK    6  A    between atoms: C_12  and  C_13
REMARK                            x       y       z     vdW  Elec       q    Type
REMARK                         _______ _______ _______ _____ _____    ______ ____
ROOT
ATOM      1  N   UNL     1       2.340   7.188  20.354  0.00  0.00    +0.000 N 
ATOM      2  C   UNL     1       2.593   5.983  19.754  0.00  0.00    +0.000 C 
ATOM      3  O   UNL     1       1.781   5.386  19.058  0.00  0.00    +0.000 OA
ATOM      4  N   UNL     1       3.851   5.504  19.982  0.00  0.00    +0.000 N 
ATOM      5  H   UNL     1       3.000   7.546  21.030  0.00  0.00    +0.000 HD
ATOM      6  H   UNL     1       4.527   6.020  20.529  0.00  0.00    +0.000 HD
ENDROOT
BRANCH   1   7
ATOM      7  C   UNL     1       1.015   7.789  20.327  0.00  0.00    +0.000 C 
BRANCH   7  13
ATOM      8  C   UNL     1       1.602  13.222  18.282  0.00  0.00    +0.000 C 
ATOM      9  C   UNL     1       1.418  11.851  18.868  0.00  0.00    +0.000 A 
ATOM     10  C   UNL     1       0.977  11.641  20.115  0.00  0.00    +0.000 A 
ATOM     11  C   UNL     1       0.814  10.293  20.632  0.00  0.00    +0.000 A 
ATOM     12  C   UNL     1       0.343  10.176  22.054  0.00  0.00    +0.000 C 
ATOM     13  C   UNL     1       1.078   9.216  19.856  0.00  0.00    +0.000 A 
ATOM     14  C   UNL     1       1.591   9.457  18.468  0.00  0.00    +0.000 A 
ATOM     15  O   UNL     1       1.888   8.535  17.713  0.00  0.00    +0.000 OA
ATOM     16  N   UNL     1       1.719  10.771  18.075  0.00  0.00    +0.000 N 
ATOM     17  H   UNL     1       2.068  10.912  17.134  0.00  0.00    +0.000 HD
ENDBRANCH   7  13
ENDBRANCH   1   7
BRANCH   4  18
ATOM     18  C   UNL     1       4.282   4.266  19.359  0.00  0.00    +0.000 C 
BRANCH  18  19
ATOM     19  C   UNL     1       5.561   4.448  18.626  0.00  0.00    +0.000 A 
ATOM     20  N   UNL     1       6.767   4.685  19.129  0.00  0.00    +0.000 NA
ATOM     21  N   UNL     1       7.680   4.795  18.082  0.00  0.00    +0.000 NA
ATOM     22  C   UNL     1       7.000   4.623  16.983  0.00  0.00    +0.000 A 
ATOM     23  N   UNL     1       5.693   4.410  17.282  0.00  0.00    +0.000 N 
ATOM     24  C   UNL     1       4.873   4.209  16.108  0.00  0.00    +0.000 C 
ATOM     25  C   UNL     1       5.932   3.957  15.012  0.00  0.00    +0.000 C 
ATOM     26  C   UNL     1       7.247   4.597  15.531  0.00  0.00    +0.000 C 
ENDBRANCH  18  19
ENDBRANCH   4  18
TORSDOF 4
ENDMDL
MODEL 7
REMARK VINA RESULT:      -7.5      5.381      8.179
REMARK  Name = 
REMARK  6 active torsions:
REMARK  status: ('A' for Active; 'I' for Inactive)
REMARK    1  A    between atoms: C_1  and  C_2
REMARK    2  A    between atoms: C_4  and  C_5
REMARK    3  A    between atoms: C_6  and  C_7
REMARK    4  A    between atoms: C_7  and  N_8
REMARK    5  A    between atoms: N_11  and  C_12
REMARK    6  A    between atoms: C_12  and  C_13
REMARK                            x       y       z     vdW  Elec       q    Type
REMARK                         _______ _______ _______ _____ _____    ______ ____
ROOT
ATOM      1  N   UNL     1       2.211   7.828  19.822  0.00  0.00    +0.000 N 
ATOM      2  C   UNL     1       2.560   6.633  19.251  0.00  0.00    +0.000 C 
ATOM      3  O   UNL     1       2.287   6.325  18.097  0.00  0.00    +0.000 OA
ATOM      4  N   UNL     1       3.264   5.807  20.079  0.00  0.00    +0.000 N 
ATOM      5  H   UNL     1       2.338   7.950  20.817  0.00  0.00    +0.000 HD
ATOM      6  H   UNL     1       3.515   6.084  21.019  0.00  0.00    +0.000 HD
ENDROOT
BRANCH   1   7
ATOM      7  C   UNL     1       1.350   8.778  19.135  0.00  0.00    +0.000 C 
BRANCH   7  13
ATOM      8  C   UNL     1      -1.152  12.453  22.915  0.00  0.00    +0.000 C 
ATOM      9  C   UNL     1      -0.476  11.565  21.910  0.00  0.00    +0.000 A 
ATOM     10  C   UNL     1       0.202  12.036  20.855  0.00  0.00    +0.000 A 
ATOM     11  C   UNL     1       0.841  11.132  19.913  0.00  0.00    +0.000 A 
ATOM     12  C   UNL     1       1.547  11.769  18.750  0.00  0.00    +0.000 C 
ATOM     13  C   UNL     1       0.789   9.792  20.095  0.00  0.00    +0.000 A 
ATOM     14  C   UNL     1       0.011   9.269  21.266  0.00  0.00    +0.000 A 
ATOM     15  O   UNL     1      -0.115   8.067  21.481  0.00  0.00    +0.000 OA
ATOM     16  N   UNL     1      -0.564  10.207  22.094  0.00  0.00    +0.000 N 
ATOM     17  H   UNL     1      -1.086   9.833  22.879  0.00  0.00    +0.000 HD
ENDBRANCH   7  13
ENDBRANCH   1   7
BRANCH   4  18
ATOM     18  C   UNL     1       3.754   4.532  19.590  0.00  0.00    +0.000 C 
BRANCH  18  19
ATOM     19  C   UNL     1       5.116   4.663  19.012  0.00  0.00    +0.000 A 
ATOM     20  N   UNL     1       6.249   4.956  19.642  0.00  0.00    +0.000 NA
ATOM     21  N   UNL     1       7.288   4.985  18.714  0.00  0.00    +0.000 NA
ATOM     22  C   UNL     1       6.753   4.711  17.557  0.00  0.00    +0.000 A 
ATOM     23  N   UNL     1       5.419   4.510  17.705  0.00  0.00    +0.000 N 
ATOM     24  C   UNL     1       4.755   4.199  16.458  0.00  0.00    +0.000 C 
ATOM     25  C   UNL     1       5.946   3.865  15.532  0.00  0.00    +0.000 C 
ATOM     26  C   UNL     1       7.184   4.561  16.156  0.00  0.00    +0.000 C 
ENDBRANCH  18  19
ENDBRANCH   4  18
TORSDOF 4
ENDMDL
MODEL 8
REMARK VINA RESULT:      -7.5      1.296      1.630
REMARK  Name = 
REMARK  6 active torsions:
REMARK  status: ('A' for Active; 'I' for Inactive)
REMARK    1  A    between atoms: C_1  and  C_2
REMARK    2  A    between atoms: C_4  and  C_5
REMARK    3  A    between atoms: C_6  and  C_7
REMARK    4  A    between atoms: C_7  and  N_8
REMARK    5  A    between atoms: N_11  and  C_12
REMARK    6  A    between atoms: C_12  and  C_13
REMARK                            x       y       z     vdW  Elec       q    Type
REMARK                         _______ _______ _______ _____ _____    ______ ____
ROOT
ATOM      1  N   UNL     1       7.487   6.690  17.037  0.00  0.00    +0.000 N 
ATOM      2  C   UNL     1       8.081   7.417  18.035  0.00  0.00    +0.000 C 
ATOM      3  O   UNL     1       8.582   6.917  19.035  0.00  0.00    +0.000 OA
ATOM      4  N   UNL     1       8.084   8.764  17.813  0.00  0.00    +0.000 N 
ATOM      5  H   UNL     1       6.967   7.177  16.321  0.00  0.00    +0.000 HD
ATOM      6  H   UNL     1       7.698   9.165  16.969  0.00  0.00    +0.000 HD
ENDROOT
BRANCH   1   7
ATOM      7  C   UNL     1       7.278   5.255  17.161  0.00  0.00    +0.000 C 
BRANCH   7  13
ATOM      8  C   UNL     1       1.815   3.850  18.653  0.00  0.00    +0.000 C 
ATOM      9  C   UNL     1       3.200   4.212  18.199  0.00  0.00    +0.000 A 
ATOM     10  C   UNL     1       3.567   4.228  16.911  0.00  0.00    +0.000 A 
ATOM     11  C   UNL     1       4.921   4.589  16.525  0.00  0.00    +0.000 A 
ATOM     12  C   UNL     1       5.230   4.542  15.055  0.00  0.00    +0.000 C 
ATOM     13  C   UNL     1       5.836   4.944  17.456  0.00  0.00    +0.000 A 
ATOM     14  C   UNL     1       5.426   4.904  18.898  0.00  0.00    +0.000 A 
ATOM     15  O   UNL     1       6.206   5.176  19.806  0.00  0.00    +0.000 OA
ATOM     16  N   UNL     1       4.124   4.541  19.161  0.00  0.00    +0.000 N 
ATOM     17  H   UNL     1       3.866   4.519  20.141  0.00  0.00    +0.000 HD
ENDBRANCH   7  13
ENDBRANCH   1   7
BRANCH   4  18
ATOM     18  C   UNL     1       8.732   9.656  18.756  0.00  0.00    +0.000 C 
BRANCH  18  19
ATOM     19  C   UNL     1       8.915  11.012  18.179  0.00  0.00    +0.000 A 
ATOM     20  N   UNL     1       7.994  11.800  17.634  0.00  0.00    +0.000 NA
ATOM     21  N   UNL     1       8.603  12.981  17.214  0.00  0.00    +0.000 NA
ATOM     22  C   UNL     1       9.867  12.870  17.515  0.00  0.00    +0.000 A 
ATOM     23  N   UNL     1      10.092  11.670  18.108  0.00  0.00    +0.000 N 
ATOM     24  C   UNL     1      11.477  11.474  18.473  0.00  0.00    +0.000 C 
ATOM     25  C   UNL     1      12.049  12.904  18.354  0.00  0.00    +0.000 C 
ATOM     26  C   UNL     1      11.099  13.668  17.394  0.00  0.00    +0.000 C 
ENDBRANCH  18  19
ENDBRANCH   4  18
TORSDOF 4
ENDMDL
MODEL 9
REMARK VINA RESULT:      -7.4      5.369      7.912
REMARK  Name = 
REMARK  6 active torsions:
REMARK  status: ('A' for Active; 'I' for Inactive)
REMARK    1  A    between atoms: C_1  and  C_2
REMARK    2  A    between atoms: C_4  and  C_5
REMARK    3  A    between atoms: C_6  and  C_7
REMARK    4  A    between atoms: C_7  and  N_8
REMARK    5  A    between atoms: N_11  and  C_12
REMARK    6  A    between atoms: C_12  and  C_13
REMARK                            x       y       z     vdW  Elec       q    Type
REMARK                         _______ _______ _______ _____ _____    ______ ____
ROOT
ATOM      1  N   UNL     1       2.371   7.143  20.536  0.00  0.00    +0.000 N 
ATOM      2  C   UNL     1       2.580   5.965  19.868  0.00  0.00    +0.000 C 
ATOM      3  O   UNL     1       1.726   5.406  19.191  0.00  0.00    +0.000 OA
ATOM      4  N   UNL     1       3.844   5.467  20.007  0.00  0.00    +0.000 N 
ATOM      5  H   UNL     1       3.069   7.465  21.190  0.00  0.00    +0.000 HD
ATOM      6  H   UNL     1       4.552   5.953  20.539  0.00  0.00    +0.000 HD
ENDROOT
BRANCH   1   7
ATOM      7  C   UNL     1       1.052   7.754  20.608  0.00  0.00    +0.000 C 
BRANCH   7  13
ATOM      8  C   UNL     1       1.000  13.498  19.584  0.00  0.00    +0.000 C 
ATOM      9  C   UNL     1       1.035  12.009  19.778  0.00  0.00    +0.000 A 
ATOM     10  C   UNL     1       1.226  11.143  18.774  0.00  0.00    +0.000 A 
ATOM     11  C   UNL     1       1.254   9.711  19.017  0.00  0.00    +0.000 A 
ATOM     12  C   UNL     1       1.444   8.833  17.813  0.00  0.00    +0.000 C 
ATOM     13  C   UNL     1       1.115   9.218  20.270  0.00  0.00    +0.000 A 
ATOM     14  C   UNL     1       0.881  10.190  21.388  0.00  0.00    +0.000 A 
ATOM     15  O   UNL     1       0.709   9.822  22.546  0.00  0.00    +0.000 OA
ATOM     16  N   UNL     1       0.862  11.525  21.052  0.00  0.00    +0.000 N 
ATOM     17  H   UNL     1       0.702  12.166  21.821  0.00  0.00    +0.000 HD
ENDBRANCH   7  13
ENDBRANCH   1   7
BRANCH   4  18
ATOM     18  C   UNL     1       4.229   4.256  19.305  0.00  0.00    +0.000 C 
BRANCH  18  19
ATOM     19  C   UNL     1       5.517   4.435  18.587  0.00  0.00    +0.000 A 
ATOM     20  N   UNL     1       6.722   4.638  19.106  0.00  0.00    +0.000 NA
ATOM     21  N   UNL     1       7.646   4.759  18.071  0.00  0.00    +0.000 NA
ATOM     22  C   UNL     1       6.972   4.628  16.961  0.00  0.00    +0.000 A 
ATOM     23  N   UNL     1       5.660   4.430  17.244  0.00  0.00    +0.000 N 
ATOM     24  C   UNL     1       4.846   4.274  16.059  0.00  0.00    +0.000 C 
ATOM     25  C   UNL     1       5.910   4.033  14.965  0.00  0.00    +0.000 C 
ATOM     26  C   UNL     1       7.232   4.636  15.512  0.00  0.00    +0.000 C 
ENDBRANCH  18  19
ENDBRANCH   4  18
TORSDOF 4
ENDMDL
