MODEL 1
REMARK VINA RESULT:      -6.1      0.000      0.000
REMARK  Name = 
REMARK  6 active torsions:
REMARK  status: ('A' for Active; 'I' for Inactive)
REMARK    1  A    between atoms: N_1  and  C_2
REMARK    2  A    between atoms: C_2  and  C_3
REMARK    3  A    between atoms: C_3  and  C_4
REMARK    4  A    between atoms: N_6  and  C_7
REMARK    5  A    between atoms: C_7  and  C_8
REMARK    6  A    between atoms: C_12  and  O_13
REMARK                            x       y       z     vdW  Elec       q    Type
REMARK                         _______ _______ _______ _____ _____    ______ ____
ROOT
ATOM      1  C   UNL     1       4.038   2.876  17.992  0.00  0.00    +0.000 C 
ENDROOT
BRANCH   1   2
ATOM      2  C   UNL     1       4.925   4.022  17.601  0.00  0.00    +0.000 A 
ATOM      3  C   UNL     1       4.600   4.878  16.619  0.00  0.00    +0.000 A 
ATOM      4  C   UNL     1       5.531   5.958  16.268  0.00  0.00    +0.000 A 
ATOM      5  O   UNL     1       5.310   6.762  15.370  0.00  0.00    +0.000 OA
ATOM      6  C   UNL     1       6.783   6.045  17.059  0.00  0.00    +0.000 A 
ATOM      7  C   UNL     1       6.975   5.148  18.028  0.00  0.00    +0.000 A 
ATOM      8  O   UNL     1       6.099   4.134  18.341  0.00  0.00    +0.000 OA
BRANCH   6   9
ATOM      9  O   UNL     1       7.693   7.036  16.762  0.00  0.00    +0.000 OA
ATOM     10  H   UNL     1       7.397   7.810  17.287  0.00  0.00    +0.000 HD
ENDBRANCH   6   9
ENDBRANCH   1   2
BRANCH   1  13
ATOM     11  C   UNL     1       1.833   3.535  18.901  0.00  0.00    +0.000 C 
ATOM     12  O   UNL     1       1.280   3.532  17.804  0.00  0.00    +0.000 OA
ATOM     13  N   UNL     1       3.175   3.299  19.067  0.00  0.00    +0.000 N 
ATOM     14  H   UNL     1       3.514   3.222  20.027  0.00  0.00    +0.000 HD
BRANCH  11  15
ATOM     15  C   UNL     1       1.086   3.899  20.173  0.00  0.00    +0.000 C 
BRANCH  15  16
ATOM     16  C   UNL     1       1.196   2.871  21.299  0.00  0.00    +0.000 C 
BRANCH  16  17
ATOM     17  N   UNL     1       2.469   2.970  22.026  0.00  0.00    +0.000 NA
ATOM     18  H   UNL     1       3.150   3.452  21.434  0.00  0.00    +0.000 HD
ATOM     19  H   UNL     1       2.849   2.032  22.169  0.00  0.00    +0.000 HD
ENDBRANCH  16  17
ENDBRANCH  15  16
ENDBRANCH  11  15
ENDBRANCH   1  13
TORSDOF 6
ENDMDL
MODEL 2
REMARK VINA RESULT:      -6.1      1.525      1.619
REMARK  Name = 
REMARK  6 active torsions:
REMARK  status: ('A' for Active; 'I' for Inactive)
REMARK    1  A    between atoms: N_1  and  C_2
REMARK    2  A    between atoms: C_2  and  C_3
REMARK    3  A    between atoms: C_3  and  C_4
REMARK    4  A    between atoms: N_6  and  C_7
REMARK    5  A    between atoms: C_7  and  C_8
REMARK    6  A    between atoms: C_12  and  O_13
REMARK                            x       y       z     vdW  Elec       q    Type
REMARK                         _______ _______ _______ _____ _____    ______ ____
ROOT
ATOM      1  C   UNL     1       3.797   3.169  17.163  0.00  0.00    +0.000 C 
ENDROOT
BRANCH   1   2
ATOM      2  C   UNL     1       4.875   4.194  16.964  0.00  0.00    +0.000 A 
ATOM      3  C   UNL     1       5.690   4.178  15.897  0.00  0.00    +0.000 A 
ATOM      4  C   UNL     1       6.745   5.193  15.782  0.00  0.00    +0.000 A 
ATOM      5  O   UNL     1       7.537   5.227  14.848  0.00  0.00    +0.000 OA
ATOM      6  C   UNL     1       6.822   6.203  16.866  0.00  0.00    +0.000 A 
ATOM      7  C   UNL     1       5.935   6.123  17.860  0.00  0.00    +0.000 A 
ATOM      8  O   UNL     1       4.957   5.161  17.962  0.00  0.00    +0.000 OA
BRANCH   6   9
ATOM      9  O   UNL     1       7.802   7.171  16.808  0.00  0.00    +0.000 OA
ATOM     10  H   UNL     1       8.485   6.871  17.446  0.00  0.00    +0.000 HD
ENDBRANCH   6   9
ENDBRANCH   1   2
BRANCH   1  13
ATOM     11  C   UNL     1       1.829   3.894  18.477  0.00  0.00    +0.000 C 
ATOM     12  O   UNL     1       1.183   4.233  17.488  0.00  0.00    +0.000 OA
ATOM     13  N   UNL     1       3.122   3.438  18.409  0.00  0.00    +0.000 N 
ATOM     14  H   UNL     1       3.532   3.084  19.275  0.00  0.00    +0.000 HD
BRANCH  11  15
ATOM     15  C   UNL     1       1.276   4.042  19.884  0.00  0.00    +0.000 C 
BRANCH  15  16
ATOM     16  C   UNL     1       1.955   5.118  20.732  0.00  0.00    +0.000 C 
BRANCH  16  17
ATOM     17  N   UNL     1       2.778   6.030  19.925  0.00  0.00    +0.000 NA
ATOM     18  H   UNL     1       3.160   5.513  19.129  0.00  0.00    +0.000 HD
ATOM     19  H   UNL     1       3.589   6.325  20.472  0.00  0.00    +0.000 HD
ENDBRANCH  16  17
ENDBRANCH  15  16
ENDBRANCH  11  15
ENDBRANCH   1  13
TORSDOF 6
ENDMDL
MODEL 3
REMARK VINA RESULT:      -6.1      1.677      1.808
REMARK  Name = 
REMARK  6 active torsions:
REMARK  status: ('A' for Active; 'I' for Inactive)
REMARK    1  A    between atoms: N_1  and  C_2
REMARK    2  A    between atoms: C_2  and  C_3
REMARK    3  A    between atoms: C_3  and  C_4
REMARK    4  A    between atoms: N_6  and  C_7
REMARK    5  A    between atoms: C_7  and  C_8
REMARK    6  A    between atoms: C_12  and  O_13
REMARK                            x       y       z     vdW  Elec       q    Type
REMARK                         _______ _______ _______ _____ _____    ______ ____
ROOT
ATOM      1  C   UNL     1       2.862   5.948  18.150  0.00  0.00    +0.000 C 
ENDROOT
BRANCH   1   2
ATOM      2  C   UNL     1       4.258   5.449  17.913  0.00  0.00    +0.000 A 
ATOM      3  C   UNL     1       4.640   4.922  16.738  0.00  0.00    +0.000 A 
ATOM      4  C   UNL     1       6.013   4.424  16.586  0.00  0.00    +0.000 A 
ATOM      5  O   UNL     1       6.424   3.912  15.551  0.00  0.00    +0.000 OA
ATOM      6  C   UNL     1       6.909   4.562  17.760  0.00  0.00    +0.000 A 
ATOM      7  C   UNL     1       6.413   5.128  18.863  0.00  0.00    +0.000 A 
ATOM      8  O   UNL     1       5.121   5.583  18.996  0.00  0.00    +0.000 OA
BRANCH   6   9
ATOM      9  O   UNL     1       8.204   4.101  17.670  0.00  0.00    +0.000 OA
ATOM     10  H   UNL     1       8.184   3.218  18.099  0.00  0.00    +0.000 HD
ENDBRANCH   6   9
ENDBRANCH   1   2
BRANCH   1  13
ATOM     11  C   UNL     1       1.448   3.987  18.675  0.00  0.00    +0.000 C 
ATOM     12  O   UNL     1       1.168   3.762  17.500  0.00  0.00    +0.000 OA
ATOM     13  N   UNL     1       2.201   5.062  19.076  0.00  0.00    +0.000 N 
ATOM     14  H   UNL     1       2.463   5.099  20.062  0.00  0.00    +0.000 HD
BRANCH  11  15
ATOM     15  C   UNL     1       0.898   3.134  19.806  0.00  0.00    +0.000 C 
BRANCH  15  16
ATOM     16  C   UNL     1       1.956   2.537  20.734  0.00  0.00    +0.000 C 
BRANCH  16  17
ATOM     17  N   UNL     1       2.143   3.333  21.955  0.00  0.00    +0.000 NA
ATOM     18  H   UNL     1       1.652   4.224  21.847  0.00  0.00    +0.000 HD
ATOM     19  H   UNL     1       3.131   3.576  22.050  0.00  0.00    +0.000 HD
ENDBRANCH  16  17
ENDBRANCH  15  16
ENDBRANCH  11  15
ENDBRANCH   1  13
TORSDOF 6
ENDMDL
MODEL 4
REMARK VINA RESULT:      -6.0      1.827      2.021
REMARK  Name = 
REMARK  6 active torsions:
REMARK  status: ('A' for Active; 'I' for Inactive)
REMARK    1  A    between atoms: N_1  and  C_2
REMARK    2  A    between atoms: C_2  and  C_3
REMARK    3  A    between atoms: C_3  and  C_4
REMARK    4  A    between atoms: N_6  and  C_7
REMARK    5  A    between atoms: C_7  and  C_8
REMARK    6  A    between atoms: C_12  and  O_13
REMARK                            x       y       z     vdW  Elec       q    Type
REMARK                         _______ _______ _______ _____ _____    ______ ____
ROOT
ATOM      1  C   UNL     1       4.505   5.043  19.615  0.00  0.00    +0.000 C 
ENDROOT
BRANCH   1   2
ATOM      2  C   UNL     1       5.282   5.221  18.344  0.00  0.00    +0.000 A 
ATOM      3  C   UNL     1       4.841   5.992  17.337  0.00  0.00    +0.000 A 
ATOM      4  C   UNL     1       5.639   6.096  16.108  0.00  0.00    +0.000 A 
ATOM      5  O   UNL     1       5.288   6.762  15.142  0.00  0.00    +0.000 OA
ATOM      6  C   UNL     1       6.917   5.344  16.075  0.00  0.00    +0.000 A 
ATOM      7  C   UNL     1       7.255   4.635  17.154  0.00  0.00    +0.000 A 
ATOM      8  O   UNL     1       6.494   4.538  18.297  0.00  0.00    +0.000 OA
BRANCH   6   9
ATOM      9  O   UNL     1       7.697   5.403  14.940  0.00  0.00    +0.000 OA
ATOM     10  H   UNL     1       7.096   5.134  14.212  0.00  0.00    +0.000 HD
ENDBRANCH   6   9
ENDBRANCH   1   2
BRANCH   1  13
ATOM     11  C   UNL     1       3.603   2.739  19.669  0.00  0.00    +0.000 C 
ATOM     12  O   UNL     1       4.669   2.234  20.010  0.00  0.00    +0.000 OA
ATOM     13  N   UNL     1       3.459   4.076  19.391  0.00  0.00    +0.000 N 
ATOM     14  H   UNL     1       2.510   4.411  19.218  0.00  0.00    +0.000 HD
BRANCH  11  15
ATOM     15  C   UNL     1       2.358   1.900  19.433  0.00  0.00    +0.000 C 
BRANCH  15  16
ATOM     16  C   UNL     1       1.091   2.700  19.131  0.00  0.00    +0.000 C 
BRANCH  16  17
ATOM     17  N   UNL     1       0.561   3.379  20.322  0.00  0.00    +0.000 NA
ATOM     18  H   UNL     1       0.854   2.863  21.154  0.00  0.00    +0.000 HD
ATOM     19  H   UNL     1      -0.460   3.325  20.314  0.00  0.00    +0.000 HD
ENDBRANCH  16  17
ENDBRANCH  15  16
ENDBRANCH  11  15
ENDBRANCH   1  13
TORSDOF 6
ENDMDL
MODEL 5
REMARK VINA RESULT:      -6.0      1.226      1.491
REMARK  Name = 
REMARK  6 active torsions:
REMARK  status: ('A' for Active; 'I' for Inactive)
REMARK    1  A    between atoms: N_1  and  C_2
REMARK    2  A    between atoms: C_2  and  C_3
REMARK    3  A    between atoms: C_3  and  C_4
REMARK    4  A    between atoms: N_6  and  C_7
REMARK    5  A    between atoms: C_7  and  C_8
REMARK    6  A    between atoms: C_12  and  O_13
REMARK                            x       y       z     vdW  Elec       q    Type
REMARK                         _______ _______ _______ _____ _____    ______ ____
ROOT
ATOM      1  C   UNL     1       3.844   3.571  16.986  0.00  0.00    +0.000 C 
ENDROOT
BRANCH   1   2
ATOM      2  C   UNL     1       4.999   4.429  17.414  0.00  0.00    +0.000 A 
ATOM      3  C   UNL     1       5.777   5.075  16.531  0.00  0.00    +0.000 A 
ATOM      4  C   UNL     1       6.910   5.872  17.019  0.00  0.00    +0.000 A 
ATOM      5  O   UNL     1       7.674   6.470  16.271  0.00  0.00    +0.000 OA
ATOM      6  C   UNL     1       7.105   5.928  18.489  0.00  0.00    +0.000 A 
ATOM      7  C   UNL     1       6.244   5.261  19.260  0.00  0.00    +0.000 A 
ATOM      8  O   UNL     1       5.191   4.510  18.790  0.00  0.00    +0.000 OA
BRANCH   6   9
ATOM      9  O   UNL     1       8.160   6.655  18.995  0.00  0.00    +0.000 OA
ATOM     10  H   UNL     1       7.752   7.480  19.337  0.00  0.00    +0.000 HD
ENDBRANCH   6   9
ENDBRANCH   1   2
BRANCH   1  13
ATOM     11  C   UNL     1       1.710   3.577  18.238  0.00  0.00    +0.000 C 
ATOM     12  O   UNL     1       1.122   4.266  17.408  0.00  0.00    +0.000 OA
ATOM     13  N   UNL     1       3.042   3.258  18.142  0.00  0.00    +0.000 N 
ATOM     14  H   UNL     1       3.407   2.595  18.827  0.00  0.00    +0.000 HD
BRANCH  11  15
ATOM     15  C   UNL     1       1.026   3.093  19.505  0.00  0.00    +0.000 C 
BRANCH  15  16
ATOM     16  C   UNL     1       1.369   3.888  20.765  0.00  0.00    +0.000 C 
BRANCH  16  17
ATOM     17  N   UNL     1       2.410   4.896  20.525  0.00  0.00    +0.000 NA
ATOM     18  H   UNL     1       3.000   4.966  21.357  0.00  0.00    +0.000 HD
ATOM     19  H   UNL     1       1.973   5.814  20.423  0.00  0.00    +0.000 HD
ENDBRANCH  16  17
ENDBRANCH  15  16
ENDBRANCH  11  15
ENDBRANCH   1  13
TORSDOF 6
ENDMDL
MODEL 6
REMARK VINA RESULT:      -6.0      2.054      2.592
REMARK  Name = 
REMARK  6 active torsions:
REMARK  status: ('A' for Active; 'I' for Inactive)
REMARK    1  A    between atoms: N_1  and  C_2
REMARK    2  A    between atoms: C_2  and  C_3
REMARK    3  A    between atoms: C_3  and  C_4
REMARK    4  A    between atoms: N_6  and  C_7
REMARK    5  A    between atoms: C_7  and  C_8
REMARK    6  A    between atoms: C_12  and  O_13
REMARK                            x       y       z     vdW  Elec       q    Type
REMARK                         _______ _______ _______ _____ _____    ______ ____
ROOT
ATOM      1  C   UNL     1       4.062   5.489  19.497  0.00  0.00    +0.000 C 
ENDROOT
BRANCH   1   2
ATOM      2  C   UNL     1       5.014   5.381  18.341  0.00  0.00    +0.000 A 
ATOM      3  C   UNL     1       6.201   4.761  18.447  0.00  0.00    +0.000 A 
ATOM      4  C   UNL     1       7.097   4.720  17.283  0.00  0.00    +0.000 A 
ATOM      5  O   UNL     1       8.201   4.190  17.313  0.00  0.00    +0.000 OA
ATOM      6  C   UNL     1       6.606   5.361  16.039  0.00  0.00    +0.000 A 
ATOM      7  C   UNL     1       5.395   5.921  16.058  0.00  0.00    +0.000 A 
ATOM      8  O   UNL     1       4.568   5.961  17.157  0.00  0.00    +0.000 OA
BRANCH   6   9
ATOM      9  O   UNL     1       7.415   5.357  14.922  0.00  0.00    +0.000 OA
ATOM     10  H   UNL     1       7.809   6.255  14.899  0.00  0.00    +0.000 HD
ENDBRANCH   6   9
ENDBRANCH   1   2
BRANCH   1  13
ATOM     11  C   UNL     1       2.104   4.109  20.118  0.00  0.00    +0.000 C 
ATOM     12  O   UNL     1       2.461   3.969  21.285  0.00  0.00    +0.000 OA
ATOM     13  N   UNL     1       2.856   4.768  19.176  0.00  0.00    +0.000 N 
ATOM     14  H   UNL     1       2.422   4.919  18.264  0.00  0.00    +0.000 HD
BRANCH  11  15
ATOM     15  C   UNL     1       0.828   3.476  19.589  0.00  0.00    +0.000 C 
BRANCH  15  16
ATOM     16  C   UNL     1       1.041   2.265  18.680  0.00  0.00    +0.000 C 
BRANCH  16  17
ATOM     17  N   UNL     1       2.397   1.710  18.794  0.00  0.00    +0.000 NA
ATOM     18  H   UNL     1       2.388   0.745  18.455  0.00  0.00    +0.000 HD
ATOM     19  H   UNL     1       2.654   1.650  19.781  0.00  0.00    +0.000 HD
ENDBRANCH  16  17
ENDBRANCH  15  16
ENDBRANCH  11  15
ENDBRANCH   1  13
TORSDOF 6
ENDMDL
MODEL 7
REMARK VINA RESULT:      -6.0      1.698      2.108
REMARK  Name = 
REMARK  6 active torsions:
REMARK  status: ('A' for Active; 'I' for Inactive)
REMARK    1  A    between atoms: N_1  and  C_2
REMARK    2  A    between atoms: C_2  and  C_3
REMARK    3  A    between atoms: C_3  and  C_4
REMARK    4  A    between atoms: N_6  and  C_7
REMARK    5  A    between atoms: C_7  and  C_8
REMARK    6  A    between atoms: C_12  and  O_13
REMARK                            x       y       z     vdW  Elec       q    Type
REMARK                         _______ _______ _______ _____ _____    ______ ____
ROOT
ATOM      1  C   UNL     1       2.957   6.130  18.160  0.00  0.00    +0.000 C 
ENDROOT
BRANCH   1   2
ATOM      2  C   UNL     1       4.375   5.712  17.903  0.00  0.00    +0.000 A 
ATOM      3  C   UNL     1       5.219   6.452  17.167  0.00  0.00    +0.000 A 
ATOM      4  C   UNL     1       6.584   5.965  16.930  0.00  0.00    +0.000 A 
ATOM      5  O   UNL     1       7.400   6.578  16.251  0.00  0.00    +0.000 OA
ATOM      6  C   UNL     1       6.951   4.671  17.555  0.00  0.00    +0.000 A 
ATOM      7  C   UNL     1       6.027   4.045  18.286  0.00  0.00    +0.000 A 
ATOM      8  O   UNL     1       4.747   4.507  18.494  0.00  0.00    +0.000 OA
BRANCH   6   9
ATOM      9  O   UNL     1       8.218   4.168  17.354  0.00  0.00    +0.000 OA
ATOM     10  H   UNL     1       8.100   3.194  17.347  0.00  0.00    +0.000 HD
ENDBRANCH   6   9
ENDBRANCH   1   2
BRANCH   1  13
ATOM     11  C   UNL     1       1.467   4.163  18.338  0.00  0.00    +0.000 C 
ATOM     12  O   UNL     1       1.121   4.207  17.160  0.00  0.00    +0.000 OA
ATOM     13  N   UNL     1       2.294   5.096  18.914  0.00  0.00    +0.000 N 
ATOM     14  H   UNL     1       2.603   4.910  19.869  0.00  0.00    +0.000 HD
BRANCH  11  15
ATOM     15  C   UNL     1       0.926   3.112  19.293  0.00  0.00    +0.000 C 
BRANCH  15  16
ATOM     16  C   UNL     1       1.811   1.876  19.456  0.00  0.00    +0.000 C 
BRANCH  16  17
ATOM     17  N   UNL     1       2.844   1.785  18.415  0.00  0.00    +0.000 NA
ATOM     18  H   UNL     1       3.735   2.099  18.807  0.00  0.00    +0.000 HD
ATOM     19  H   UNL     1       2.628   2.447  17.668  0.00  0.00    +0.000 HD
ENDBRANCH  16  17
ENDBRANCH  15  16
ENDBRANCH  11  15
ENDBRANCH   1  13
TORSDOF 6
ENDMDL
MODEL 8
REMARK VINA RESULT:      -6.0      2.080      5.484
REMARK  Name = 
REMARK  6 active torsions:
REMARK  status: ('A' for Active; 'I' for Inactive)
REMARK    1  A    between atoms: N_1  and  C_2
REMARK    2  A    between atoms: C_2  and  C_3
REMARK    3  A    between atoms: C_3  and  C_4
REMARK    4  A    between atoms: N_6  and  C_7
REMARK    5  A    between atoms: C_7  and  C_8
REMARK    6  A    between atoms: C_12  and  O_13
REMARK                            x       y       z     vdW  Elec       q    Type
REMARK                         _______ _______ _______ _____ _____    ______ ____
ROOT
ATOM      1  C   UNL     1       4.485   3.962  16.599  0.00  0.00    +0.000 C 
ENDROOT
BRANCH   1   2
ATOM      2  C   UNL     1       3.482   3.704  17.686  0.00  0.00    +0.000 A 
ATOM      3  C   UNL     1       2.345   3.026  17.465  0.00  0.00    +0.000 A 
ATOM      4  C   UNL     1       1.393   2.839  18.567  0.00  0.00    +0.000 A 
ATOM      5  O   UNL     1       0.327   2.249  18.433  0.00  0.00    +0.000 OA
ATOM      6  C   UNL     1       1.775   3.404  19.884  0.00  0.00    +0.000 A 
ATOM      7  C   UNL     1       2.947   4.035  19.978  0.00  0.00    +0.000 A 
ATOM      8  O   UNL     1       3.827   4.212  18.935  0.00  0.00    +0.000 OA
BRANCH   6   9
ATOM      9  O   UNL     1       0.910   3.262  20.948  0.00  0.00    +0.000 OA
ATOM     10  H   UNL     1       0.364   2.480  20.721  0.00  0.00    +0.000 HD
ENDBRANCH   6   9
ENDBRANCH   1   2
BRANCH   1  13
ATOM     11  C   UNL     1       5.985   5.920  16.798  0.00  0.00    +0.000 C 
ATOM     12  O   UNL     1       5.458   6.529  15.871  0.00  0.00    +0.000 OA
ATOM     13  N   UNL     1       5.620   4.648  17.165  0.00  0.00    +0.000 N 
ATOM     14  H   UNL     1       6.047   4.273  18.013  0.00  0.00    +0.000 HD
BRANCH  11  15
ATOM     15  C   UNL     1       7.164   6.493  17.566  0.00  0.00    +0.000 C 
BRANCH  15  16
ATOM     16  C   UNL     1       7.705   5.594  18.677  0.00  0.00    +0.000 C 
BRANCH  16  17
ATOM     17  N   UNL     1       6.722   5.371  19.746  0.00  0.00    +0.000 NA
ATOM     18  H   UNL     1       5.826   5.771  19.459  0.00  0.00    +0.000 HD
ATOM     19  H   UNL     1       7.002   5.897  20.576  0.00  0.00    +0.000 HD
ENDBRANCH  16  17
ENDBRANCH  15  16
ENDBRANCH  11  15
ENDBRANCH   1  13
TORSDOF 6
ENDMDL
MODEL 9
REMARK VINA RESULT:      -6.0      1.824      2.032
REMARK  Name = 
REMARK  6 active torsions:
REMARK  status: ('A' for Active; 'I' for Inactive)
REMARK    1  A    between atoms: N_1  and  C_2
REMARK    2  A    between atoms: C_2  and  C_3
REMARK    3  A    between atoms: C_3  and  C_4
REMARK    4  A    between atoms: N_6  and  C_7
REMARK    5  A    between atoms: C_7  and  C_8
REMARK    6  A    between atoms: C_12  and  O_13
REMARK                            x       y       z     vdW  Elec       q    Type
REMARK                         _______ _______ _______ _____ _____    ______ ____
ROOT
ATOM      1  C   UNL     1       4.206   5.171  19.728  0.00  0.00    +0.000 C 
ENDROOT
BRANCH   1   2
ATOM      2  C   UNL     1       5.038   5.297  18.486  0.00  0.00    +0.000 A 
ATOM      3  C   UNL     1       4.657   6.050  17.441  0.00  0.00    +0.000 A 
ATOM      4  C   UNL     1       5.506   6.102  16.244  0.00  0.00    +0.000 A 
ATOM      5  O   UNL     1       5.211   6.751  15.247  0.00  0.00    +0.000 OA
ATOM      6  C   UNL     1       6.766   5.320  16.283  0.00  0.00    +0.000 A 
ATOM      7  C   UNL     1       7.042   4.633  17.392  0.00  0.00    +0.000 A 
ATOM      8  O   UNL     1       6.234   4.584  18.505  0.00  0.00    +0.000 OA
BRANCH   6   9
ATOM      9  O   UNL     1       7.592   5.330  15.179  0.00  0.00    +0.000 OA
ATOM     10  H   UNL     1       7.844   6.272  15.067  0.00  0.00    +0.000 HD
ENDBRANCH   6   9
ENDBRANCH   1   2
BRANCH   1  13
ATOM     11  C   UNL     1       2.129   3.995  20.381  0.00  0.00    +0.000 C 
ATOM     12  O   UNL     1       2.316   4.146  21.585  0.00  0.00    +0.000 OA
ATOM     13  N   UNL     1       3.028   4.398  19.424  0.00  0.00    +0.000 N 
ATOM     14  H   UNL     1       2.730   4.320  18.451  0.00  0.00    +0.000 HD
BRANCH  11  15
ATOM     15  C   UNL     1       0.914   3.255  19.846  0.00  0.00    +0.000 C 
BRANCH  15  16
ATOM     16  C   UNL     1       1.144   2.509  18.531  0.00  0.00    +0.000 C 
BRANCH  16  17
ATOM     17  N   UNL     1       2.258   1.556  18.616  0.00  0.00    +0.000 NA
ATOM     18  H   UNL     1       1.933   0.709  19.087  0.00  0.00    +0.000 HD
ATOM     19  H   UNL     1       2.986   1.941  19.220  0.00  0.00    +0.000 HD
ENDBRANCH  16  17
ENDBRANCH  15  16
ENDBRANCH  11  15
ENDBRANCH   1  13
TORSDOF 6
ENDMDL
