MODEL 1
REMARK VINA RESULT:      -6.8      0.000      0.000
REMARK  Name = 
REMARK  9 active torsions:
REMARK  status: ('A' for Active; 'I' for Inactive)
REMARK    1  A    between atoms: C_1  and  O_2
REMARK    2  A    between atoms: O_2  and  C_3
REMARK    3  A    between atoms: C_7  and  C_8
REMARK    4  A    between atoms: N_17  and  C_18
REMARK    5  A    between atoms: C_18  and  C_19
REMARK    6  A    between atoms: C_19  and  C_20
REMARK    7  A    between atoms: C_20  and  N_21
REMARK    8  A    between atoms: N_21  and  C_22
REMARK    9  A    between atoms: N_21  and  C_23
REMARK                            x       y       z     vdW  Elec       q    Type
REMARK                         _______ _______ _______ _____ _____    ______ ____
ROOT
ATOM      1  C   UNL     1      -0.916  11.397  18.600  0.00  0.00    +0.000 A 
ATOM      2  C   UNL     1      -0.200  10.188  18.695  0.00  0.00    +0.000 A 
ATOM      3  C   UNL     1       0.361   9.796  19.914  0.00  0.00    +0.000 A 
ATOM      4  C   UNL     1       0.097  10.552  21.055  0.00  0.00    +0.000 A 
ATOM      5  C   UNL     1      -0.615  11.746  20.921  0.00  0.00    +0.000 A 
ATOM      6  C   UNL     1      -0.721  12.295  19.651  0.00  0.00    +0.000 A 
ATOM      7  C   UNL     1       0.285  13.504  19.786  0.00  0.00    +0.000 C 
ATOM      8  C   UNL     1       0.146  13.807  21.275  0.00  0.00    +0.000 A 
ATOM      9  C   UNL     1      -0.586  12.847  21.850  0.00  0.00    +0.000 A 
ATOM     10  N   UNL     1      -1.379  13.053  22.955  0.00  0.00    +0.000 N 
ATOM     11  C   UNL     1      -1.248  14.244  23.718  0.00  0.00    +0.000 A 
ATOM     12  O   UNL     1      -1.988  14.491  24.669  0.00  0.00    +0.000 OA
ATOM     13  C   UNL     1      -0.192  15.140  23.241  0.00  0.00    +0.000 A 
ATOM     14  N   UNL     1       0.259  16.228  23.844  0.00  0.00    +0.000 NA
ATOM     15  C   UNL     1       1.232  16.713  23.017  0.00  0.00    +0.000 A 
ATOM     16  C   UNL     1       1.355  15.942  21.879  0.00  0.00    +0.000 A 
ATOM     17  N   UNL     1       0.433  14.936  22.023  0.00  0.00    +0.000 N 
ENDROOT
BRANCH   1  22
ATOM     18  C   UNL     1      -3.777  10.801  16.099  0.00  0.00    +0.000 A 
ATOM     19  C   UNL     1      -4.882  11.280  16.811  0.00  0.00    +0.000 A 
ATOM     20  C   UNL     1      -4.708  11.769  18.095  0.00  0.00    +0.000 A 
ATOM     21  C   UNL     1      -3.427  11.778  18.664  0.00  0.00    +0.000 A 
ATOM     22  C   UNL     1      -2.280  11.305  17.968  0.00  0.00    +0.000 A 
ATOM     23  C   UNL     1      -2.481  10.854  16.665  0.00  0.00    +0.000 A 
BRANCH  18  25
ATOM     24  C   UNL     1      -2.900   9.927  14.120  0.00  0.00    +0.000 C 
ATOM     25  O   UNL     1      -4.052  10.340  14.845  0.00  0.00    +0.000 OA
ENDBRANCH  18  25
ENDBRANCH   1  22
BRANCH  10  26
ATOM     26  C   UNL     1      -2.611  12.261  23.082  0.00  0.00    +0.000 C 
BRANCH  26  27
ATOM     27  C   UNL     1      -3.740  12.802  22.218  0.00  0.00    +0.000 C 
BRANCH  27  28
ATOM     28  C   UNL     1      -4.989  13.162  23.037  0.00  0.00    +0.000 C 
BRANCH  28  29
ATOM     29  N   UNL     1      -6.163  12.293  22.835  0.00  0.00    +0.000 NA
ATOM     30  C   UNL     1      -7.260  12.599  23.752  0.00  0.00    +0.000 C 
ATOM     31  C   UNL     1      -6.645  12.415  21.455  0.00  0.00    +0.000 C 
ENDBRANCH  28  29
ENDBRANCH  27  28
ENDBRANCH  26  27
ENDBRANCH  10  26
TORSDOF 6
ENDMDL
MODEL 2
REMARK VINA RESULT:      -6.7      1.301      1.952
REMARK  Name = 
REMARK  9 active torsions:
REMARK  status: ('A' for Active; 'I' for Inactive)
REMARK    1  A    between atoms: C_1  and  O_2
REMARK    2  A    between atoms: O_2  and  C_3
REMARK    3  A    between atoms: C_7  and  C_8
REMARK    4  A    between atoms: N_17  and  C_18
REMARK    5  A    between atoms: C_18  and  C_19
REMARK    6  A    between atoms: C_19  and  C_20
REMARK    7  A    between atoms: C_20  and  N_21
REMARK    8  A    between atoms: N_21  and  C_22
REMARK    9  A    between atoms: N_21  and  C_23
REMARK                            x       y       z     vdW  Elec       q    Type
REMARK                         _______ _______ _______ _____ _____    ______ ____
ROOT
ATOM      1  C   UNL     1      -0.612  11.076  19.720  0.00  0.00    +0.000 A 
ATOM      2  C   UNL     1      -0.059   9.874  20.203  0.00  0.00    +0.000 A 
ATOM      3  C   UNL     1       0.008   9.633  21.579  0.00  0.00    +0.000 A 
ATOM      4  C   UNL     1      -0.591  10.538  22.454  0.00  0.00    +0.000 A 
ATOM      5  C   UNL     1      -1.128  11.718  21.938  0.00  0.00    +0.000 A 
ATOM      6  C   UNL     1      -0.742  12.099  20.661  0.00  0.00    +0.000 A 
ATOM      7  C   UNL     1       0.231  13.294  21.008  0.00  0.00    +0.000 C 
ATOM      8  C   UNL     1      -0.405  13.792  22.303  0.00  0.00    +0.000 A 
ATOM      9  C   UNL     1      -1.356  12.931  22.683  0.00  0.00    +0.000 A 
ATOM     10  N   UNL     1      -2.472  13.297  23.398  0.00  0.00    +0.000 N 
ATOM     11  C   UNL     1      -2.540  14.574  24.015  0.00  0.00    +0.000 A 
ATOM     12  O   UNL     1      -3.551  14.959  24.602  0.00  0.00    +0.000 OA
ATOM     13  C   UNL     1      -1.327  15.377  23.850  0.00  0.00    +0.000 A 
ATOM     14  N   UNL     1      -1.047  16.525  24.446  0.00  0.00    +0.000 NA
ATOM     15  C   UNL     1       0.187  16.876  23.974  0.00  0.00    +0.000 A 
ATOM     16  C   UNL     1       0.651  15.960  23.052  0.00  0.00    +0.000 A 
ATOM     17  N   UNL     1      -0.327  15.002  22.970  0.00  0.00    +0.000 N 
ENDROOT
BRANCH   1  22
ATOM     18  C   UNL     1      -3.874  11.402  17.708  0.00  0.00    +0.000 A 
ATOM     19  C   UNL     1      -3.652  10.504  16.658  0.00  0.00    +0.000 A 
ATOM     20  C   UNL     1      -2.451   9.818  16.588  0.00  0.00    +0.000 A 
ATOM     21  C   UNL     1      -1.475  10.031  17.571  0.00  0.00    +0.000 A 
ATOM     22  C   UNL     1      -1.667  10.931  18.655  0.00  0.00    +0.000 A 
ATOM     23  C   UNL     1      -2.900  11.579  18.719  0.00  0.00    +0.000 A 
BRANCH  18  25
ATOM     24  C   UNL     1      -6.116  11.306  18.351  0.00  0.00    +0.000 C 
ATOM     25  O   UNL     1      -5.085  12.028  17.687  0.00  0.00    +0.000 OA
ENDBRANCH  18  25
ENDBRANCH   1  22
BRANCH  10  26
ATOM     26  C   UNL     1      -3.720  12.554  23.163  0.00  0.00    +0.000 C 
BRANCH  26  27
ATOM     27  C   UNL     1      -4.384  12.936  21.849  0.00  0.00    +0.000 C 
BRANCH  27  28
ATOM     28  C   UNL     1      -5.890  13.193  22.002  0.00  0.00    +0.000 C 
BRANCH  28  29
ATOM     29  N   UNL     1      -6.389  13.292  23.386  0.00  0.00    +0.000 NA
ATOM     30  C   UNL     1      -6.863  14.634  23.723  0.00  0.00    +0.000 C 
ATOM     31  C   UNL     1      -7.478  12.334  23.596  0.00  0.00    +0.000 C 
ENDBRANCH  28  29
ENDBRANCH  27  28
ENDBRANCH  26  27
ENDBRANCH  10  26
TORSDOF 6
ENDMDL
MODEL 3
REMARK VINA RESULT:      -6.7      1.002      1.101
REMARK  Name = 
REMARK  9 active torsions:
REMARK  status: ('A' for Active; 'I' for Inactive)
REMARK    1  A    between atoms: C_1  and  O_2
REMARK    2  A    between atoms: O_2  and  C_3
REMARK    3  A    between atoms: C_7  and  C_8
REMARK    4  A    between atoms: N_17  and  C_18
REMARK    5  A    between atoms: C_18  and  C_19
REMARK    6  A    between atoms: C_19  and  C_20
REMARK    7  A    between atoms: C_20  and  N_21
REMARK    8  A    between atoms: N_21  and  C_22
REMARK    9  A    between atoms: N_21  and  C_23
REMARK                            x       y       z     vdW  Elec       q    Type
REMARK                         _______ _______ _______ _____ _____    ______ ____
ROOT
ATOM      1  C   UNL     1      -0.758  11.160  19.514  0.00  0.00    +0.000 A 
ATOM      2  C   UNL     1      -0.191   9.939  19.926  0.00  0.00    +0.000 A 
ATOM      3  C   UNL     1      -0.061   9.645  21.286  0.00  0.00    +0.000 A 
ATOM      4  C   UNL     1      -0.613  10.519  22.223  0.00  0.00    +0.000 A 
ATOM      5  C   UNL     1      -1.165  11.721  21.777  0.00  0.00    +0.000 A 
ATOM      6  C   UNL     1      -0.837  12.148  20.498  0.00  0.00    +0.000 A 
ATOM      7  C   UNL     1       0.159  13.324  20.844  0.00  0.00    +0.000 C 
ATOM      8  C   UNL     1      -0.412  13.776  22.186  0.00  0.00    +0.000 A 
ATOM      9  C   UNL     1      -1.350  12.905  22.577  0.00  0.00    +0.000 A 
ATOM     10  N   UNL     1      -2.429  13.249  23.357  0.00  0.00    +0.000 N 
ATOM     11  C   UNL     1      -2.459  14.503  24.024  0.00  0.00    +0.000 A 
ATOM     12  O   UNL     1      -3.439  14.870  24.673  0.00  0.00    +0.000 OA
ATOM     13  C   UNL     1      -1.250  15.305  23.833  0.00  0.00    +0.000 A 
ATOM     14  N   UNL     1      -0.935  16.429  24.457  0.00  0.00    +0.000 NA
ATOM     15  C   UNL     1       0.277  16.792  23.941  0.00  0.00    +0.000 A 
ATOM     16  C   UNL     1       0.692  15.909  22.965  0.00  0.00    +0.000 A 
ATOM     17  N   UNL     1      -0.295  14.959  22.893  0.00  0.00    +0.000 N 
ENDROOT
BRANCH   1  22
ATOM     18  C   UNL     1      -2.738  10.447  16.295  0.00  0.00    +0.000 A 
ATOM     19  C   UNL     1      -3.977  11.027  16.588  0.00  0.00    +0.000 A 
ATOM     20  C   UNL     1      -4.179  11.621  17.822  0.00  0.00    +0.000 A 
ATOM     21  C   UNL     1      -3.137  11.635  18.761  0.00  0.00    +0.000 A 
ATOM     22  C   UNL     1      -1.863  11.061  18.496  0.00  0.00    +0.000 A 
ATOM     23  C   UNL     1      -1.680  10.503  17.232  0.00  0.00    +0.000 A 
BRANCH  18  25
ATOM     24  C   UNL     1      -3.837   9.972  14.291  0.00  0.00    +0.000 C 
ATOM     25  O   UNL     1      -2.640   9.886  15.055  0.00  0.00    +0.000 OA
ENDBRANCH  18  25
ENDBRANCH   1  22
BRANCH  10  26
ATOM     26  C   UNL     1      -3.692  12.522  23.154  0.00  0.00    +0.000 C 
BRANCH  26  27
ATOM     27  C   UNL     1      -4.431  12.981  21.906  0.00  0.00    +0.000 C 
BRANCH  27  28
ATOM     28  C   UNL     1      -5.898  13.338  22.187  0.00  0.00    +0.000 C 
BRANCH  28  29
ATOM     29  N   UNL     1      -6.770  12.214  22.574  0.00  0.00    +0.000 NA
ATOM     30  C   UNL     1      -7.672  12.549  23.676  0.00  0.00    +0.000 C 
ATOM     31  C   UNL     1      -7.565  11.778  21.421  0.00  0.00    +0.000 C 
ENDBRANCH  28  29
ENDBRANCH  27  28
ENDBRANCH  26  27
ENDBRANCH  10  26
TORSDOF 6
ENDMDL
MODEL 4
REMARK VINA RESULT:      -6.7      2.901      5.560
REMARK  Name = 
REMARK  9 active torsions:
REMARK  status: ('A' for Active; 'I' for Inactive)
REMARK    1  A    between atoms: C_1  and  O_2
REMARK    2  A    between atoms: O_2  and  C_3
REMARK    3  A    between atoms: C_7  and  C_8
REMARK    4  A    between atoms: N_17  and  C_18
REMARK    5  A    between atoms: C_18  and  C_19
REMARK    6  A    between atoms: C_19  and  C_20
REMARK    7  A    between atoms: C_20  and  N_21
REMARK    8  A    between atoms: N_21  and  C_22
REMARK    9  A    between atoms: N_21  and  C_23
REMARK                            x       y       z     vdW  Elec       q    Type
REMARK                         _______ _______ _______ _____ _____    ______ ____
ROOT
ATOM      1  C   UNL     1      -0.317  11.287  18.963  0.00  0.00    +0.000 A 
ATOM      2  C   UNL     1       0.492  12.421  18.756  0.00  0.00    +0.000 A 
ATOM      3  C   UNL     1       0.049  13.685  19.157  0.00  0.00    +0.000 A 
ATOM      4  C   UNL     1      -1.143  13.788  19.874  0.00  0.00    +0.000 A 
ATOM      5  C   UNL     1      -1.918  12.642  20.057  0.00  0.00    +0.000 A 
ATOM      6  C   UNL     1      -1.660  11.549  19.243  0.00  0.00    +0.000 A 
ATOM      7  C   UNL     1      -2.907  11.620  18.277  0.00  0.00    +0.000 C 
ATOM      8  C   UNL     1      -3.939  12.242  19.214  0.00  0.00    +0.000 A 
ATOM      9  C   UNL     1      -3.331  12.624  20.343  0.00  0.00    +0.000 A 
ATOM     10  N   UNL     1      -3.955  12.666  21.567  0.00  0.00    +0.000 N 
ATOM     11  C   UNL     1      -5.370  12.567  21.653  0.00  0.00    +0.000 A 
ATOM     12  O   UNL     1      -5.954  12.531  22.736  0.00  0.00    +0.000 OA
ATOM     13  C   UNL     1      -6.037  12.477  20.353  0.00  0.00    +0.000 A 
ATOM     14  N   UNL     1      -7.339  12.539  20.122  0.00  0.00    +0.000 NA
ATOM     15  C   UNL     1      -7.465  12.409  18.768  0.00  0.00    +0.000 A 
ATOM     16  C   UNL     1      -6.236  12.227  18.165  0.00  0.00    +0.000 A 
ATOM     17  N   UNL     1      -5.322  12.264  19.188  0.00  0.00    +0.000 N 
ENDROOT
BRANCH   1  22
ATOM     18  C   UNL     1       1.805   8.152  19.641  0.00  0.00    +0.000 A 
ATOM     19  C   UNL     1       1.471   7.862  20.969  0.00  0.00    +0.000 A 
ATOM     20  C   UNL     1       0.586   8.686  21.645  0.00  0.00    +0.000 A 
ATOM     21  C   UNL     1       0.037   9.797  20.990  0.00  0.00    +0.000 A 
ATOM     22  C   UNL     1       0.350  10.119  19.640  0.00  0.00    +0.000 A 
ATOM     23  C   UNL     1       1.214   9.251  18.975  0.00  0.00    +0.000 A 
BRANCH  18  25
ATOM     24  C   UNL     1       3.119   7.682  17.769  0.00  0.00    +0.000 C 
ATOM     25  O   UNL     1       2.685   7.283  19.064  0.00  0.00    +0.000 OA
ENDBRANCH  18  25
ENDBRANCH   1  22
BRANCH  10  26
ATOM     26  C   UNL     1      -3.150  12.388  22.766  0.00  0.00    +0.000 C 
BRANCH  26  27
ATOM     27  C   UNL     1      -2.589  13.654  23.394  0.00  0.00    +0.000 C 
BRANCH  27  28
ATOM     28  C   UNL     1      -3.460  14.177  24.547  0.00  0.00    +0.000 C 
BRANCH  28  29
ATOM     29  N   UNL     1      -3.831  15.602  24.476  0.00  0.00    +0.000 NA
ATOM     30  C   UNL     1      -2.950  16.375  23.602  0.00  0.00    +0.000 C 
ATOM     31  C   UNL     1      -5.212  15.736  24.003  0.00  0.00    +0.000 C 
ENDBRANCH  28  29
ENDBRANCH  27  28
ENDBRANCH  26  27
ENDBRANCH  10  26
TORSDOF 6
ENDMDL
MODEL 5
REMARK VINA RESULT:      -6.5      3.422      7.075
REMARK  Name = 
REMARK  9 active torsions:
REMARK  status: ('A' for Active; 'I' for Inactive)
REMARK    1  A    between atoms: C_1  and  O_2
REMARK    2  A    between atoms: O_2  and  C_3
REMARK    3  A    between atoms: C_7  and  C_8
REMARK    4  A    between atoms: N_17  and  C_18
REMARK    5  A    between atoms: C_18  and  C_19
REMARK    6  A    between atoms: C_19  and  C_20
REMARK    7  A    between atoms: C_20  and  N_21
REMARK    8  A    between atoms: N_21  and  C_22
REMARK    9  A    between atoms: N_21  and  C_23
REMARK                            x       y       z     vdW  Elec       q    Type
REMARK                         _______ _______ _______ _____ _____    ______ ____
ROOT
ATOM      1  C   UNL     1      -3.516  13.304  22.442  0.00  0.00    +0.000 A 
ATOM      2  C   UNL     1      -4.257  12.914  23.574  0.00  0.00    +0.000 A 
ATOM      3  C   UNL     1      -5.652  12.845  23.513  0.00  0.00    +0.000 A 
ATOM      4  C   UNL     1      -6.286  13.044  22.286  0.00  0.00    +0.000 A 
ATOM      5  C   UNL     1      -5.518  13.431  21.187  0.00  0.00    +0.000 A 
ATOM      6  C   UNL     1      -4.247  13.932  21.432  0.00  0.00    +0.000 A 
ATOM      7  C   UNL     1      -4.493  15.466  21.155  0.00  0.00    +0.000 C 
ATOM      8  C   UNL     1      -5.603  15.378  20.111  0.00  0.00    +0.000 A 
ATOM      9  C   UNL     1      -6.014  14.108  20.015  0.00  0.00    +0.000 A 
ATOM     10  N   UNL     1      -6.524  13.558  18.863  0.00  0.00    +0.000 N 
ATOM     11  C   UNL     1      -6.901  14.392  17.778  0.00  0.00    +0.000 A 
ATOM     12  O   UNL     1      -7.295  13.928  16.708  0.00  0.00    +0.000 OA
ATOM     13  C   UNL     1      -6.741  15.823  18.046  0.00  0.00    +0.000 A 
ATOM     14  N   UNL     1      -7.160  16.825  17.290  0.00  0.00    +0.000 NA
ATOM     15  C   UNL     1      -6.778  17.955  17.957  0.00  0.00    +0.000 A 
ATOM     16  C   UNL     1      -6.085  17.647  19.111  0.00  0.00    +0.000 A 
ATOM     17  N   UNL     1      -6.058  16.276  19.161  0.00  0.00    +0.000 N 
ENDROOT
BRANCH   1  22
ATOM     18  C   UNL     1      -0.588  10.814  22.587  0.00  0.00    +0.000 A 
ATOM     19  C   UNL     1      -0.161  10.797  21.255  0.00  0.00    +0.000 A 
ATOM     20  C   UNL     1      -0.828  11.564  20.315  0.00  0.00    +0.000 A 
ATOM     21  C   UNL     1      -1.920  12.348  20.711  0.00  0.00    +0.000 A 
ATOM     22  C   UNL     1      -2.379  12.395  22.057  0.00  0.00    +0.000 A 
ATOM     23  C   UNL     1      -1.664  11.641  22.987  0.00  0.00    +0.000 A 
BRANCH  18  25
ATOM     24  C   UNL     1       1.106   9.219  22.781  0.00  0.00    +0.000 C 
ATOM     25  O   UNL     1       0.132  10.024  23.435  0.00  0.00    +0.000 OA
ENDBRANCH  18  25
ENDBRANCH   1  22
BRANCH  10  26
ATOM     26  C   UNL     1      -6.279  12.130  18.609  0.00  0.00    +0.000 C 
BRANCH  26  27
ATOM     27  C   UNL     1      -4.838  11.850  18.211  0.00  0.00    +0.000 C 
BRANCH  27  28
ATOM     28  C   UNL     1      -4.697  11.481  16.727  0.00  0.00    +0.000 C 
BRANCH  28  29
ATOM     29  N   UNL     1      -3.567  10.596  16.388  0.00  0.00    +0.000 NA
ATOM     30  C   UNL     1      -3.347  10.484  14.947  0.00  0.00    +0.000 C 
ATOM     31  C   UNL     1      -2.340  11.087  17.023  0.00  0.00    +0.000 C 
ENDBRANCH  28  29
ENDBRANCH  27  28
ENDBRANCH  26  27
ENDBRANCH  10  26
TORSDOF 6
ENDMDL
MODEL 6
REMARK VINA RESULT:      -6.5      2.471      5.631
REMARK  Name = 
REMARK  9 active torsions:
REMARK  status: ('A' for Active; 'I' for Inactive)
REMARK    1  A    between atoms: C_1  and  O_2
REMARK    2  A    between atoms: O_2  and  C_3
REMARK    3  A    between atoms: C_7  and  C_8
REMARK    4  A    between atoms: N_17  and  C_18
REMARK    5  A    between atoms: C_18  and  C_19
REMARK    6  A    between atoms: C_19  and  C_20
REMARK    7  A    between atoms: C_20  and  N_21
REMARK    8  A    between atoms: N_21  and  C_22
REMARK    9  A    between atoms: N_21  and  C_23
REMARK                            x       y       z     vdW  Elec       q    Type
REMARK                         _______ _______ _______ _____ _____    ______ ____
ROOT
ATOM      1  C   UNL     1      -0.220  11.241  18.649  0.00  0.00    +0.000 A 
ATOM      2  C   UNL     1       0.559  12.353  18.274  0.00  0.00    +0.000 A 
ATOM      3  C   UNL     1       0.246  13.627  18.758  0.00  0.00    +0.000 A 
ATOM      4  C   UNL     1      -0.764  13.760  19.710  0.00  0.00    +0.000 A 
ATOM      5  C   UNL     1      -1.515  12.635  20.056  0.00  0.00    +0.000 A 
ATOM      6  C   UNL     1      -1.465  11.540  19.206  0.00  0.00    +0.000 A 
ATOM      7  C   UNL     1      -2.886  11.649  18.526  0.00  0.00    +0.000 C 
ATOM      8  C   UNL     1      -3.679  12.295  19.659  0.00  0.00    +0.000 A 
ATOM      9  C   UNL     1      -2.835  12.655  20.633  0.00  0.00    +0.000 A 
ATOM     10  N   UNL     1      -3.185  12.709  21.962  0.00  0.00    +0.000 N 
ATOM     11  C   UNL     1      -4.552  12.649  22.345  0.00  0.00    +0.000 A 
ATOM     12  O   UNL     1      -4.895  12.624  23.526  0.00  0.00    +0.000 OA
ATOM     13  C   UNL     1      -5.481  12.584  21.215  0.00  0.00    +0.000 A 
ATOM     14  N   UNL     1      -6.800  12.682  21.265  0.00  0.00    +0.000 NA
ATOM     15  C   UNL     1      -7.213  12.562  19.968  0.00  0.00    +0.000 A 
ATOM     16  C   UNL     1      -6.145  12.348  19.119  0.00  0.00    +0.000 A 
ATOM     17  N   UNL     1      -5.035  12.356  19.925  0.00  0.00    +0.000 N 
ENDROOT
BRANCH   1  22
ATOM     18  C   UNL     1       2.069   8.160  18.896  0.00  0.00    +0.000 A 
ATOM     19  C   UNL     1       1.849   7.746  20.214  0.00  0.00    +0.000 A 
ATOM     20  C   UNL     1       0.988   8.469  21.023  0.00  0.00    +0.000 A 
ATOM     21  C   UNL     1       0.348   9.605  20.508  0.00  0.00    +0.000 A 
ATOM     22  C   UNL     1       0.542  10.052  19.172  0.00  0.00    +0.000 A 
ATOM     23  C   UNL     1       1.386   9.283  18.372  0.00  0.00    +0.000 A 
BRANCH  18  25
ATOM     24  C   UNL     1       2.640   5.993  18.243  0.00  0.00    +0.000 C 
ATOM     25  O   UNL     1       2.934   7.383  18.183  0.00  0.00    +0.000 OA
ENDBRANCH  18  25
ENDBRANCH   1  22
BRANCH  10  26
ATOM     26  C   UNL     1      -2.153  12.403  22.964  0.00  0.00    +0.000 C 
BRANCH  26  27
ATOM     27  C   UNL     1      -1.252  13.595  23.251  0.00  0.00    +0.000 C 
BRANCH  27  28
ATOM     28  C   UNL     1      -1.771  14.462  24.408  0.00  0.00    +0.000 C 
BRANCH  28  29
ATOM     29  N   UNL     1      -0.788  15.376  25.017  0.00  0.00    +0.000 NA
ATOM     30  C   UNL     1      -0.299  16.388  24.081  0.00  0.00    +0.000 C 
ATOM     31  C   UNL     1      -1.381  16.047  26.178  0.00  0.00    +0.000 C 
ENDBRANCH  28  29
ENDBRANCH  27  28
ENDBRANCH  26  27
ENDBRANCH  10  26
TORSDOF 6
ENDMDL
MODEL 7
REMARK VINA RESULT:      -6.5      2.564      5.948
REMARK  Name = 
REMARK  9 active torsions:
REMARK  status: ('A' for Active; 'I' for Inactive)
REMARK    1  A    between atoms: C_1  and  O_2
REMARK    2  A    between atoms: O_2  and  C_3
REMARK    3  A    between atoms: C_7  and  C_8
REMARK    4  A    between atoms: N_17  and  C_18
REMARK    5  A    between atoms: C_18  and  C_19
REMARK    6  A    between atoms: C_19  and  C_20
REMARK    7  A    between atoms: C_20  and  N_21
REMARK    8  A    between atoms: N_21  and  C_22
REMARK    9  A    between atoms: N_21  and  C_23
REMARK                            x       y       z     vdW  Elec       q    Type
REMARK                         _______ _______ _______ _____ _____    ______ ____
ROOT
ATOM      1  C   UNL     1      -0.486  11.595  18.700  0.00  0.00    +0.000 A 
ATOM      2  C   UNL     1       0.272  12.766  18.503  0.00  0.00    +0.000 A 
ATOM      3  C   UNL     1      -0.166  13.985  19.027  0.00  0.00    +0.000 A 
ATOM      4  C   UNL     1      -1.293  14.003  19.850  0.00  0.00    +0.000 A 
ATOM      5  C   UNL     1      -2.019  12.823  20.019  0.00  0.00    +0.000 A 
ATOM      6  C   UNL     1      -1.805  11.796  19.112  0.00  0.00    +0.000 A 
ATOM      7  C   UNL     1      -3.134  11.891  18.265  0.00  0.00    +0.000 C 
ATOM      8  C   UNL     1      -4.095  12.416  19.328  0.00  0.00    +0.000 A 
ATOM      9  C   UNL     1      -3.400  12.741  20.424  0.00  0.00    +0.000 A 
ATOM     10  N   UNL     1      -3.915  12.681  21.697  0.00  0.00    +0.000 N 
ATOM     11  C   UNL     1      -5.313  12.532  21.898  0.00  0.00    +0.000 A 
ATOM     12  O   UNL     1      -5.799  12.405  23.022  0.00  0.00    +0.000 OA
ATOM     13  C   UNL     1      -6.091  12.508  20.657  0.00  0.00    +0.000 A 
ATOM     14  N   UNL     1      -7.409  12.543  20.544  0.00  0.00    +0.000 NA
ATOM     15  C   UNL     1      -7.650  12.500  19.200  0.00  0.00    +0.000 A 
ATOM     16  C   UNL     1      -6.475  12.398  18.482  0.00  0.00    +0.000 A 
ATOM     17  N   UNL     1      -5.476  12.396  19.422  0.00  0.00    +0.000 N 
ENDROOT
BRANCH   1  22
ATOM     18  C   UNL     1       1.021   8.952  21.052  0.00  0.00    +0.000 A 
ATOM     19  C   UNL     1       1.822   8.213  20.175  0.00  0.00    +0.000 A 
ATOM     20  C   UNL     1       1.855   8.550  18.832  0.00  0.00    +0.000 A 
ATOM     21  C   UNL     1       1.088   9.629  18.371  0.00  0.00    +0.000 A 
ATOM     22  C   UNL     1       0.268  10.407  19.234  0.00  0.00    +0.000 A 
ATOM     23  C   UNL     1       0.284  10.066  20.586  0.00  0.00    +0.000 A 
BRANCH  18  25
ATOM     24  C   UNL     1       0.239   9.316  23.221  0.00  0.00    +0.000 C 
ATOM     25  O   UNL     1       1.055   8.541  22.353  0.00  0.00    +0.000 OA
ENDBRANCH  18  25
ENDBRANCH   1  22
BRANCH  10  26
ATOM     26  C   UNL     1      -3.000  12.349  22.800  0.00  0.00    +0.000 C 
BRANCH  26  27
ATOM     27  C   UNL     1      -2.733  13.538  23.710  0.00  0.00    +0.000 C 
BRANCH  27  28
ATOM     28  C   UNL     1      -1.279  14.027  23.630  0.00  0.00    +0.000 C 
BRANCH  28  29
ATOM     29  N   UNL     1      -0.898  15.073  24.597  0.00  0.00    +0.000 NA
ATOM     30  C   UNL     1      -0.455  16.308  23.952  0.00  0.00    +0.000 C 
ATOM     31  C   UNL     1      -2.028  15.373  25.481  0.00  0.00    +0.000 C 
ENDBRANCH  28  29
ENDBRANCH  27  28
ENDBRANCH  26  27
ENDBRANCH  10  26
TORSDOF 6
ENDMDL
MODEL 8
REMARK VINA RESULT:      -6.5      1.045      1.666
REMARK  Name = 
REMARK  9 active torsions:
REMARK  status: ('A' for Active; 'I' for Inactive)
REMARK    1  A    between atoms: C_1  and  O_2
REMARK    2  A    between atoms: O_2  and  C_3
REMARK    3  A    between atoms: C_7  and  C_8
REMARK    4  A    between atoms: N_17  and  C_18
REMARK    5  A    between atoms: C_18  and  C_19
REMARK    6  A    between atoms: C_19  and  C_20
REMARK    7  A    between atoms: C_20  and  N_21
REMARK    8  A    between atoms: N_21  and  C_22
REMARK    9  A    between atoms: N_21  and  C_23
REMARK                            x       y       z     vdW  Elec       q    Type
REMARK                         _______ _______ _______ _____ _____    ______ ____
ROOT
ATOM      1  C   UNL     1      -0.542  11.167  19.022  0.00  0.00    +0.000 A 
ATOM      2  C   UNL     1       0.154   9.969  19.275  0.00  0.00    +0.000 A 
ATOM      3  C   UNL     1       0.584   9.663  20.570  0.00  0.00    +0.000 A 
ATOM      4  C   UNL     1       0.206  10.497  21.622  0.00  0.00    +0.000 A 
ATOM      5  C   UNL     1      -0.482  11.676  21.332  0.00  0.00    +0.000 A 
ATOM      6  C   UNL     1      -0.453  12.136  20.023  0.00  0.00    +0.000 A 
ATOM      7  C   UNL     1       0.539  13.354  20.178  0.00  0.00    +0.000 C 
ATOM      8  C   UNL     1       0.248  13.759  21.620  0.00  0.00    +0.000 A 
ATOM      9  C   UNL     1      -0.545  12.839  22.181  0.00  0.00    +0.000 A 
ATOM     10  N   UNL     1      -1.448  13.119  23.180  0.00  0.00    +0.000 N 
ATOM     11  C   UNL     1      -1.392  14.361  23.868  0.00  0.00    +0.000 A 
ATOM     12  O   UNL     1      -2.226  14.671  24.718  0.00  0.00    +0.000 OA
ATOM     13  C   UNL     1      -0.288  15.224  23.443  0.00  0.00    +0.000 A 
ATOM     14  N   UNL     1       0.103  16.353  24.013  0.00  0.00    +0.000 NA
ATOM     15  C   UNL     1       1.160  16.781  23.260  0.00  0.00    +0.000 A 
ATOM     16  C   UNL     1       1.396  15.933  22.197  0.00  0.00    +0.000 A 
ATOM     17  N   UNL     1       0.460  14.937  22.314  0.00  0.00    +0.000 N 
ENDROOT
BRANCH   1  22
ATOM     18  C   UNL     1      -4.209  11.495  17.910  0.00  0.00    +0.000 A 
ATOM     19  C   UNL     1      -4.259  10.610  16.827  0.00  0.00    +0.000 A 
ATOM     20  C   UNL     1      -3.114   9.933  16.446  0.00  0.00    +0.000 A 
ATOM     21  C   UNL     1      -1.920  10.141  17.150  0.00  0.00    +0.000 A 
ATOM     22  C   UNL     1      -1.832  11.028  18.259  0.00  0.00    +0.000 A 
ATOM     23  C   UNL     1      -3.011  11.667  18.642  0.00  0.00    +0.000 A 
BRANCH  18  25
ATOM     24  C   UNL     1      -6.045  12.670  17.073  0.00  0.00    +0.000 C 
ATOM     25  O   UNL     1      -5.388  12.114  18.206  0.00  0.00    +0.000 OA
ENDBRANCH  18  25
ENDBRANCH   1  22
BRANCH  10  26
ATOM     26  C   UNL     1      -2.691  12.335  23.232  0.00  0.00    +0.000 C 
BRANCH  26  27
ATOM     27  C   UNL     1      -3.783  12.919  22.349  0.00  0.00    +0.000 C 
BRANCH  27  28
ATOM     28  C   UNL     1      -5.083  13.192  23.122  0.00  0.00    +0.000 C 
BRANCH  28  29
ATOM     29  N   UNL     1      -6.246  13.586  22.305  0.00  0.00    +0.000 NA
ATOM     30  C   UNL     1      -5.871  14.043  20.968  0.00  0.00    +0.000 C 
ATOM     31  C   UNL     1      -7.176  12.460  22.183  0.00  0.00    +0.000 C 
ENDBRANCH  28  29
ENDBRANCH  27  28
ENDBRANCH  26  27
ENDBRANCH  10  26
TORSDOF 6
ENDMDL
MODEL 9
REMARK VINA RESULT:      -6.4      3.030      6.003
REMARK  Name = 
REMARK  9 active torsions:
REMARK  status: ('A' for Active; 'I' for Inactive)
REMARK    1  A    between atoms: C_1  and  O_2
REMARK    2  A    between atoms: O_2  and  C_3
REMARK    3  A    between atoms: C_7  and  C_8
REMARK    4  A    between atoms: N_17  and  C_18
REMARK    5  A    between atoms: C_18  and  C_19
REMARK    6  A    between atoms: C_19  and  C_20
REMARK    7  A    between atoms: C_20  and  N_21
REMARK    8  A    between atoms: N_21  and  C_22
REMARK    9  A    between atoms: N_21  and  C_23
REMARK                            x       y       z     vdW  Elec       q    Type
REMARK                         _______ _______ _______ _____ _____    ______ ____
ROOT
ATOM      1  C   UNL     1       1.015   9.981  18.269  0.00  0.00    +0.000 A 
ATOM      2  C   UNL     1       2.012  10.926  17.955  0.00  0.00    +0.000 A 
ATOM      3  C   UNL     1       1.803  12.284  18.214  0.00  0.00    +0.000 A 
ATOM      4  C   UNL     1       0.652  12.672  18.900  0.00  0.00    +0.000 A 
ATOM      5  C   UNL     1      -0.314  11.707  19.193  0.00  0.00    +0.000 A 
ATOM      6  C   UNL     1      -0.258  10.506  18.501  0.00  0.00    +0.000 A 
ATOM      7  C   UNL     1      -1.478  10.694  17.516  0.00  0.00    +0.000 C 
ATOM      8  C   UNL     1      -2.378  11.584  18.368  0.00  0.00    +0.000 A 
ATOM      9  C   UNL     1      -1.706  11.970  19.459  0.00  0.00    +0.000 A 
ATOM     10  N   UNL     1      -2.307  12.251  20.664  0.00  0.00    +0.000 N 
ATOM     11  C   UNL     1      -3.716  12.414  20.740  0.00  0.00    +0.000 A 
ATOM     12  O   UNL     1      -4.292  12.597  21.812  0.00  0.00    +0.000 OA
ATOM     13  C   UNL     1      -4.396  12.307  19.447  0.00  0.00    +0.000 A 
ATOM     14  N   UNL     1      -5.667  12.573  19.193  0.00  0.00    +0.000 NA
ATOM     15  C   UNL     1      -5.820  12.325  17.859  0.00  0.00    +0.000 A 
ATOM     16  C   UNL     1      -4.647  11.865  17.295  0.00  0.00    +0.000 A 
ATOM     17  N   UNL     1      -3.736  11.848  18.321  0.00  0.00    +0.000 N 
ENDROOT
BRANCH   1  22
ATOM     18  C   UNL     1       2.670   6.677  19.335  0.00  0.00    +0.000 A 
ATOM     19  C   UNL     1       2.174   6.515  20.633  0.00  0.00    +0.000 A 
ATOM     20  C   UNL     1       1.333   7.477  21.167  0.00  0.00    +0.000 A 
ATOM     21  C   UNL     1       0.988   8.598  20.399  0.00  0.00    +0.000 A 
ATOM     22  C   UNL     1       1.468   8.792  19.074  0.00  0.00    +0.000 A 
ATOM     23  C   UNL     1       2.283   7.790  18.551  0.00  0.00    +0.000 A 
BRANCH  18  25
ATOM     24  C   UNL     1       3.122   4.387  19.371  0.00  0.00    +0.000 C 
ATOM     25  O   UNL     1       3.491   5.678  18.901  0.00  0.00    +0.000 OA
ENDBRANCH  18  25
ENDBRANCH   1  22
BRANCH  10  26
ATOM     26  C   UNL     1      -1.558  11.963  21.896  0.00  0.00    +0.000 C 
BRANCH  26  27
ATOM     27  C   UNL     1      -0.803  13.179  22.413  0.00  0.00    +0.000 C 
BRANCH  27  28
ATOM     28  C   UNL     1      -1.466  13.801  23.651  0.00  0.00    +0.000 C 
BRANCH  28  29
ATOM     29  N   UNL     1      -0.762  14.951  24.248  0.00  0.00    +0.000 NA
ATOM     30  C   UNL     1      -0.593  16.061  23.312  0.00  0.00    +0.000 C 
ATOM     31  C   UNL     1      -1.490  15.426  25.428  0.00  0.00    +0.000 C 
ENDBRANCH  28  29
ENDBRANCH  27  28
ENDBRANCH  26  27
ENDBRANCH  10  26
TORSDOF 6
ENDMDL
