MODEL 1
REMARK VINA RESULT:      -9.0      0.000      0.000
REMARK  Name = 
REMARK  7 active torsions:
REMARK  status: ('A' for Active; 'I' for Inactive)
REMARK    1  A    between atoms: C_1  and  C_2
REMARK    2  A    between atoms: C_2  and  C_3
REMARK    3  A    between atoms: C_2  and  N_4
REMARK    4  A    between atoms: C_7  and  S_8
REMARK    5  A    between atoms: S_8  and  N_11
REMARK    6  A    between atoms: C_14  and  C_15
REMARK    7  A    between atoms: N_17  and  C_18
REMARK                            x       y       z     vdW  Elec       q    Type
REMARK                         _______ _______ _______ _____ _____    ______ ____
ROOT
ATOM      1  N   UNL     1       5.627   4.640  16.951  0.00  0.00    +0.000 NA
ATOM      2  C   UNL     1       5.681   5.154  18.341  0.00  0.00    +0.000 C 
ATOM      3  C   UNL     1       5.103   4.157  19.337  0.00  0.00    +0.000 C 
ATOM      4  C   UNL     1       3.689   3.720  18.958  0.00  0.00    +0.000 C 
ATOM      5  C   UNL     1       3.751   3.102  17.554  0.00  0.00    +0.000 C 
ATOM      6  C   UNL     1       4.317   4.077  16.522  0.00  0.00    +0.000 C 
ENDROOT
BRANCH   4   7
ATOM      7  C   UNL     1       2.630   4.831  19.005  0.00  0.00    +0.000 C 
ATOM      8  O   UNL     1       1.445   4.570  18.808  0.00  0.00    +0.000 OA
ATOM      9  N   UNL     1       3.112   6.094  19.312  0.00  0.00    +0.000 N 
ATOM     10  H   UNL     1       4.115   6.228  19.328  0.00  0.00    +0.000 HD
BRANCH   9  11
ATOM     11  C   UNL     1       2.319   7.263  19.431  0.00  0.00    +0.000 A 
ATOM     12  C   UNL     1       2.121   8.163  18.377  0.00  0.00    +0.000 A 
ATOM     13  C   UNL     1       1.392   9.340  18.559  0.00  0.00    +0.000 A 
ATOM     14  C   UNL     1       0.843   9.629  19.804  0.00  0.00    +0.000 A 
ATOM     15  C   UNL     1       1.001   8.720  20.847  0.00  0.00    +0.000 A 
ATOM     16 CL   UNL     1       0.323   9.080  22.389  0.00  0.00    +0.000 Cl
ATOM     17  C   UNL     1       1.718   7.532  20.665  0.00  0.00    +0.000 A 
ENDBRANCH   9  11
ENDBRANCH   4   7
BRANCH   1  18
ATOM     18  S   UNL     1       6.278   5.760  15.800  0.00  0.00    +0.000 S 
ATOM     19  O   UNL     1       7.602   6.151  16.262  0.00  0.00    +0.000 OA
ATOM     20  O   UNL     1       5.269   6.742  15.478  0.00  0.00    +0.000 OA
BRANCH  18  24
ATOM     21  N   UNL     1       6.293   3.708  12.483  0.00  0.00    +0.000 N 
ATOM     22  C   UNL     1       7.450   4.433  12.382  0.00  0.00    +0.000 A 
ATOM     23  N   UNL     1       7.646   5.181  13.446  0.00  0.00    +0.000 NA
ATOM     24  C   UNL     1       6.580   4.905  14.291  0.00  0.00    +0.000 A 
ATOM     25  C   UNL     1       5.754   3.960  13.716  0.00  0.00    +0.000 A 
BRANCH  21  27
ATOM     26  C   UNL     1       6.022   1.454  11.525  0.00  0.00    +0.000 C 
ATOM     27  C   UNL     1       5.647   2.934  11.430  0.00  0.00    +0.000 C 
ATOM     28  C   UNL     1       4.131   3.124  11.383  0.00  0.00    +0.000 C 
ENDBRANCH  21  27
ENDBRANCH  18  24
ENDBRANCH   1  18
TORSDOF 5
ENDMDL
MODEL 2
REMARK VINA RESULT:      -8.7      1.074      1.415
REMARK  Name = 
REMARK  7 active torsions:
REMARK  status: ('A' for Active; 'I' for Inactive)
REMARK    1  A    between atoms: C_1  and  C_2
REMARK    2  A    between atoms: C_2  and  C_3
REMARK    3  A    between atoms: C_2  and  N_4
REMARK    4  A    between atoms: C_7  and  S_8
REMARK    5  A    between atoms: S_8  and  N_11
REMARK    6  A    between atoms: C_14  and  C_15
REMARK    7  A    between atoms: N_17  and  C_18
REMARK                            x       y       z     vdW  Elec       q    Type
REMARK                         _______ _______ _______ _____ _____    ______ ____
ROOT
ATOM      1  N   UNL     1       5.530   4.323  17.199  0.00  0.00    +0.000 NA
ATOM      2  C   UNL     1       5.539   4.598  18.657  0.00  0.00    +0.000 C 
ATOM      3  C   UNL     1       4.818   3.512  19.444  0.00  0.00    +0.000 C 
ATOM      4  C   UNL     1       3.400   3.275  18.929  0.00  0.00    +0.000 C 
ATOM      5  C   UNL     1       3.498   2.889  17.446  0.00  0.00    +0.000 C 
ATOM      6  C   UNL     1       4.208   3.961  16.619  0.00  0.00    +0.000 C 
ENDROOT
BRANCH   4   7
ATOM      7  C   UNL     1       2.436   4.457  19.109  0.00  0.00    +0.000 C 
ATOM      8  O   UNL     1       1.234   4.318  18.897  0.00  0.00    +0.000 OA
ATOM      9  N   UNL     1       3.022   5.634  19.549  0.00  0.00    +0.000 N 
ATOM     10  H   UNL     1       4.033   5.683  19.569  0.00  0.00    +0.000 HD
BRANCH   9  11
ATOM     11  C   UNL     1       2.329   6.844  19.805  0.00  0.00    +0.000 A 
ATOM     12  C   UNL     1       1.630   7.087  20.993  0.00  0.00    +0.000 A 
ATOM     13  C   UNL     1       0.900   8.264  21.174  0.00  0.00    +0.000 A 
ATOM     14  C   UNL     1       0.866   9.220  20.165  0.00  0.00    +0.000 A 
ATOM     15  C   UNL     1       1.591   9.004  18.996  0.00  0.00    +0.000 A 
ATOM     16 CL   UNL     1       1.547  10.187  17.744  0.00  0.00    +0.000 Cl
ATOM     17  C   UNL     1       2.336   7.833  18.817  0.00  0.00    +0.000 A 
ENDBRANCH   9  11
ENDBRANCH   4   7
BRANCH   1  18
ATOM     18  S   UNL     1       6.345   5.549  16.284  0.00  0.00    +0.000 S 
ATOM     19  O   UNL     1       7.650   5.760  16.891  0.00  0.00    +0.000 OA
ATOM     20  O   UNL     1       5.432   6.644  16.052  0.00  0.00    +0.000 OA
BRANCH  18  24
ATOM     21  N   UNL     1       6.512   3.909  12.749  0.00  0.00    +0.000 N 
ATOM     22  C   UNL     1       7.591   4.752  12.731  0.00  0.00    +0.000 A 
ATOM     23  N   UNL     1       7.729   5.387  13.874  0.00  0.00    +0.000 NA
ATOM     24  C   UNL     1       6.707   4.910  14.685  0.00  0.00    +0.000 A 
ATOM     25  C   UNL     1       5.970   3.961  14.005  0.00  0.00    +0.000 A 
BRANCH  21  27
ATOM     26  C   UNL     1       6.476   1.777  11.514  0.00  0.00    +0.000 C 
ATOM     27  C   UNL     1       5.930   3.203  11.615  0.00  0.00    +0.000 C 
ATOM     28  C   UNL     1       4.402   3.218  11.613  0.00  0.00    +0.000 C 
ENDBRANCH  21  27
ENDBRANCH  18  24
ENDBRANCH   1  18
TORSDOF 5
ENDMDL
MODEL 3
REMARK VINA RESULT:      -8.4      1.681      2.117
REMARK  Name = 
REMARK  7 active torsions:
REMARK  status: ('A' for Active; 'I' for Inactive)
REMARK    1  A    between atoms: C_1  and  C_2
REMARK    2  A    between atoms: C_2  and  C_3
REMARK    3  A    between atoms: C_2  and  N_4
REMARK    4  A    between atoms: C_7  and  S_8
REMARK    5  A    between atoms: S_8  and  N_11
REMARK    6  A    between atoms: C_14  and  C_15
REMARK    7  A    between atoms: N_17  and  C_18
REMARK                            x       y       z     vdW  Elec       q    Type
REMARK                         _______ _______ _______ _____ _____    ______ ____
ROOT
ATOM      1  N   UNL     1       4.879   3.674  17.992  0.00  0.00    +0.000 NA
ATOM      2  C   UNL     1       4.723   3.487  19.455  0.00  0.00    +0.000 C 
ATOM      3  C   UNL     1       3.618   2.493  19.785  0.00  0.00    +0.000 C 
ATOM      4  C   UNL     1       2.292   2.867  19.125  0.00  0.00    +0.000 C 
ATOM      5  C   UNL     1       2.525   2.929  17.609  0.00  0.00    +0.000 C 
ATOM      6  C   UNL     1       3.622   3.925  17.236  0.00  0.00    +0.000 C 
ENDROOT
BRANCH   4   7
ATOM      7  C   UNL     1       1.666   4.178  19.621  0.00  0.00    +0.000 C 
ATOM      8  O   UNL     1       0.626   4.163  20.276  0.00  0.00    +0.000 OA
ATOM      9  N   UNL     1       2.374   5.327  19.304  0.00  0.00    +0.000 N 
ATOM     10  H   UNL     1       3.145   5.246  18.654  0.00  0.00    +0.000 HD
BRANCH   9  11
ATOM     11  C   UNL     1       2.000   6.644  19.675  0.00  0.00    +0.000 A 
ATOM     12  C   UNL     1       1.491   6.967  20.939  0.00  0.00    +0.000 A 
ATOM     13  C   UNL     1       1.066   8.264  21.237  0.00  0.00    +0.000 A 
ATOM     14  C   UNL     1       1.153   9.260  20.272  0.00  0.00    +0.000 A 
ATOM     15  C   UNL     1       1.695   8.957  19.025  0.00  0.00    +0.000 A 
ATOM     16 CL   UNL     1       1.800  10.191  17.828  0.00  0.00    +0.000 Cl
ATOM     17  C   UNL     1       2.136   7.662  18.727  0.00  0.00    +0.000 A 
ENDBRANCH   9  11
ENDBRANCH   4   7
BRANCH   1  18
ATOM     18  S   UNL     1       6.132   4.804  17.595  0.00  0.00    +0.000 S 
ATOM     19  O   UNL     1       7.330   4.412  18.322  0.00  0.00    +0.000 OA
ATOM     20  O   UNL     1       5.598   6.144  17.681  0.00  0.00    +0.000 OA
BRANCH  18  24
ATOM     21  N   UNL     1       6.565   3.912  13.822  0.00  0.00    +0.000 N 
ATOM     22  C   UNL     1       7.300   5.061  13.936  0.00  0.00    +0.000 A 
ATOM     23  N   UNL     1       7.305   5.512  15.172  0.00  0.00    +0.000 NA
ATOM     24  C   UNL     1       6.564   4.593  15.902  0.00  0.00    +0.000 A 
ATOM     25  C   UNL     1       6.132   3.573  15.076  0.00  0.00    +0.000 A 
BRANCH  21  27
ATOM     26  C   UNL     1       4.744   3.641  12.184  0.00  0.00    +0.000 C 
ATOM     27  C   UNL     1       6.165   3.243  12.591  0.00  0.00    +0.000 C 
ATOM     28  C   UNL     1       7.153   3.448  11.443  0.00  0.00    +0.000 C 
ENDBRANCH  21  27
ENDBRANCH  18  24
ENDBRANCH   1  18
TORSDOF 5
ENDMDL
MODEL 4
REMARK VINA RESULT:      -8.1      1.522      2.048
REMARK  Name = 
REMARK  7 active torsions:
REMARK  status: ('A' for Active; 'I' for Inactive)
REMARK    1  A    between atoms: C_1  and  C_2
REMARK    2  A    between atoms: C_2  and  C_3
REMARK    3  A    between atoms: C_2  and  N_4
REMARK    4  A    between atoms: C_7  and  S_8
REMARK    5  A    between atoms: S_8  and  N_11
REMARK    6  A    between atoms: C_14  and  C_15
REMARK    7  A    between atoms: N_17  and  C_18
REMARK                            x       y       z     vdW  Elec       q    Type
REMARK                         _______ _______ _______ _____ _____    ______ ____
ROOT
ATOM      1  N   UNL     1       5.435   4.725  17.601  0.00  0.00    +0.000 NA
ATOM      2  C   UNL     1       5.424   4.942  19.068  0.00  0.00    +0.000 C 
ATOM      3  C   UNL     1       4.161   4.386  19.713  0.00  0.00    +0.000 C 
ATOM      4  C   UNL     1       2.893   4.932  19.058  0.00  0.00    +0.000 C 
ATOM      5  C   UNL     1       2.941   4.565  17.568  0.00  0.00    +0.000 C 
ATOM      6  C   UNL     1       4.191   5.114  16.881  0.00  0.00    +0.000 C 
ENDROOT
BRANCH   4   7
ATOM      7  C   UNL     1       2.671   6.441  19.228  0.00  0.00    +0.000 C 
ATOM      8  O   UNL     1       3.192   7.239  18.452  0.00  0.00    +0.000 OA
ATOM      9  N   UNL     1       1.834   6.801  20.273  0.00  0.00    +0.000 N 
ATOM     10  H   UNL     1       1.561   6.082  20.932  0.00  0.00    +0.000 HD
BRANCH   9  11
ATOM     11  C   UNL     1       1.469   8.130  20.606  0.00  0.00    +0.000 A 
ATOM     12  C   UNL     1       1.319   8.574  21.925  0.00  0.00    +0.000 A 
ATOM     13  C   UNL     1       0.887   9.872  22.207  0.00  0.00    +0.000 A 
ATOM     14  C   UNL     1       0.605  10.749  21.165  0.00  0.00    +0.000 A 
ATOM     15  C   UNL     1       0.789  10.328  19.850  0.00  0.00    +0.000 A 
ATOM     16 CL   UNL     1       0.437  11.413  18.559  0.00  0.00    +0.000 Cl
ATOM     17  C   UNL     1       1.237   9.033  19.564  0.00  0.00    +0.000 A 
ENDBRANCH   9  11
ENDBRANCH   4   7
BRANCH   1  18
ATOM     18  S   UNL     1       6.864   5.352  16.846  0.00  0.00    +0.000 S 
ATOM     19  O   UNL     1       8.012   4.717  17.475  0.00  0.00    +0.000 OA
ATOM     20  O   UNL     1       6.751   6.788  16.749  0.00  0.00    +0.000 OA
BRANCH  18  24
ATOM     21  N   UNL     1       6.441   3.725  13.326  0.00  0.00    +0.000 N 
ATOM     22  C   UNL     1       7.237   4.805  13.054  0.00  0.00    +0.000 A 
ATOM     23  N   UNL     1       7.527   5.480  14.145  0.00  0.00    +0.000 NA
ATOM     24  C   UNL     1       6.915   4.786  15.180  0.00  0.00    +0.000 A 
ATOM     25  C   UNL     1       6.269   3.670  14.683  0.00  0.00    +0.000 A 
BRANCH  21  27
ATOM     26  C   UNL     1       4.611   3.624  11.678  0.00  0.00    +0.000 C 
ATOM     27  C   UNL     1       5.757   2.873  12.361  0.00  0.00    +0.000 C 
ATOM     28  C   UNL     1       6.698   2.241  11.338  0.00  0.00    +0.000 C 
ENDBRANCH  21  27
ENDBRANCH  18  24
ENDBRANCH   1  18
TORSDOF 5
ENDMDL
MODEL 5
REMARK VINA RESULT:      -8.0      1.367      1.688
REMARK  Name = 
REMARK  7 active torsions:
REMARK  status: ('A' for Active; 'I' for Inactive)
REMARK    1  A    between atoms: C_1  and  C_2
REMARK    2  A    between atoms: C_2  and  C_3
REMARK    3  A    between atoms: C_2  and  N_4
REMARK    4  A    between atoms: C_7  and  S_8
REMARK    5  A    between atoms: S_8  and  N_11
REMARK    6  A    between atoms: C_14  and  C_15
REMARK    7  A    between atoms: N_17  and  C_18
REMARK                            x       y       z     vdW  Elec       q    Type
REMARK                         _______ _______ _______ _____ _____    ______ ____
ROOT
ATOM      1  N   UNL     1       5.487   4.264  17.074  0.00  0.00    +0.000 NA
ATOM      2  C   UNL     1       5.647   3.917  18.507  0.00  0.00    +0.000 C 
ATOM      3  C   UNL     1       4.417   3.209  19.060  0.00  0.00    +0.000 C 
ATOM      4  C   UNL     1       3.138   4.008  18.818  0.00  0.00    +0.000 C 
ATOM      5  C   UNL     1       2.999   4.223  17.304  0.00  0.00    +0.000 C 
ATOM      6  C   UNL     1       4.212   4.941  16.712  0.00  0.00    +0.000 C 
ENDROOT
BRANCH   4   7
ATOM      7  C   UNL     1       3.060   5.352  19.556  0.00  0.00    +0.000 C 
ATOM      8  O   UNL     1       3.967   5.703  20.308  0.00  0.00    +0.000 OA
ATOM      9  N   UNL     1       1.936   6.114  19.278  0.00  0.00    +0.000 N 
ATOM     10  H   UNL     1       1.188   5.682  18.749  0.00  0.00    +0.000 HD
BRANCH   9  11
ATOM     11  C   UNL     1       1.663   7.394  19.824  0.00  0.00    +0.000 A 
ATOM     12  C   UNL     1       1.286   7.591  21.158  0.00  0.00    +0.000 A 
ATOM     13  C   UNL     1       0.955   8.861  21.635  0.00  0.00    +0.000 A 
ATOM     14  C   UNL     1       1.004   9.956  20.780  0.00  0.00    +0.000 A 
ATOM     15  C   UNL     1       1.416   9.775  19.462  0.00  0.00    +0.000 A 
ATOM     16 CL   UNL     1       1.474  11.132  18.402  0.00  0.00    +0.000 Cl
ATOM     17  C   UNL     1       1.763   8.507  18.984  0.00  0.00    +0.000 A 
ENDBRANCH   9  11
ENDBRANCH   4   7
BRANCH   1  18
ATOM     18  S   UNL     1       6.876   5.073  16.425  0.00  0.00    +0.000 S 
ATOM     19  O   UNL     1       8.058   4.473  17.024  0.00  0.00    +0.000 OA
ATOM     20  O   UNL     1       6.648   6.498  16.463  0.00  0.00    +0.000 OA
BRANCH  18  24
ATOM     21  N   UNL     1       6.588   3.871  12.725  0.00  0.00    +0.000 N 
ATOM     22  C   UNL     1       7.511   4.878  12.633  0.00  0.00    +0.000 A 
ATOM     23  N   UNL     1       7.775   5.401  13.811  0.00  0.00    +0.000 NA
ATOM     24  C   UNL     1       7.009   4.677  14.715  0.00  0.00    +0.000 A 
ATOM     25  C   UNL     1       6.297   3.697  14.051  0.00  0.00    +0.000 A 
BRANCH  21  27
ATOM     26  C   UNL     1       6.370   1.752  11.485  0.00  0.00    +0.000 C 
ATOM     27  C   UNL     1       5.904   3.203  11.625  0.00  0.00    +0.000 C 
ATOM     28  C   UNL     1       4.381   3.294  11.715  0.00  0.00    +0.000 C 
ENDBRANCH  21  27
ENDBRANCH  18  24
ENDBRANCH   1  18
TORSDOF 5
ENDMDL
MODEL 6
REMARK VINA RESULT:      -8.0      1.172      1.493
REMARK  Name = 
REMARK  7 active torsions:
REMARK  status: ('A' for Active; 'I' for Inactive)
REMARK    1  A    between atoms: C_1  and  C_2
REMARK    2  A    between atoms: C_2  and  C_3
REMARK    3  A    between atoms: C_2  and  N_4
REMARK    4  A    between atoms: C_7  and  S_8
REMARK    5  A    between atoms: S_8  and  N_11
REMARK    6  A    between atoms: C_14  and  C_15
REMARK    7  A    between atoms: N_17  and  C_18
REMARK                            x       y       z     vdW  Elec       q    Type
REMARK                         _______ _______ _______ _____ _____    ______ ____
ROOT
ATOM      1  N   UNL     1       5.586   4.541  17.527  0.00  0.00    +0.000 NA
ATOM      2  C   UNL     1       5.572   4.892  18.968  0.00  0.00    +0.000 C 
ATOM      3  C   UNL     1       4.341   4.341  19.675  0.00  0.00    +0.000 C 
ATOM      4  C   UNL     1       3.045   4.764  18.985  0.00  0.00    +0.000 C 
ATOM      5  C   UNL     1       3.102   4.263  17.534  0.00  0.00    +0.000 C 
ATOM      6  C   UNL     1       4.321   4.804  16.787  0.00  0.00    +0.000 C 
ENDROOT
BRANCH   4   7
ATOM      7  C   UNL     1       2.753   6.271  19.017  0.00  0.00    +0.000 C 
ATOM      8  O   UNL     1       3.291   7.027  18.211  0.00  0.00    +0.000 OA
ATOM      9  N   UNL     1       1.836   6.673  19.975  0.00  0.00    +0.000 N 
ATOM     10  H   UNL     1       1.549   5.997  20.672  0.00  0.00    +0.000 HD
BRANCH   9  11
ATOM     11  C   UNL     1       1.397   8.007  20.175  0.00  0.00    +0.000 A 
ATOM     12  C   UNL     1       1.561   9.016  19.218  0.00  0.00    +0.000 A 
ATOM     13  C   UNL     1       1.180  10.334  19.485  0.00  0.00    +0.000 A 
ATOM     14  C   UNL     1       0.621  10.657  20.716  0.00  0.00    +0.000 A 
ATOM     15  C   UNL     1       0.418   9.651  21.658  0.00  0.00    +0.000 A 
ATOM     16 CL   UNL     1      -0.271  10.052  23.185  0.00  0.00    +0.000 Cl
ATOM     17  C   UNL     1       0.784   8.328  21.390  0.00  0.00    +0.000 A 
ENDBRANCH   9  11
ENDBRANCH   4   7
BRANCH   1  18
ATOM     18  S   UNL     1       6.979   5.161  16.703  0.00  0.00    +0.000 S 
ATOM     19  O   UNL     1       8.151   4.493  17.250  0.00  0.00    +0.000 OA
ATOM     20  O   UNL     1       6.887   6.602  16.646  0.00  0.00    +0.000 OA
BRANCH  18  24
ATOM     21  N   UNL     1       6.326   3.620  13.181  0.00  0.00    +0.000 N 
ATOM     22  C   UNL     1       7.112   4.701  12.884  0.00  0.00    +0.000 A 
ATOM     23  N   UNL     1       7.474   5.348  13.970  0.00  0.00    +0.000 NA
ATOM     24  C   UNL     1       6.922   4.634  15.025  0.00  0.00    +0.000 A 
ATOM     25  C   UNL     1       6.238   3.535  14.544  0.00  0.00    +0.000 A 
BRANCH  21  27
ATOM     26  C   UNL     1       4.522   3.622  11.501  0.00  0.00    +0.000 C 
ATOM     27  C   UNL     1       5.576   2.795  12.241  0.00  0.00    +0.000 C 
ATOM     28  C   UNL     1       6.467   2.025  11.268  0.00  0.00    +0.000 C 
ENDBRANCH  21  27
ENDBRANCH  18  24
ENDBRANCH   1  18
TORSDOF 5
ENDMDL
MODEL 7
REMARK VINA RESULT:      -7.5      3.159      8.519
REMARK  Name = 
REMARK  7 active torsions:
REMARK  status: ('A' for Active; 'I' for Inactive)
REMARK    1  A    between atoms: C_1  and  C_2
REMARK    2  A    between atoms: C_2  and  C_3
REMARK    3  A    between atoms: C_2  and  N_4
REMARK    4  A    between atoms: C_7  and  S_8
REMARK    5  A    between atoms: S_8  and  N_11
REMARK    6  A    between atoms: C_14  and  C_15
REMARK    7  A    between atoms: N_17  and  C_18
REMARK                            x       y       z     vdW  Elec       q    Type
REMARK                         _______ _______ _______ _____ _____    ______ ____
ROOT
ATOM      1  N   UNL     1       4.640   5.708  18.216  0.00  0.00    +0.000 NA
ATOM      2  C   UNL     1       5.672   4.659  18.405  0.00  0.00    +0.000 C 
ATOM      3  C   UNL     1       7.014   5.070  17.813  0.00  0.00    +0.000 C 
ATOM      4  C   UNL     1       6.893   5.477  16.346  0.00  0.00    +0.000 C 
ATOM      5  C   UNL     1       5.891   6.638  16.263  0.00  0.00    +0.000 C 
ATOM      6  C   UNL     1       4.526   6.260  16.839  0.00  0.00    +0.000 C 
ENDROOT
BRANCH   4   7
ATOM      7  C   UNL     1       6.482   4.349  15.389  0.00  0.00    +0.000 C 
ATOM      8  O   UNL     1       6.012   3.301  15.826  0.00  0.00    +0.000 OA
ATOM      9  N   UNL     1       6.652   4.628  14.041  0.00  0.00    +0.000 N 
ATOM     10  H   UNL     1       7.166   5.463  13.790  0.00  0.00    +0.000 HD
BRANCH   9  11
ATOM     11  C   UNL     1       6.323   3.748  12.979  0.00  0.00    +0.000 A 
ATOM     12  C   UNL     1       7.258   2.903  12.369  0.00  0.00    +0.000 A 
ATOM     13  C   UNL     1       6.907   2.106  11.277  0.00  0.00    +0.000 A 
ATOM     14  C   UNL     1       5.607   2.140  10.784  0.00  0.00    +0.000 A 
ATOM     15  C   UNL     1       4.661   2.947  11.410  0.00  0.00    +0.000 A 
ATOM     16 CL   UNL     1       3.051   2.991  10.798  0.00  0.00    +0.000 Cl
ATOM     17  C   UNL     1       5.004   3.736  12.514  0.00  0.00    +0.000 A 
ENDBRANCH   9  11
ENDBRANCH   4   7
BRANCH   1  18
ATOM     18  S   UNL     1       3.104   5.259  18.882  0.00  0.00    +0.000 S 
ATOM     19  O   UNL     1       3.351   4.370  20.008  0.00  0.00    +0.000 OA
ATOM     20  O   UNL     1       2.217   4.887  17.804  0.00  0.00    +0.000 OA
BRANCH  18  24
ATOM     21  N   UNL     1       1.436   8.647  19.857  0.00  0.00    +0.000 N 
ATOM     22  C   UNL     1       1.220   7.884  20.973  0.00  0.00    +0.000 A 
ATOM     23  N   UNL     1       1.750   6.686  20.851  0.00  0.00    +0.000 NA
ATOM     24  C   UNL     1       2.367   6.683  19.607  0.00  0.00    +0.000 A 
ATOM     25  C   UNL     1       2.209   7.913  18.999  0.00  0.00    +0.000 A 
BRANCH  21  27
ATOM     26  C   UNL     1       0.241   9.940  18.133  0.00  0.00    +0.000 C 
ATOM     27  C   UNL     1       0.833   9.937  19.545  0.00  0.00    +0.000 C 
ATOM     28  C   UNL     1      -0.193  10.392  20.582  0.00  0.00    +0.000 C 
ENDBRANCH  21  27
ENDBRANCH  18  24
ENDBRANCH   1  18
TORSDOF 5
ENDMDL
MODEL 8
REMARK VINA RESULT:      -7.4      3.169      8.591
REMARK  Name = 
REMARK  7 active torsions:
REMARK  status: ('A' for Active; 'I' for Inactive)
REMARK    1  A    between atoms: C_1  and  C_2
REMARK    2  A    between atoms: C_2  and  C_3
REMARK    3  A    between atoms: C_2  and  N_4
REMARK    4  A    between atoms: C_7  and  S_8
REMARK    5  A    between atoms: S_8  and  N_11
REMARK    6  A    between atoms: C_14  and  C_15
REMARK    7  A    between atoms: N_17  and  C_18
REMARK                            x       y       z     vdW  Elec       q    Type
REMARK                         _______ _______ _______ _____ _____    ______ ____
ROOT
ATOM      1  N   UNL     1       4.720   5.905  18.135  0.00  0.00    +0.000 NA
ATOM      2  C   UNL     1       5.675   4.795  18.373  0.00  0.00    +0.000 C 
ATOM      3  C   UNL     1       7.055   5.103  17.806  0.00  0.00    +0.000 C 
ATOM      4  C   UNL     1       6.996   5.481  16.327  0.00  0.00    +0.000 C 
ATOM      5  C   UNL     1       6.075   6.703  16.193  0.00  0.00    +0.000 C 
ATOM      6  C   UNL     1       4.675   6.430  16.743  0.00  0.00    +0.000 C 
ENDROOT
BRANCH   4   7
ATOM      7  C   UNL     1       6.535   4.360  15.386  0.00  0.00    +0.000 C 
ATOM      8  O   UNL     1       6.046   3.328  15.840  0.00  0.00    +0.000 OA
ATOM      9  N   UNL     1       6.682   4.627  14.034  0.00  0.00    +0.000 N 
ATOM     10  H   UNL     1       7.212   5.447  13.766  0.00  0.00    +0.000 HD
BRANCH   9  11
ATOM     11  C   UNL     1       6.306   3.751  12.984  0.00  0.00    +0.000 A 
ATOM     12  C   UNL     1       7.200   2.864  12.371  0.00  0.00    +0.000 A 
ATOM     13  C   UNL     1       6.805   2.071  11.291  0.00  0.00    +0.000 A 
ATOM     14  C   UNL     1       5.501   2.151  10.814  0.00  0.00    +0.000 A 
ATOM     15  C   UNL     1       4.595   3.001  11.443  0.00  0.00    +0.000 A 
ATOM     16 CL   UNL     1       2.981   3.102  10.849  0.00  0.00    +0.000 Cl
ATOM     17  C   UNL     1       4.982   3.786  12.534  0.00  0.00    +0.000 A 
ENDBRANCH   9  11
ENDBRANCH   4   7
BRANCH   1  18
ATOM     18  S   UNL     1       3.142   5.574  18.772  0.00  0.00    +0.000 S 
ATOM     19  O   UNL     1       3.309   5.053  20.121  0.00  0.00    +0.000 OA
ATOM     20  O   UNL     1       2.375   4.863  17.776  0.00  0.00    +0.000 OA
BRANCH  18  24
ATOM     21  N   UNL     1       1.362   8.844  19.932  0.00  0.00    +0.000 N 
ATOM     22  C   UNL     1       1.608   9.100  18.609  0.00  0.00    +0.000 A 
ATOM     23  N   UNL     1       2.189   8.078  18.019  0.00  0.00    +0.000 NA
ATOM     24  C   UNL     1       2.296   7.100  18.998  0.00  0.00    +0.000 A 
ATOM     25  C   UNL     1       1.748   7.555  20.182  0.00  0.00    +0.000 A 
BRANCH  21  27
ATOM     26  C   UNL     1      -0.446  10.383  20.594  0.00  0.00    +0.000 C 
ATOM     27  C   UNL     1       0.924   9.798  20.944  0.00  0.00    +0.000 C 
ATOM     28  C   UNL     1       0.942   9.227  22.360  0.00  0.00    +0.000 C 
ENDBRANCH  21  27
ENDBRANCH  18  24
ENDBRANCH   1  18
TORSDOF 5
ENDMDL
MODEL 9
REMARK VINA RESULT:      -7.4      2.851      4.872
REMARK  Name = 
REMARK  7 active torsions:
REMARK  status: ('A' for Active; 'I' for Inactive)
REMARK    1  A    between atoms: C_1  and  C_2
REMARK    2  A    between atoms: C_2  and  C_3
REMARK    3  A    between atoms: C_2  and  N_4
REMARK    4  A    between atoms: C_7  and  S_8
REMARK    5  A    between atoms: S_8  and  N_11
REMARK    6  A    between atoms: C_14  and  C_15
REMARK    7  A    between atoms: N_17  and  C_18
REMARK                            x       y       z     vdW  Elec       q    Type
REMARK                         _______ _______ _______ _____ _____    ______ ____
ROOT
ATOM      1  N   UNL     1       5.798   4.938  17.419  0.00  0.00    +0.000 NA
ATOM      2  C   UNL     1       5.653   5.389  18.825  0.00  0.00    +0.000 C 
ATOM      3  C   UNL     1       4.930   4.357  19.680  0.00  0.00    +0.000 C 
ATOM      4  C   UNL     1       3.583   3.956  19.080  0.00  0.00    +0.000 C 
ATOM      5  C   UNL     1       3.844   3.400  17.672  0.00  0.00    +0.000 C 
ATOM      6  C   UNL     1       4.561   4.413  16.779  0.00  0.00    +0.000 C 
ENDROOT
BRANCH   4   7
ATOM      7  C   UNL     1       2.536   5.077  19.024  0.00  0.00    +0.000 C 
ATOM      8  O   UNL     1       1.454   4.892  18.472  0.00  0.00    +0.000 OA
ATOM      9  N   UNL     1       2.898   6.255  19.659  0.00  0.00    +0.000 N 
ATOM     10  H   UNL     1       3.857   6.352  19.970  0.00  0.00    +0.000 HD
BRANCH   9  11
ATOM     11  C   UNL     1       2.086   7.413  19.755  0.00  0.00    +0.000 A 
ATOM     12  C   UNL     1       1.978   8.357  18.726  0.00  0.00    +0.000 A 
ATOM     13  C   UNL     1       1.224   9.522  18.890  0.00  0.00    +0.000 A 
ATOM     14  C   UNL     1       0.559   9.753  20.089  0.00  0.00    +0.000 A 
ATOM     15  C   UNL     1       0.629   8.800  21.102  0.00  0.00    +0.000 A 
ATOM     16 CL   UNL     1      -0.193   9.088  22.589  0.00  0.00    +0.000 Cl
ATOM     17  C   UNL     1       1.371   7.625  20.937  0.00  0.00    +0.000 A 
ENDBRANCH   9  11
ENDBRANCH   4   7
BRANCH   1  18
ATOM     18  S   UNL     1       6.618   6.100  16.428  0.00  0.00    +0.000 S 
ATOM     19  O   UNL     1       5.614   6.992  15.869  0.00  0.00    +0.000 OA
ATOM     20  O   UNL     1       7.570   5.411  15.589  0.00  0.00    +0.000 OA
BRANCH  18  24
ATOM     21  N   UNL     1       8.468   8.909  18.404  0.00  0.00    +0.000 N 
ATOM     22  C   UNL     1       8.671   7.812  19.198  0.00  0.00    +0.000 A 
ATOM     23  N   UNL     1       8.138   6.730  18.673  0.00  0.00    +0.000 NA
ATOM     24  C   UNL     1       7.590   7.138  17.465  0.00  0.00    +0.000 A 
ATOM     25  C   UNL     1       7.825   8.485  17.272  0.00  0.00    +0.000 A 
BRANCH  21  27
ATOM     26  C   UNL     1       9.302  10.423  20.160  0.00  0.00    +0.000 C 
ATOM     27  C   UNL     1       8.729  10.301  18.746  0.00  0.00    +0.000 C 
ATOM     28  C   UNL     1       9.608  11.021  17.724  0.00  0.00    +0.000 C 
ENDBRANCH  21  27
ENDBRANCH  18  24
ENDBRANCH   1  18
TORSDOF 5
ENDMDL
