MODEL 1
REMARK VINA RESULT:      -7.8      0.000      0.000
REMARK  Name = 
REMARK  9 active torsions:
REMARK  status: ('A' for Active; 'I' for Inactive)
REMARK    1  A    between atoms: C_1  and  O_2
REMARK    2  A    between atoms: O_2  and  C_3
REMARK    3  A    between atoms: C_3  and  C_4
REMARK    4  A    between atoms: C_4  and  N_5
REMARK    5  A    between atoms: N_5  and  C_6
REMARK    6  A    between atoms: C_13  and  C_14
REMARK    7  A    between atoms: C_17  and  C_18
REMARK    8  A    between atoms: N_20  and  C_21
REMARK    9  A    between atoms: N_20  and  C_22
REMARK                            x       y       z     vdW  Elec       q    Type
REMARK                         _______ _______ _______ _____ _____    ______ ____
ROOT
ATOM      1  C   UNL     1       6.034   6.204  16.616  0.00  0.00    +0.000 A 
ATOM      2  N   UNL     1       6.693   5.161  16.081  0.00  0.00    +0.000 NA
ATOM      3  C   UNL     1       6.082   3.974  16.115  0.00  0.00    +0.000 A 
ATOM      4  N   UNL     1       4.862   3.725  16.599  0.00  0.00    +0.000 NA
ATOM      5  C   UNL     1       4.208   4.766  17.124  0.00  0.00    +0.000 A 
ATOM      6  C   UNL     1       2.934   4.558  17.636  0.00  0.00    +0.000 A 
ATOM      7  C   UNL     1       2.175   5.595  18.191  0.00  0.00    +0.000 A 
ATOM      8  C   UNL     1       2.687   6.894  18.265  0.00  0.00    +0.000 A 
ATOM      9  C   UNL     1       3.986   7.095  17.770  0.00  0.00    +0.000 A 
ATOM     10  C   UNL     1       4.753   6.054  17.185  0.00  0.00    +0.000 A 
ENDROOT
BRANCH   8  11
ATOM     11  C   UNL     1       1.921   8.017  18.842  0.00  0.00    +0.000 A 
ATOM     12  C   UNL     1       1.625   8.081  20.210  0.00  0.00    +0.000 A 
ATOM     13  C   UNL     1       0.959   9.190  20.751  0.00  0.00    +0.000 A 
ATOM     14  C   UNL     1       0.584  10.283  19.950  0.00  0.00    +0.000 A 
ATOM     15  C   UNL     1       0.913  10.241  18.598  0.00  0.00    +0.000 A 
ATOM     16  C   UNL     1       1.522   9.105  18.046  0.00  0.00    +0.000 A 
BRANCH  14  17
ATOM     17  C   UNL     1       0.000  11.467  20.648  0.00  0.00    +0.000 C 
ATOM     18  O   UNL     1      -1.203  11.382  20.912  0.00  0.00    +0.000 OA
ATOM     19  N   UNL     1       0.728  12.617  20.993  0.00  0.00    +0.000 N 
ATOM     20  C   UNL     1       2.053  13.006  20.536  0.00  0.00    +0.000 C 
ATOM     21  C   UNL     1      -0.032  13.714  21.587  0.00  0.00    +0.000 C 
ENDBRANCH  14  17
ENDBRANCH   8  11
BRANCH   1  22
ATOM     22  N   UNL     1       6.706   7.440  16.696  0.00  0.00    +0.000 N 
ATOM     23  H   UNL     1       7.154   7.676  15.814  0.00  0.00    +0.000 HD
BRANCH  22  24
ATOM     24  C   UNL     1       7.737   7.536  17.740  0.00  0.00    +0.000 C 
BRANCH  24  25
ATOM     25  C   UNL     1       8.174   9.003  17.890  0.00  0.00    +0.000 C 
BRANCH  25  27
ATOM     26  C   UNL     1       9.398  10.449  19.308  0.00  0.00    +0.000 C 
ATOM     27  O   UNL     1       8.954   9.117  19.092  0.00  0.00    +0.000 OA
ENDBRANCH  25  27
ENDBRANCH  24  25
ENDBRANCH  22  24
ENDBRANCH   1  22
TORSDOF 6
ENDMDL
MODEL 2
REMARK VINA RESULT:      -7.7      2.149      3.071
REMARK  Name = 
REMARK  9 active torsions:
REMARK  status: ('A' for Active; 'I' for Inactive)
REMARK    1  A    between atoms: C_1  and  O_2
REMARK    2  A    between atoms: O_2  and  C_3
REMARK    3  A    between atoms: C_3  and  C_4
REMARK    4  A    between atoms: C_4  and  N_5
REMARK    5  A    between atoms: N_5  and  C_6
REMARK    6  A    between atoms: C_13  and  C_14
REMARK    7  A    between atoms: C_17  and  C_18
REMARK    8  A    between atoms: N_20  and  C_21
REMARK    9  A    between atoms: N_20  and  C_22
REMARK                            x       y       z     vdW  Elec       q    Type
REMARK                         _______ _______ _______ _____ _____    ______ ____
ROOT
ATOM      1  C   UNL     1       4.055   3.917  17.642  0.00  0.00    +0.000 A 
ATOM      2  N   UNL     1       4.341   2.615  17.809  0.00  0.00    +0.000 NA
ATOM      3  C   UNL     1       3.886   2.030  18.920  0.00  0.00    +0.000 A 
ATOM      4  N   UNL     1       3.143   2.606  19.870  0.00  0.00    +0.000 NA
ATOM      5  C   UNL     1       2.856   3.899  19.696  0.00  0.00    +0.000 A 
ATOM      6  C   UNL     1       2.081   4.540  20.654  0.00  0.00    +0.000 A 
ATOM      7  C   UNL     1       1.724   5.889  20.543  0.00  0.00    +0.000 A 
ATOM      8  C   UNL     1       2.153   6.654  19.455  0.00  0.00    +0.000 A 
ATOM      9  C   UNL     1       2.957   6.010  18.501  0.00  0.00    +0.000 A 
ATOM     10  C   UNL     1       3.305   4.636  18.594  0.00  0.00    +0.000 A 
ENDROOT
BRANCH   8  11
ATOM     11  C   UNL     1       1.798   8.080  19.299  0.00  0.00    +0.000 A 
ATOM     12  C   UNL     1       1.182   8.802  20.328  0.00  0.00    +0.000 A 
ATOM     13  C   UNL     1       0.919  10.173  20.188  0.00  0.00    +0.000 A 
ATOM     14  C   UNL     1       1.281  10.874  19.024  0.00  0.00    +0.000 A 
ATOM     15  C   UNL     1       1.930  10.167  18.016  0.00  0.00    +0.000 A 
ATOM     16  C   UNL     1       2.137   8.785  18.131  0.00  0.00    +0.000 A 
BRANCH  14  17
ATOM     17  C   UNL     1       1.076  12.353  19.031  0.00  0.00    +0.000 C 
ATOM     18  O   UNL     1       2.000  13.011  19.520  0.00  0.00    +0.000 OA
ATOM     19  N   UNL     1      -0.070  12.993  18.532  0.00  0.00    +0.000 N 
ATOM     20  C   UNL     1      -1.345  12.389  18.175  0.00  0.00    +0.000 C 
ATOM     21  C   UNL     1      -0.136  14.440  18.709  0.00  0.00    +0.000 C 
ENDBRANCH  14  17
ENDBRANCH   8  11
BRANCH   1  22
ATOM     22  N   UNL     1       4.623   4.583  16.537  0.00  0.00    +0.000 N 
ATOM     23  H   UNL     1       3.975   4.620  15.754  0.00  0.00    +0.000 HD
BRANCH  22  24
ATOM     24  C   UNL     1       5.878   4.012  16.027  0.00  0.00    +0.000 C 
BRANCH  24  25
ATOM     25  C   UNL     1       7.063   4.619  16.798  0.00  0.00    +0.000 C 
BRANCH  25  27
ATOM     26  C   UNL     1       7.339   6.925  17.252  0.00  0.00    +0.000 C 
ATOM     27  O   UNL     1       7.335   5.919  16.249  0.00  0.00    +0.000 OA
ENDBRANCH  25  27
ENDBRANCH  24  25
ENDBRANCH  22  24
ENDBRANCH   1  22
TORSDOF 6
ENDMDL
MODEL 3
REMARK VINA RESULT:      -7.7      3.406      5.124
REMARK  Name = 
REMARK  9 active torsions:
REMARK  status: ('A' for Active; 'I' for Inactive)
REMARK    1  A    between atoms: C_1  and  O_2
REMARK    2  A    between atoms: O_2  and  C_3
REMARK    3  A    between atoms: C_3  and  C_4
REMARK    4  A    between atoms: C_4  and  N_5
REMARK    5  A    between atoms: N_5  and  C_6
REMARK    6  A    between atoms: C_13  and  C_14
REMARK    7  A    between atoms: C_17  and  C_18
REMARK    8  A    between atoms: N_20  and  C_21
REMARK    9  A    between atoms: N_20  and  C_22
REMARK                            x       y       z     vdW  Elec       q    Type
REMARK                         _______ _______ _______ _____ _____    ______ ____
ROOT
ATOM      1  C   UNL     1       2.986   5.603  19.867  0.00  0.00    +0.000 A 
ATOM      2  N   UNL     1       3.829   4.905  19.088  0.00  0.00    +0.000 NA
ATOM      3  C   UNL     1       4.164   5.449  17.915  0.00  0.00    +0.000 A 
ATOM      4  N   UNL     1       3.770   6.639  17.453  0.00  0.00    +0.000 NA
ATOM      5  C   UNL     1       2.937   7.333  18.234  0.00  0.00    +0.000 A 
ATOM      6  C   UNL     1       2.503   8.578  17.799  0.00  0.00    +0.000 A 
ATOM      7  C   UNL     1       1.641   9.375  18.562  0.00  0.00    +0.000 A 
ATOM      8  C   UNL     1       1.168   8.933  19.800  0.00  0.00    +0.000 A 
ATOM      9  C   UNL     1       1.587   7.662  20.225  0.00  0.00    +0.000 A 
ATOM     10  C   UNL     1       2.480   6.857  19.469  0.00  0.00    +0.000 A 
ENDROOT
BRANCH   8  11
ATOM     11  C   UNL     1       0.258   9.742  20.636  0.00  0.00    +0.000 A 
ATOM     12  C   UNL     1       0.205   9.590  22.028  0.00  0.00    +0.000 A 
ATOM     13  C   UNL     1      -0.612  10.417  22.812  0.00  0.00    +0.000 A 
ATOM     14  C   UNL     1      -1.389  11.439  22.236  0.00  0.00    +0.000 A 
ATOM     15  C   UNL     1      -1.308  11.618  20.859  0.00  0.00    +0.000 A 
ATOM     16  C   UNL     1      -0.540  10.751  20.069  0.00  0.00    +0.000 A 
BRANCH  14  17
ATOM     17  C   UNL     1      -2.120  12.345  23.172  0.00  0.00    +0.000 C 
ATOM     18  O   UNL     1      -3.177  11.893  23.625  0.00  0.00    +0.000 OA
ATOM     19  N   UNL     1      -1.677  13.626  23.535  0.00  0.00    +0.000 N 
ATOM     20  C   UNL     1      -0.626  14.417  22.913  0.00  0.00    +0.000 C 
ATOM     21  C   UNL     1      -2.570  14.406  24.387  0.00  0.00    +0.000 C 
ENDBRANCH  14  17
ENDBRANCH   8  11
BRANCH   1  22
ATOM     22  N   UNL     1       2.528   4.998  21.054  0.00  0.00    +0.000 N 
ATOM     23  H   UNL     1       3.273   4.487  21.521  0.00  0.00    +0.000 HD
BRANCH  22  24
ATOM     24  C   UNL     1       1.402   4.065  20.898  0.00  0.00    +0.000 C 
BRANCH  24  25
ATOM     25  C   UNL     1       1.911   2.623  21.055  0.00  0.00    +0.000 C 
BRANCH  25  27
ATOM     26  C   UNL     1       0.947   2.640  18.893  0.00  0.00    +0.000 C 
ATOM     27  O   UNL     1       1.854   1.985  19.768  0.00  0.00    +0.000 OA
ENDBRANCH  25  27
ENDBRANCH  24  25
ENDBRANCH  22  24
ENDBRANCH   1  22
TORSDOF 6
ENDMDL
MODEL 4
REMARK VINA RESULT:      -7.7      1.941      2.939
REMARK  Name = 
REMARK  9 active torsions:
REMARK  status: ('A' for Active; 'I' for Inactive)
REMARK    1  A    between atoms: C_1  and  O_2
REMARK    2  A    between atoms: O_2  and  C_3
REMARK    3  A    between atoms: C_3  and  C_4
REMARK    4  A    between atoms: C_4  and  N_5
REMARK    5  A    between atoms: N_5  and  C_6
REMARK    6  A    between atoms: C_13  and  C_14
REMARK    7  A    between atoms: C_17  and  C_18
REMARK    8  A    between atoms: N_20  and  C_21
REMARK    9  A    between atoms: N_20  and  C_22
REMARK                            x       y       z     vdW  Elec       q    Type
REMARK                         _______ _______ _______ _____ _____    ______ ____
ROOT
ATOM      1  C   UNL     1       3.990   3.896  17.663  0.00  0.00    +0.000 A 
ATOM      2  N   UNL     1       4.260   2.585  17.789  0.00  0.00    +0.000 NA
ATOM      3  C   UNL     1       3.801   1.973  18.885  0.00  0.00    +0.000 A 
ATOM      4  N   UNL     1       3.070   2.530  19.854  0.00  0.00    +0.000 NA
ATOM      5  C   UNL     1       2.800   3.831  19.722  0.00  0.00    +0.000 A 
ATOM      6  C   UNL     1       2.037   4.453  20.702  0.00  0.00    +0.000 A 
ATOM      7  C   UNL     1       1.698   5.809  20.633  0.00  0.00    +0.000 A 
ATOM      8  C   UNL     1       2.132   6.601  19.566  0.00  0.00    +0.000 A 
ATOM      9  C   UNL     1       2.924   5.975  18.590  0.00  0.00    +0.000 A 
ATOM     10  C   UNL     1       3.254   4.595  18.640  0.00  0.00    +0.000 A 
ENDROOT
BRANCH   8  11
ATOM     11  C   UNL     1       1.795   8.035  19.455  0.00  0.00    +0.000 A 
ATOM     12  C   UNL     1       1.939   8.734  18.250  0.00  0.00    +0.000 A 
ATOM     13  C   UNL     1       1.547  10.076  18.145  0.00  0.00    +0.000 A 
ATOM     14  C   UNL     1       0.977  10.761  19.233  0.00  0.00    +0.000 A 
ATOM     15  C   UNL     1       0.795  10.057  20.420  0.00  0.00    +0.000 A 
ATOM     16  C   UNL     1       1.245   8.735  20.543  0.00  0.00    +0.000 A 
BRANCH  14  17
ATOM     17  C   UNL     1       0.473  12.144  18.977  0.00  0.00    +0.000 C 
ATOM     18  O   UNL     1      -0.634  12.209  18.434  0.00  0.00    +0.000 OA
ATOM     19  N   UNL     1       1.176  13.313  19.309  0.00  0.00    +0.000 N 
ATOM     20  C   UNL     1       2.573  13.435  19.695  0.00  0.00    +0.000 C 
ATOM     21  C   UNL     1       0.569  14.575  18.897  0.00  0.00    +0.000 C 
ENDBRANCH  14  17
ENDBRANCH   8  11
BRANCH   1  22
ATOM     22  N   UNL     1       4.562   4.587  16.576  0.00  0.00    +0.000 N 
ATOM     23  H   UNL     1       4.031   4.437  15.721  0.00  0.00    +0.000 HD
BRANCH  22  24
ATOM     24  C   UNL     1       5.962   4.252  16.275  0.00  0.00    +0.000 C 
BRANCH  24  25
ATOM     25  C   UNL     1       6.885   4.997  17.255  0.00  0.00    +0.000 C 
BRANCH  25  27
ATOM     26  C   UNL     1       7.466   7.284  17.431  0.00  0.00    +0.000 C 
ATOM     27  O   UNL     1       7.418   6.148  16.579  0.00  0.00    +0.000 OA
ENDBRANCH  25  27
ENDBRANCH  24  25
ENDBRANCH  22  24
ENDBRANCH   1  22
TORSDOF 6
ENDMDL
MODEL 5
REMARK VINA RESULT:      -7.7      2.292      3.319
REMARK  Name = 
REMARK  9 active torsions:
REMARK  status: ('A' for Active; 'I' for Inactive)
REMARK    1  A    between atoms: C_1  and  O_2
REMARK    2  A    between atoms: O_2  and  C_3
REMARK    3  A    between atoms: C_3  and  C_4
REMARK    4  A    between atoms: C_4  and  N_5
REMARK    5  A    between atoms: N_5  and  C_6
REMARK    6  A    between atoms: C_13  and  C_14
REMARK    7  A    between atoms: C_17  and  C_18
REMARK    8  A    between atoms: N_20  and  C_21
REMARK    9  A    between atoms: N_20  and  C_22
REMARK                            x       y       z     vdW  Elec       q    Type
REMARK                         _______ _______ _______ _____ _____    ______ ____
ROOT
ATOM      1  C   UNL     1       3.803   3.392  17.461  0.00  0.00    +0.000 A 
ATOM      2  N   UNL     1       3.990   2.065  17.569  0.00  0.00    +0.000 NA
ATOM      3  C   UNL     1       3.553   1.479  18.686  0.00  0.00    +0.000 A 
ATOM      4  N   UNL     1       2.915   2.077  19.696  0.00  0.00    +0.000 NA
ATOM      5  C   UNL     1       2.726   3.394  19.582  0.00  0.00    +0.000 A 
ATOM      6  C   UNL     1       2.062   4.060  20.605  0.00  0.00    +0.000 A 
ATOM      7  C   UNL     1       1.811   5.436  20.559  0.00  0.00    +0.000 A 
ATOM      8  C   UNL     1       2.238   6.204  19.471  0.00  0.00    +0.000 A 
ATOM      9  C   UNL     1       2.931   5.532  18.451  0.00  0.00    +0.000 A 
ATOM     10  C   UNL     1       3.170   4.133  18.479  0.00  0.00    +0.000 A 
ENDROOT
BRANCH   8  11
ATOM     11  C   UNL     1       1.993   7.658  19.382  0.00  0.00    +0.000 A 
ATOM     12  C   UNL     1       2.200   8.368  18.193  0.00  0.00    +0.000 A 
ATOM     13  C   UNL     1       1.893   9.734  18.108  0.00  0.00    +0.000 A 
ATOM     14  C   UNL     1       1.349  10.433  19.201  0.00  0.00    +0.000 A 
ATOM     15  C   UNL     1       1.105   9.720  20.371  0.00  0.00    +0.000 A 
ATOM     16  C   UNL     1       1.470   8.370  20.475  0.00  0.00    +0.000 A 
BRANCH  14  17
ATOM     17  C   UNL     1       0.937  11.849  18.963  0.00  0.00    +0.000 C 
ATOM     18  O   UNL     1       1.805  12.696  19.195  0.00  0.00    +0.000 OA
ATOM     19  N   UNL     1      -0.336  12.235  18.515  0.00  0.00    +0.000 N 
ATOM     20  C   UNL     1      -1.543  11.425  18.450  0.00  0.00    +0.000 C 
ATOM     21  C   UNL     1      -0.589  13.670  18.430  0.00  0.00    +0.000 C 
ENDBRANCH  14  17
ENDBRANCH   8  11
BRANCH   1  22
ATOM     22  N   UNL     1       4.359   4.050  16.346  0.00  0.00    +0.000 N 
ATOM     23  H   UNL     1       4.124   3.573  15.479  0.00  0.00    +0.000 HD
BRANCH  22  24
ATOM     24  C   UNL     1       5.821   4.208  16.365  0.00  0.00    +0.000 C 
BRANCH  24  25
ATOM     25  C   UNL     1       6.204   5.487  15.601  0.00  0.00    +0.000 C 
BRANCH  25  27
ATOM     26  C   UNL     1       7.265   6.534  17.440  0.00  0.00    +0.000 C 
ATOM     27  O   UNL     1       7.441   5.979  16.144  0.00  0.00    +0.000 OA
ENDBRANCH  25  27
ENDBRANCH  24  25
ENDBRANCH  22  24
ENDBRANCH   1  22
TORSDOF 6
ENDMDL
MODEL 6
REMARK VINA RESULT:      -7.7      3.422      5.345
REMARK  Name = 
REMARK  9 active torsions:
REMARK  status: ('A' for Active; 'I' for Inactive)
REMARK    1  A    between atoms: C_1  and  O_2
REMARK    2  A    between atoms: O_2  and  C_3
REMARK    3  A    between atoms: C_3  and  C_4
REMARK    4  A    between atoms: C_4  and  N_5
REMARK    5  A    between atoms: N_5  and  C_6
REMARK    6  A    between atoms: C_13  and  C_14
REMARK    7  A    between atoms: C_17  and  C_18
REMARK    8  A    between atoms: N_20  and  C_21
REMARK    9  A    between atoms: N_20  and  C_22
REMARK                            x       y       z     vdW  Elec       q    Type
REMARK                         _______ _______ _______ _____ _____    ______ ____
ROOT
ATOM      1  C   UNL     1       2.786   6.046  19.821  0.00  0.00    +0.000 A 
ATOM      2  N   UNL     1       3.549   5.343  18.968  0.00  0.00    +0.000 NA
ATOM      3  C   UNL     1       3.788   5.891  17.773  0.00  0.00    +0.000 A 
ATOM      4  N   UNL     1       3.371   7.088  17.354  0.00  0.00    +0.000 NA
ATOM      5  C   UNL     1       2.617   7.786  18.208  0.00  0.00    +0.000 A 
ATOM      6  C   UNL     1       2.164   9.040  17.819  0.00  0.00    +0.000 A 
ATOM      7  C   UNL     1       1.381   9.843  18.657  0.00  0.00    +0.000 A 
ATOM      8  C   UNL     1       1.011   9.398  19.930  0.00  0.00    +0.000 A 
ATOM      9  C   UNL     1       1.450   8.119  20.310  0.00  0.00    +0.000 A 
ATOM     10  C   UNL     1       2.263   7.309  19.475  0.00  0.00    +0.000 A 
ENDROOT
BRANCH   8  11
ATOM     11  C   UNL     1       0.187  10.212  20.846  0.00  0.00    +0.000 A 
ATOM     12  C   UNL     1      -0.489  11.358  20.407  0.00  0.00    +0.000 A 
ATOM     13  C   UNL     1      -1.324  12.078  21.274  0.00  0.00    +0.000 A 
ATOM     14  C   UNL     1      -1.531  11.666  22.603  0.00  0.00    +0.000 A 
ATOM     15  C   UNL     1      -0.893  10.506  23.030  0.00  0.00    +0.000 A 
ATOM     16  C   UNL     1      -0.009   9.823  22.182  0.00  0.00    +0.000 A 
BRANCH  14  17
ATOM     17  C   UNL     1      -2.540  12.426  23.400  0.00  0.00    +0.000 C 
ATOM     18  O   UNL     1      -3.640  11.877  23.517  0.00  0.00    +0.000 OA
ATOM     19  N   UNL     1      -2.301  13.678  23.987  0.00  0.00    +0.000 N 
ATOM     20  C   UNL     1      -1.188  14.583  23.738  0.00  0.00    +0.000 C 
ATOM     21  C   UNL     1      -3.435  14.314  24.649  0.00  0.00    +0.000 C 
ENDBRANCH  14  17
ENDBRANCH   8  11
BRANCH   1  22
ATOM     22  N   UNL     1       2.424   5.438  21.040  0.00  0.00    +0.000 N 
ATOM     23  H   UNL     1       3.242   5.114  21.549  0.00  0.00    +0.000 HD
BRANCH  22  24
ATOM     24  C   UNL     1       1.506   4.295  20.932  0.00  0.00    +0.000 C 
BRANCH  24  25
ATOM     25  C   UNL     1       2.193   3.037  21.488  0.00  0.00    +0.000 C 
BRANCH  25  27
ATOM     26  C   UNL     1       1.833   2.124  19.334  0.00  0.00    +0.000 C 
ATOM     27  O   UNL     1       2.768   2.316  20.385  0.00  0.00    +0.000 OA
ENDBRANCH  25  27
ENDBRANCH  24  25
ENDBRANCH  22  24
ENDBRANCH   1  22
TORSDOF 6
ENDMDL
MODEL 7
REMARK VINA RESULT:      -7.7      1.063      1.644
REMARK  Name = 
REMARK  9 active torsions:
REMARK  status: ('A' for Active; 'I' for Inactive)
REMARK    1  A    between atoms: C_1  and  O_2
REMARK    2  A    between atoms: O_2  and  C_3
REMARK    3  A    between atoms: C_3  and  C_4
REMARK    4  A    between atoms: C_4  and  N_5
REMARK    5  A    between atoms: N_5  and  C_6
REMARK    6  A    between atoms: C_13  and  C_14
REMARK    7  A    between atoms: C_17  and  C_18
REMARK    8  A    between atoms: N_20  and  C_21
REMARK    9  A    between atoms: N_20  and  C_22
REMARK                            x       y       z     vdW  Elec       q    Type
REMARK                         _______ _______ _______ _____ _____    ______ ____
ROOT
ATOM      1  C   UNL     1       6.124   6.232  16.654  0.00  0.00    +0.000 A 
ATOM      2  N   UNL     1       6.772   5.169  16.146  0.00  0.00    +0.000 NA
ATOM      3  C   UNL     1       6.143   3.992  16.200  0.00  0.00    +0.000 A 
ATOM      4  N   UNL     1       4.915   3.772  16.679  0.00  0.00    +0.000 NA
ATOM      5  C   UNL     1       4.273   4.832  17.176  0.00  0.00    +0.000 A 
ATOM      6  C   UNL     1       2.992   4.654  17.681  0.00  0.00    +0.000 A 
ATOM      7  C   UNL     1       2.244   5.714  18.209  0.00  0.00    +0.000 A 
ATOM      8  C   UNL     1       2.775   7.006  18.260  0.00  0.00    +0.000 A 
ATOM      9  C   UNL     1       4.081   7.177  17.773  0.00  0.00    +0.000 A 
ATOM     10  C   UNL     1       4.837   6.113  17.215  0.00  0.00    +0.000 A 
ENDROOT
BRANCH   8  11
ATOM     11  C   UNL     1       2.021   8.151  18.808  0.00  0.00    +0.000 A 
ATOM     12  C   UNL     1       1.673   9.252  18.014  0.00  0.00    +0.000 A 
ATOM     13  C   UNL     1       0.894  10.296  18.533  0.00  0.00    +0.000 A 
ATOM     14  C   UNL     1       0.418  10.269  19.856  0.00  0.00    +0.000 A 
ATOM     15  C   UNL     1       0.729   9.158  20.635  0.00  0.00    +0.000 A 
ATOM     16  C   UNL     1       1.559   8.144  20.135  0.00  0.00    +0.000 A 
BRANCH  14  17
ATOM     17  C   UNL     1      -0.510  11.364  20.267  0.00  0.00    +0.000 C 
ATOM     18  O   UNL     1      -0.197  11.959  21.304  0.00  0.00    +0.000 OA
ATOM     19  N   UNL     1      -1.667  11.724  19.559  0.00  0.00    +0.000 N 
ATOM     20  C   UNL     1      -2.329  10.984  18.495  0.00  0.00    +0.000 C 
ATOM     21  C   UNL     1      -2.504  12.757  20.162  0.00  0.00    +0.000 C 
ENDBRANCH  14  17
ENDBRANCH   8  11
BRANCH   1  22
ATOM     22  N   UNL     1       6.814   7.459  16.715  0.00  0.00    +0.000 N 
ATOM     23  H   UNL     1       7.311   7.648  15.847  0.00  0.00    +0.000 HD
BRANCH  22  24
ATOM     24  C   UNL     1       7.792   7.585  17.805  0.00  0.00    +0.000 C 
BRANCH  24  25
ATOM     25  C   UNL     1       8.231   9.054  17.927  0.00  0.00    +0.000 C 
BRANCH  25  27
ATOM     26  C   UNL     1       9.396  10.540  19.355  0.00  0.00    +0.000 C 
ATOM     27  O   UNL     1       8.930   9.211  19.174  0.00  0.00    +0.000 OA
ENDBRANCH  25  27
ENDBRANCH  24  25
ENDBRANCH  22  24
ENDBRANCH   1  22
TORSDOF 6
ENDMDL
MODEL 8
REMARK VINA RESULT:      -7.7      2.618      3.516
REMARK  Name = 
REMARK  9 active torsions:
REMARK  status: ('A' for Active; 'I' for Inactive)
REMARK    1  A    between atoms: C_1  and  O_2
REMARK    2  A    between atoms: O_2  and  C_3
REMARK    3  A    between atoms: C_3  and  C_4
REMARK    4  A    between atoms: C_4  and  N_5
REMARK    5  A    between atoms: N_5  and  C_6
REMARK    6  A    between atoms: C_13  and  C_14
REMARK    7  A    between atoms: C_17  and  C_18
REMARK    8  A    between atoms: N_20  and  C_21
REMARK    9  A    between atoms: N_20  and  C_22
REMARK                            x       y       z     vdW  Elec       q    Type
REMARK                         _______ _______ _______ _____ _____    ______ ____
ROOT
ATOM      1  C   UNL     1       4.923   4.143  19.166  0.00  0.00    +0.000 A 
ATOM      2  N   UNL     1       5.230   2.858  19.410  0.00  0.00    +0.000 NA
ATOM      3  C   UNL     1       4.362   2.154  20.142  0.00  0.00    +0.000 A 
ATOM      4  N   UNL     1       3.198   2.593  20.628  0.00  0.00    +0.000 NA
ATOM      5  C   UNL     1       2.894   3.870  20.377  0.00  0.00    +0.000 A 
ATOM      6  C   UNL     1       1.691   4.371  20.858  0.00  0.00    +0.000 A 
ATOM      7  C   UNL     1       1.289   5.692  20.629  0.00  0.00    +0.000 A 
ATOM      8  C   UNL     1       2.104   6.572  19.910  0.00  0.00    +0.000 A 
ATOM      9  C   UNL     1       3.331   6.069  19.448  0.00  0.00    +0.000 A 
ATOM     10  C   UNL     1       3.735   4.724  19.656  0.00  0.00    +0.000 A 
ENDROOT
BRANCH   8  11
ATOM     11  C   UNL     1       1.718   7.973  19.646  0.00  0.00    +0.000 A 
ATOM     12  C   UNL     1       1.139   8.777  20.636  0.00  0.00    +0.000 A 
ATOM     13  C   UNL     1       0.847  10.125  20.388  0.00  0.00    +0.000 A 
ATOM     14  C   UNL     1       1.141  10.724  19.149  0.00  0.00    +0.000 A 
ATOM     15  C   UNL     1       1.753   9.939  18.178  0.00  0.00    +0.000 A 
ATOM     16  C   UNL     1       1.988   8.575  18.405  0.00  0.00    +0.000 A 
BRANCH  14  17
ATOM     17  C   UNL     1       0.911  12.195  19.035  0.00  0.00    +0.000 C 
ATOM     18  O   UNL     1       1.824  12.906  19.466  0.00  0.00    +0.000 OA
ATOM     19  N   UNL     1      -0.246  12.773  18.488  0.00  0.00    +0.000 N 
ATOM     20  C   UNL     1      -1.511  12.121  18.185  0.00  0.00    +0.000 C 
ATOM     21  C   UNL     1      -0.336  14.228  18.545  0.00  0.00    +0.000 C 
ENDBRANCH  14  17
ENDBRANCH   8  11
BRANCH   1  22
ATOM     22  N   UNL     1       5.877   4.936  18.497  0.00  0.00    +0.000 N 
ATOM     23  H   UNL     1       5.823   5.908  18.793  0.00  0.00    +0.000 HD
BRANCH  22  24
ATOM     24  C   UNL     1       5.792   4.930  17.029  0.00  0.00    +0.000 C 
BRANCH  24  25
ATOM     25  C   UNL     1       7.043   5.606  16.445  0.00  0.00    +0.000 C 
BRANCH  25  27
ATOM     26  C   UNL     1       6.460   4.036  14.772  0.00  0.00    +0.000 C 
ATOM     27  O   UNL     1       7.506   4.812  15.339  0.00  0.00    +0.000 OA
ENDBRANCH  25  27
ENDBRANCH  24  25
ENDBRANCH  22  24
ENDBRANCH   1  22
TORSDOF 6
ENDMDL
MODEL 9
REMARK VINA RESULT:      -7.6      2.534      3.472
REMARK  Name = 
REMARK  9 active torsions:
REMARK  status: ('A' for Active; 'I' for Inactive)
REMARK    1  A    between atoms: C_1  and  O_2
REMARK    2  A    between atoms: O_2  and  C_3
REMARK    3  A    between atoms: C_3  and  C_4
REMARK    4  A    between atoms: C_4  and  N_5
REMARK    5  A    between atoms: N_5  and  C_6
REMARK    6  A    between atoms: C_13  and  C_14
REMARK    7  A    between atoms: C_17  and  C_18
REMARK    8  A    between atoms: N_20  and  C_21
REMARK    9  A    between atoms: N_20  and  C_22
REMARK                            x       y       z     vdW  Elec       q    Type
REMARK                         _______ _______ _______ _____ _____    ______ ____
ROOT
ATOM      1  C   UNL     1       3.814   3.904  17.617  0.00  0.00    +0.000 A 
ATOM      2  N   UNL     1       4.032   2.583  17.497  0.00  0.00    +0.000 NA
ATOM      3  C   UNL     1       3.514   1.794  18.442  0.00  0.00    +0.000 A 
ATOM      4  N   UNL     1       2.769   2.185  19.479  0.00  0.00    +0.000 NA
ATOM      5  C   UNL     1       2.549   3.498  19.591  0.00  0.00    +0.000 A 
ATOM      6  C   UNL     1       1.775   3.953  20.650  0.00  0.00    +0.000 A 
ATOM      7  C   UNL     1       1.486   5.311  20.833  0.00  0.00    +0.000 A 
ATOM      8  C   UNL     1       1.986   6.272  19.950  0.00  0.00    +0.000 A 
ATOM      9  C   UNL     1       2.790   5.811  18.895  0.00  0.00    +0.000 A 
ATOM     10  C   UNL     1       3.068   4.435  18.689  0.00  0.00    +0.000 A 
ENDROOT
BRANCH   8  11
ATOM     11  C   UNL     1       1.705   7.714  20.107  0.00  0.00    +0.000 A 
ATOM     12  C   UNL     1       1.761   8.597  19.021  0.00  0.00    +0.000 A 
ATOM     13  C   UNL     1       1.420   9.949  19.175  0.00  0.00    +0.000 A 
ATOM     14  C   UNL     1       0.991  10.461  20.413  0.00  0.00    +0.000 A 
ATOM     15  C   UNL     1       0.896   9.577  21.483  0.00  0.00    +0.000 A 
ATOM     16  C   UNL     1       1.296   8.241  21.344  0.00  0.00    +0.000 A 
BRANCH  14  17
ATOM     17  C   UNL     1       0.527  11.881  20.436  0.00  0.00    +0.000 C 
ATOM     18  O   UNL     1       1.258  12.664  21.051  0.00  0.00    +0.000 OA
ATOM     19  N   UNL     1      -0.650  12.336  19.821  0.00  0.00    +0.000 N 
ATOM     20  C   UNL     1      -1.749  11.539  19.298  0.00  0.00    +0.000 C 
ATOM     21  C   UNL     1      -0.991  13.740  20.029  0.00  0.00    +0.000 C 
ENDBRANCH  14  17
ENDBRANCH   8  11
BRANCH   1  22
ATOM     22  N   UNL     1       4.449   4.765  16.700  0.00  0.00    +0.000 N 
ATOM     23  H   UNL     1       3.790   5.124  16.012  0.00  0.00    +0.000 HD
BRANCH  22  24
ATOM     24  C   UNL     1       5.572   4.182  15.952  0.00  0.00    +0.000 C 
BRANCH  24  25
ATOM     25  C   UNL     1       6.880   4.868  16.382  0.00  0.00    +0.000 C 
BRANCH  25  27
ATOM     26  C   UNL     1       7.002   4.783  14.020  0.00  0.00    +0.000 C 
ATOM     27  O   UNL     1       7.535   5.362  15.202  0.00  0.00    +0.000 OA
ENDBRANCH  25  27
ENDBRANCH  24  25
ENDBRANCH  22  24
ENDBRANCH   1  22
TORSDOF 6
ENDMDL
