MODEL 1
REMARK VINA RESULT:      -7.3      0.000      0.000
REMARK  Name = 
REMARK  4 active torsions:
REMARK  status: ('A' for Active; 'I' for Inactive)
REMARK    1  A    between atoms: C_2  and  C_3
REMARK    2  A    between atoms: C_9  and  C_11
REMARK    3  A    between atoms: C_11  and  N_12
REMARK    4  A    between atoms: C_13  and  C_15
REMARK                            x       y       z     vdW  Elec       q    Type
REMARK                         _______ _______ _______ _____ _____    ______ ____
ROOT
ATOM      1  C   UNL     1       5.411   5.594  17.850  0.00  0.00    +0.000 C 
ENDROOT
BRANCH   1   8
ATOM      2  C   UNL     1       2.534   5.200  18.752  0.00  0.00    +0.000 C 
ATOM      3  C   UNL     1       1.473   4.291  18.108  0.00  0.00    +0.000 C 
ATOM      4  C   UNL     1       1.039   3.159  19.047  0.00  0.00    +0.000 C 
ATOM      5  C   UNL     1       2.245   2.376  19.567  0.00  0.00    +0.000 C 
ATOM      6  C   UNL     1       3.310   3.294  20.157  0.00  0.00    +0.000 C 
ATOM      7  N   UNL     1       3.668   4.364  19.217  0.00  0.00    +0.000 N 
ATOM      8  C   UNL     1       4.991   4.478  18.811  0.00  0.00    +0.000 C 
ATOM      9  O   UNL     1       5.840   3.643  19.143  0.00  0.00    +0.000 OA
BRANCH   2  11
ATOM     10  N   UNL     1       1.409   6.576  20.890  0.00  0.00    +0.000 NA
ATOM     11  C   UNL     1       1.919   5.952  19.920  0.00  0.00    +0.000 C 
ENDBRANCH   2  11
ENDBRANCH   1   8
BRANCH   1  12
ATOM     12  N   UNL     1       5.573   5.066  16.504  0.00  0.00    +0.000 N 
ATOM     13  C   UNL     1       6.662   5.392  15.728  0.00  0.00    +0.000 C 
ATOM     14  O   UNL     1       7.550   6.139  16.125  0.00  0.00    +0.000 OA
ATOM     15  H   UNL     1       4.790   4.557  16.115  0.00  0.00    +0.000 HD
BRANCH  13  16
ATOM     16  C   UNL     1       6.711   4.852  14.340  0.00  0.00    +0.000 A 
ATOM     17  C   UNL     1       5.733   3.912  13.980  0.00  0.00    +0.000 A 
ATOM     18  C   UNL     1       5.733   3.339  12.707  0.00  0.00    +0.000 A 
ATOM     19  C   UNL     1       6.703   3.711  11.781  0.00  0.00    +0.000 A 
ATOM     20  C   UNL     1       7.662   4.667  12.119  0.00  0.00    +0.000 A 
ATOM     21  C   UNL     1       7.667   5.242  13.394  0.00  0.00    +0.000 A 
ENDBRANCH  13  16
ENDBRANCH   1  12
TORSDOF 4
ENDMDL
MODEL 2
REMARK VINA RESULT:      -7.3      2.576      6.771
REMARK  Name = 
REMARK  4 active torsions:
REMARK  status: ('A' for Active; 'I' for Inactive)
REMARK    1  A    between atoms: C_2  and  C_3
REMARK    2  A    between atoms: C_9  and  C_11
REMARK    3  A    between atoms: C_11  and  N_12
REMARK    4  A    between atoms: C_13  and  C_15
REMARK                            x       y       z     vdW  Elec       q    Type
REMARK                         _______ _______ _______ _____ _____    ______ ____
ROOT
ATOM      1  C   UNL     1       3.664   4.203  17.889  0.00  0.00    +0.000 C 
ENDROOT
BRANCH   1   8
ATOM      2  C   UNL     1       5.921   5.908  16.774  0.00  0.00    +0.000 C 
ATOM      3  C   UNL     1       6.376   7.291  17.274  0.00  0.00    +0.000 C 
ATOM      4  C   UNL     1       7.804   7.258  17.834  0.00  0.00    +0.000 C 
ATOM      5  C   UNL     1       7.959   6.170  18.897  0.00  0.00    +0.000 C 
ATOM      6  C   UNL     1       7.456   4.817  18.405  0.00  0.00    +0.000 C 
ATOM      7  N   UNL     1       6.094   4.920  17.867  0.00  0.00    +0.000 N 
ATOM      8  C   UNL     1       5.094   4.143  18.435  0.00  0.00    +0.000 C 
ATOM      9  O   UNL     1       5.306   3.453  19.439  0.00  0.00    +0.000 OA
BRANCH   2  11
ATOM     10  N   UNL     1       7.432   5.176  14.558  0.00  0.00    +0.000 NA
ATOM     11  C   UNL     1       6.746   5.507  15.564  0.00  0.00    +0.000 C 
ENDBRANCH   2  11
ENDBRANCH   1   8
BRANCH   1  12
ATOM     12  N   UNL     1       3.156   5.565  17.953  0.00  0.00    +0.000 N 
ATOM     13  C   UNL     1       2.689   6.105  19.129  0.00  0.00    +0.000 C 
ATOM     14  O   UNL     1       2.675   5.473  20.182  0.00  0.00    +0.000 OA
ATOM     15  H   UNL     1       3.039   6.052  17.075  0.00  0.00    +0.000 HD
BRANCH  13  16
ATOM     16  C   UNL     1       2.130   7.486  19.085  0.00  0.00    +0.000 A 
ATOM     17  C   UNL     1       1.588   7.999  20.274  0.00  0.00    +0.000 A 
ATOM     18  C   UNL     1       1.018   9.272  20.303  0.00  0.00    +0.000 A 
ATOM     19  C   UNL     1       0.998  10.048  19.147  0.00  0.00    +0.000 A 
ATOM     20  C   UNL     1       1.562   9.560  17.968  0.00  0.00    +0.000 A 
ATOM     21  C   UNL     1       2.132   8.282  17.934  0.00  0.00    +0.000 A 
ENDBRANCH  13  16
ENDBRANCH   1  12
TORSDOF 4
ENDMDL
MODEL 3
REMARK VINA RESULT:      -7.3      2.558      6.775
REMARK  Name = 
REMARK  4 active torsions:
REMARK  status: ('A' for Active; 'I' for Inactive)
REMARK    1  A    between atoms: C_2  and  C_3
REMARK    2  A    between atoms: C_9  and  C_11
REMARK    3  A    between atoms: C_11  and  N_12
REMARK    4  A    between atoms: C_13  and  C_15
REMARK                            x       y       z     vdW  Elec       q    Type
REMARK                         _______ _______ _______ _____ _____    ______ ____
ROOT
ATOM      1  C   UNL     1       3.681   4.160  17.873  0.00  0.00    +0.000 C 
ENDROOT
BRANCH   1   8
ATOM      2  C   UNL     1       5.907   5.884  16.726  0.00  0.00    +0.000 C 
ATOM      3  C   UNL     1       6.332   7.288  17.193  0.00  0.00    +0.000 C 
ATOM      4  C   UNL     1       7.757   7.297  17.759  0.00  0.00    +0.000 C 
ATOM      5  C   UNL     1       7.930   6.239  18.849  0.00  0.00    +0.000 C 
ATOM      6  C   UNL     1       7.457   4.864  18.388  0.00  0.00    +0.000 C 
ATOM      7  N   UNL     1       6.095   4.926  17.842  0.00  0.00    +0.000 N 
ATOM      8  C   UNL     1       5.109   4.143  18.426  0.00  0.00    +0.000 C 
ATOM      9  O   UNL     1       5.332   3.482  19.447  0.00  0.00    +0.000 OA
BRANCH   2  11
ATOM     10  N   UNL     1       7.440   5.129  14.533  0.00  0.00    +0.000 NA
ATOM     11  C   UNL     1       6.745   5.471  15.528  0.00  0.00    +0.000 C 
ENDBRANCH   2  11
ENDBRANCH   1   8
BRANCH   1  12
ATOM     12  N   UNL     1       3.118   5.499  17.969  0.00  0.00    +0.000 N 
ATOM     13  C   UNL     1       2.807   6.064  19.184  0.00  0.00    +0.000 C 
ATOM     14  O   UNL     1       2.986   5.476  20.247  0.00  0.00    +0.000 OA
ATOM     15  H   UNL     1       2.844   5.944  17.103  0.00  0.00    +0.000 HD
BRANCH  13  16
ATOM     16  C   UNL     1       2.178   7.415  19.181  0.00  0.00    +0.000 A 
ATOM     17  C   UNL     1       2.231   8.146  17.984  0.00  0.00    +0.000 A 
ATOM     18  C   UNL     1       1.691   9.431  17.912  0.00  0.00    +0.000 A 
ATOM     19  C   UNL     1       1.082   9.990  19.033  0.00  0.00    +0.000 A 
ATOM     20  C   UNL     1       0.997   9.259  20.219  0.00  0.00    +0.000 A 
ATOM     21  C   UNL     1       1.539   7.971  20.296  0.00  0.00    +0.000 A 
ENDBRANCH  13  16
ENDBRANCH   1  12
TORSDOF 4
ENDMDL
MODEL 4
REMARK VINA RESULT:      -7.3      1.391      2.249
REMARK  Name = 
REMARK  4 active torsions:
REMARK  status: ('A' for Active; 'I' for Inactive)
REMARK    1  A    between atoms: C_2  and  C_3
REMARK    2  A    between atoms: C_9  and  C_11
REMARK    3  A    between atoms: C_11  and  N_12
REMARK    4  A    between atoms: C_13  and  C_15
REMARK                            x       y       z     vdW  Elec       q    Type
REMARK                         _______ _______ _______ _____ _____    ______ ____
ROOT
ATOM      1  C   UNL     1       6.280   4.553  18.302  0.00  0.00    +0.000 C 
ENDROOT
BRANCH   1   8
ATOM      2  C   UNL     1       3.801   3.061  19.234  0.00  0.00    +0.000 C 
ATOM      3  C   UNL     1       3.377   2.778  20.686  0.00  0.00    +0.000 C 
ATOM      4  C   UNL     1       2.065   3.483  21.050  0.00  0.00    +0.000 C 
ATOM      5  C   UNL     1       2.133   4.979  20.740  0.00  0.00    +0.000 C 
ATOM      6  C   UNL     1       2.604   5.245  19.314  0.00  0.00    +0.000 C 
ATOM      7  N   UNL     1       3.853   4.529  19.025  0.00  0.00    +0.000 N 
ATOM      8  C   UNL     1       4.965   5.263  18.635  0.00  0.00    +0.000 C 
ATOM      9  O   UNL     1       4.950   6.499  18.628  0.00  0.00    +0.000 OA
BRANCH   2  11
ATOM     10  N   UNL     1       1.978   1.900  17.487  0.00  0.00    +0.000 NA
ATOM     11  C   UNL     1       2.805   2.426  18.280  0.00  0.00    +0.000 C 
ENDBRANCH   2  11
ENDBRANCH   1   8
BRANCH   1  12
ATOM     12  N   UNL     1       6.348   4.259  16.878  0.00  0.00    +0.000 N 
ATOM     13  C   UNL     1       6.945   5.124  15.990  0.00  0.00    +0.000 C 
ATOM     14  O   UNL     1       7.451   6.184  16.347  0.00  0.00    +0.000 OA
ATOM     15  H   UNL     1       5.824   3.458  16.551  0.00  0.00    +0.000 HD
BRANCH  13  16
ATOM     16  C   UNL     1       6.912   4.767  14.544  0.00  0.00    +0.000 A 
ATOM     17  C   UNL     1       5.970   3.808  14.140  0.00  0.00    +0.000 A 
ATOM     18  C   UNL     1       5.900   3.399  12.807  0.00  0.00    +0.000 A 
ATOM     19  C   UNL     1       6.762   3.956  11.866  0.00  0.00    +0.000 A 
ATOM     20  C   UNL     1       7.681   4.933  12.252  0.00  0.00    +0.000 A 
ATOM     21  C   UNL     1       7.756   5.344  13.587  0.00  0.00    +0.000 A 
ENDBRANCH  13  16
ENDBRANCH   1  12
TORSDOF 4
ENDMDL
MODEL 5
REMARK VINA RESULT:      -7.3      0.121      1.085
REMARK  Name = 
REMARK  4 active torsions:
REMARK  status: ('A' for Active; 'I' for Inactive)
REMARK    1  A    between atoms: C_2  and  C_3
REMARK    2  A    between atoms: C_9  and  C_11
REMARK    3  A    between atoms: C_11  and  N_12
REMARK    4  A    between atoms: C_13  and  C_15
REMARK                            x       y       z     vdW  Elec       q    Type
REMARK                         _______ _______ _______ _____ _____    ______ ____
ROOT
ATOM      1  C   UNL     1       5.447   5.626  17.908  0.00  0.00    +0.000 C 
ENDROOT
BRANCH   1   8
ATOM      2  C   UNL     1       2.555   5.271  18.775  0.00  0.00    +0.000 C 
ATOM      3  C   UNL     1       1.497   4.354  18.136  0.00  0.00    +0.000 C 
ATOM      4  C   UNL     1       1.042   3.247  19.094  0.00  0.00    +0.000 C 
ATOM      5  C   UNL     1       2.235   2.468  19.650  0.00  0.00    +0.000 C 
ATOM      6  C   UNL     1       3.297   3.393  20.234  0.00  0.00    +0.000 C 
ATOM      7  N   UNL     1       3.676   4.439  19.275  0.00  0.00    +0.000 N 
ATOM      8  C   UNL     1       5.005   4.534  18.887  0.00  0.00    +0.000 C 
ATOM      9  O   UNL     1       5.844   3.702  19.250  0.00  0.00    +0.000 OA
BRANCH   2  11
ATOM     10  N   UNL     1       1.406   6.703  20.863  0.00  0.00    +0.000 NA
ATOM     11  C   UNL     1       1.927   6.053  19.916  0.00  0.00    +0.000 C 
ENDBRANCH   2  11
ENDBRANCH   1   8
BRANCH   1  12
ATOM     12  N   UNL     1       5.584   5.075  16.567  0.00  0.00    +0.000 N 
ATOM     13  C   UNL     1       6.667   5.372  15.773  0.00  0.00    +0.000 C 
ATOM     14  O   UNL     1       7.573   6.111  16.148  0.00  0.00    +0.000 OA
ATOM     15  H   UNL     1       4.788   4.573  16.195  0.00  0.00    +0.000 HD
BRANCH  13  16
ATOM     16  C   UNL     1       6.691   4.811  14.393  0.00  0.00    +0.000 A 
ATOM     17  C   UNL     1       7.653   5.320  13.507  0.00  0.00    +0.000 A 
ATOM     18  C   UNL     1       7.716   4.867  12.189  0.00  0.00    +0.000 A 
ATOM     19  C   UNL     1       6.825   3.891  11.749  0.00  0.00    +0.000 A 
ATOM     20  C   UNL     1       5.884   3.356  12.630  0.00  0.00    +0.000 A 
ATOM     21  C   UNL     1       5.816   3.810  13.952  0.00  0.00    +0.000 A 
ENDBRANCH  13  16
ENDBRANCH   1  12
TORSDOF 4
ENDMDL
MODEL 6
REMARK VINA RESULT:      -7.2      1.756      2.731
REMARK  Name = 
REMARK  4 active torsions:
REMARK  status: ('A' for Active; 'I' for Inactive)
REMARK    1  A    between atoms: C_2  and  C_3
REMARK    2  A    between atoms: C_9  and  C_11
REMARK    3  A    between atoms: C_11  and  N_12
REMARK    4  A    between atoms: C_13  and  C_15
REMARK                            x       y       z     vdW  Elec       q    Type
REMARK                         _______ _______ _______ _____ _____    ______ ____
ROOT
ATOM      1  C   UNL     1       4.109   4.650  17.349  0.00  0.00    +0.000 C 
ENDROOT
BRANCH   1   8
ATOM      2  C   UNL     1       3.595   3.511  20.121  0.00  0.00    +0.000 C 
ATOM      3  C   UNL     1       2.564   4.003  21.152  0.00  0.00    +0.000 C 
ATOM      4  C   UNL     1       1.487   2.947  21.435  0.00  0.00    +0.000 C 
ATOM      5  C   UNL     1       0.836   2.457  20.142  0.00  0.00    +0.000 C 
ATOM      6  C   UNL     1       1.872   2.021  19.111  0.00  0.00    +0.000 C 
ATOM      7  N   UNL     1       2.881   3.067  18.899  0.00  0.00    +0.000 N 
ATOM      8  C   UNL     1       3.051   3.576  17.619  0.00  0.00    +0.000 C 
ATOM      9  O   UNL     1       2.307   3.243  16.689  0.00  0.00    +0.000 OA
BRANCH   2  11
ATOM     10  N   UNL     1       5.066   1.413  21.200  0.00  0.00    +0.000 NA
ATOM     11  C   UNL     1       4.398   2.364  20.710  0.00  0.00    +0.000 C 
ENDBRANCH   2  11
ENDBRANCH   1   8
BRANCH   1  12
ATOM     12  N   UNL     1       4.634   4.513  15.999  0.00  0.00    +0.000 N 
ATOM     13  C   UNL     1       5.987   4.443  15.754  0.00  0.00    +0.000 C 
ATOM     14  O   UNL     1       6.819   4.492  16.655  0.00  0.00    +0.000 OA
ATOM     15  H   UNL     1       3.973   4.602  15.239  0.00  0.00    +0.000 HD
BRANCH  13  16
ATOM     16  C   UNL     1       6.433   4.366  14.335  0.00  0.00    +0.000 A 
ATOM     17  C   UNL     1       7.455   5.239  13.933  0.00  0.00    +0.000 A 
ATOM     18  C   UNL     1       7.904   5.247  12.612  0.00  0.00    +0.000 A 
ATOM     19  C   UNL     1       7.343   4.372  11.685  0.00  0.00    +0.000 A 
ATOM     20  C   UNL     1       6.347   3.478  12.081  0.00  0.00    +0.000 A 
ATOM     21  C   UNL     1       5.892   3.469  13.404  0.00  0.00    +0.000 A 
ENDBRANCH  13  16
ENDBRANCH   1  12
TORSDOF 4
ENDMDL
MODEL 7
REMARK VINA RESULT:      -7.1      1.362      2.488
REMARK  Name = 
REMARK  4 active torsions:
REMARK  status: ('A' for Active; 'I' for Inactive)
REMARK    1  A    between atoms: C_2  and  C_3
REMARK    2  A    between atoms: C_9  and  C_11
REMARK    3  A    between atoms: C_11  and  N_12
REMARK    4  A    between atoms: C_13  and  C_15
REMARK                            x       y       z     vdW  Elec       q    Type
REMARK                         _______ _______ _______ _____ _____    ______ ____
ROOT
ATOM      1  C   UNL     1       5.944   4.868  18.169  0.00  0.00    +0.000 C 
ENDROOT
BRANCH   1   8
ATOM      2  C   UNL     1       3.562   3.347  19.291  0.00  0.00    +0.000 C 
ATOM      3  C   UNL     1       3.159   3.210  20.770  0.00  0.00    +0.000 C 
ATOM      4  C   UNL     1       1.806   3.872  21.060  0.00  0.00    +0.000 C 
ATOM      5  C   UNL     1       1.782   5.323  20.578  0.00  0.00    +0.000 C 
ATOM      6  C   UNL     1       2.233   5.448  19.126  0.00  0.00    +0.000 C 
ATOM      7  N   UNL     1       3.524   4.780  18.912  0.00  0.00    +0.000 N 
ATOM      8  C   UNL     1       4.587   5.530  18.429  0.00  0.00    +0.000 C 
ATOM      9  O   UNL     1       4.497   6.754  18.277  0.00  0.00    +0.000 OA
BRANCH   2  11
ATOM     10  N   UNL     1       1.811   1.880  17.707  0.00  0.00    +0.000 NA
ATOM     11  C   UNL     1       2.605   2.545  18.426  0.00  0.00    +0.000 C 
ENDBRANCH   2  11
ENDBRANCH   1   8
BRANCH   1  12
ATOM     12  N   UNL     1       6.055   4.479  16.771  0.00  0.00    +0.000 N 
ATOM     13  C   UNL     1       6.835   5.186  15.885  0.00  0.00    +0.000 C 
ATOM     14  O   UNL     1       7.477   6.177  16.223  0.00  0.00    +0.000 OA
ATOM     15  H   UNL     1       5.435   3.747  16.448  0.00  0.00    +0.000 HD
BRANCH  13  16
ATOM     16  C   UNL     1       6.839   4.748  14.461  0.00  0.00    +0.000 A 
ATOM     17  C   UNL     1       7.743   5.384  13.595  0.00  0.00    +0.000 A 
ATOM     18  C   UNL     1       7.783   5.050  12.241  0.00  0.00    +0.000 A 
ATOM     19  C   UNL     1       6.928   4.070  11.744  0.00  0.00    +0.000 A 
ATOM     20  C   UNL     1       6.047   3.410  12.602  0.00  0.00    +0.000 A 
ATOM     21  C   UNL     1       6.002   3.743  13.960  0.00  0.00    +0.000 A 
ENDBRANCH  13  16
ENDBRANCH   1  12
TORSDOF 4
ENDMDL
MODEL 8
REMARK VINA RESULT:      -7.0      1.888      2.584
REMARK  Name = 
REMARK  4 active torsions:
REMARK  status: ('A' for Active; 'I' for Inactive)
REMARK    1  A    between atoms: C_2  and  C_3
REMARK    2  A    between atoms: C_9  and  C_11
REMARK    3  A    between atoms: C_11  and  N_12
REMARK    4  A    between atoms: C_13  and  C_15
REMARK                            x       y       z     vdW  Elec       q    Type
REMARK                         _______ _______ _______ _____ _____    ______ ____
ROOT
ATOM      1  C   UNL     1       4.070   4.606  17.404  0.00  0.00    +0.000 C 
ENDROOT
BRANCH   1   8
ATOM      2  C   UNL     1       3.645   3.480  20.196  0.00  0.00    +0.000 C 
ATOM      3  C   UNL     1       2.666   3.992  21.267  0.00  0.00    +0.000 C 
ATOM      4  C   UNL     1       1.582   2.959  21.595  0.00  0.00    +0.000 C 
ATOM      5  C   UNL     1       0.869   2.479  20.330  0.00  0.00    +0.000 C 
ATOM      6  C   UNL     1       1.855   2.023  19.259  0.00  0.00    +0.000 C 
ATOM      7  N   UNL     1       2.875   3.048  19.004  0.00  0.00    +0.000 N 
ATOM      8  C   UNL     1       3.004   3.553  17.718  0.00  0.00    +0.000 C 
ATOM      9  O   UNL     1       2.217   3.233  16.819  0.00  0.00    +0.000 OA
BRANCH   2  11
ATOM     10  N   UNL     1       5.116   1.354  21.220  0.00  0.00    +0.000 NA
ATOM     11  C   UNL     1       4.449   2.318  20.755  0.00  0.00    +0.000 C 
ENDBRANCH   2  11
ENDBRANCH   1   8
BRANCH   1  12
ATOM     12  N   UNL     1       4.790   4.250  16.190  0.00  0.00    +0.000 N 
ATOM     13  C   UNL     1       5.378   5.205  15.394  0.00  0.00    +0.000 C 
ATOM     14  O   UNL     1       5.331   6.402  15.661  0.00  0.00    +0.000 OA
ATOM     15  H   UNL     1       4.727   3.286  15.887  0.00  0.00    +0.000 HD
BRANCH  13  16
ATOM     16  C   UNL     1       6.040   4.750  14.138  0.00  0.00    +0.000 A 
ATOM     17  C   UNL     1       5.358   3.804  13.358  0.00  0.00    +0.000 A 
ATOM     18  C   UNL     1       5.928   3.308  12.184  0.00  0.00    +0.000 A 
ATOM     19  C   UNL     1       7.178   3.763  11.776  0.00  0.00    +0.000 A 
ATOM     20  C   UNL     1       7.851   4.726  12.529  0.00  0.00    +0.000 A 
ATOM     21  C   UNL     1       7.285   5.225  13.707  0.00  0.00    +0.000 A 
ENDBRANCH  13  16
ENDBRANCH   1  12
TORSDOF 4
ENDMDL
MODEL 9
REMARK VINA RESULT:      -6.9      1.052      1.137
REMARK  Name = 
REMARK  4 active torsions:
REMARK  status: ('A' for Active; 'I' for Inactive)
REMARK    1  A    between atoms: C_2  and  C_3
REMARK    2  A    between atoms: C_9  and  C_11
REMARK    3  A    between atoms: C_11  and  N_12
REMARK    4  A    between atoms: C_13  and  C_15
REMARK                            x       y       z     vdW  Elec       q    Type
REMARK                         _______ _______ _______ _____ _____    ______ ____
ROOT
ATOM      1  C   UNL     1       6.361   6.569  17.804  0.00  0.00    +0.000 C 
ENDROOT
BRANCH   1   8
ATOM      2  C   UNL     1       3.402   6.100  18.321  0.00  0.00    +0.000 C 
ATOM      3  C   UNL     1       2.498   5.045  17.659  0.00  0.00    +0.000 C 
ATOM      4  C   UNL     1       1.979   4.017  18.672  0.00  0.00    +0.000 C 
ATOM      5  C   UNL     1       3.126   3.391  19.466  0.00  0.00    +0.000 C 
ATOM      6  C   UNL     1       4.043   4.448  20.072  0.00  0.00    +0.000 C 
ATOM      7  N   UNL     1       4.490   5.410  19.056  0.00  0.00    +0.000 N 
ATOM      8  C   UNL     1       5.852   5.560  18.837  0.00  0.00    +0.000 C 
ATOM      9  O   UNL     1       6.679   4.834  19.401  0.00  0.00    +0.000 OA
BRANCH   2  11
ATOM     10  N   UNL     1       1.896   7.659  20.061  0.00  0.00    +0.000 NA
ATOM     11  C   UNL     1       2.579   6.952  19.271  0.00  0.00    +0.000 C 
ENDBRANCH   2  11
ENDBRANCH   1   8
BRANCH   1  12
ATOM     12  N   UNL     1       6.166   6.054  16.457  0.00  0.00    +0.000 N 
ATOM     13  C   UNL     1       6.997   5.096  15.922  0.00  0.00    +0.000 C 
ATOM     14  O   UNL     1       7.943   4.626  16.548  0.00  0.00    +0.000 OA
ATOM     15  H   UNL     1       5.476   6.521  15.883  0.00  0.00    +0.000 HD
BRANCH  13  16
ATOM     16  C   UNL     1       6.756   4.675  14.514  0.00  0.00    +0.000 A 
ATOM     17  C   UNL     1       5.574   3.967  14.247  0.00  0.00    +0.000 A 
ATOM     18  C   UNL     1       5.294   3.512  12.958  0.00  0.00    +0.000 A 
ATOM     19  C   UNL     1       6.187   3.773  11.922  0.00  0.00    +0.000 A 
ATOM     20  C   UNL     1       7.350   4.503  12.171  0.00  0.00    +0.000 A 
ATOM     21  C   UNL     1       7.636   4.959  13.462  0.00  0.00    +0.000 A 
ENDBRANCH  13  16
ENDBRANCH   1  12
TORSDOF 4
ENDMDL
