MODEL 1
REMARK VINA RESULT:      -7.6      0.000      0.000
REMARK  Name = 
REMARK  9 active torsions:
REMARK  status: ('A' for Active; 'I' for Inactive)
REMARK    1  A    between atoms: C_1  and  C_2
REMARK    2  A    between atoms: C_4  and  C_5
REMARK    3  A    between atoms: C_5  and  N_6
REMARK    4  A    between atoms: N_6  and  C_7
REMARK    5  A    between atoms: N_6  and  C_8
REMARK    6  A    between atoms: N_12  and  C_13
REMARK    7  A    between atoms: C_13  and  C_14
REMARK    8  A    between atoms: C_17  and  C_18
REMARK    9  A    between atoms: C_24  and  C_25
REMARK                            x       y       z     vdW  Elec       q    Type
REMARK                         _______ _______ _______ _____ _____    ______ ____
ROOT
ATOM      1  C   UNL     1       4.621   3.763  18.595  0.00  0.00    +0.000 C 
ATOM      2  C   UNL     1       3.516   2.811  18.087  0.00  0.00    +0.000 C 
ATOM      3  C   UNL     1       2.259   3.513  17.578  0.00  0.00    +0.000 C 
ATOM      4  C   UNL     1       1.773   4.590  18.540  0.00  0.00    +0.000 C 
ATOM      5  N   UNL     1       2.831   5.563  18.857  0.00  0.00    +0.000 NA
ATOM      6  C   UNL     1       3.985   4.885  19.473  0.00  0.00    +0.000 C 
ENDROOT
BRANCH   1   7
ATOM      7  N   UNL     1       5.607   4.151  17.555  0.00  0.00    +0.000 NA
ATOM      8  C   UNL     1       6.820   4.732  18.138  0.00  0.00    +0.000 C 
BRANCH   7   9
ATOM      9  C   UNL     1       5.084   5.014  16.474  0.00  0.00    +0.000 C 
BRANCH   9  13
ATOM     10  C   UNL     1       8.208   5.538  12.634  0.00  0.00    +0.000 C 
ATOM     11  C   UNL     1       7.112   5.032  13.484  0.00  0.00    +0.000 A 
ATOM     12  N   UNL     1       6.846   5.589  14.714  0.00  0.00    +0.000 NA
ATOM     13  C   UNL     1       5.830   4.883  15.175  0.00  0.00    +0.000 A 
ATOM     14  O   UNL     1       5.402   3.898  14.321  0.00  0.00    +0.000 OA
ATOM     15  C   UNL     1       6.232   4.000  13.242  0.00  0.00    +0.000 A 
ATOM     16  C   UNL     1       6.032   3.048  12.137  0.00  0.00    +0.000 C 
ENDBRANCH   9  13
ENDBRANCH   7   9
ENDBRANCH   1   7
BRANCH   5  17
ATOM     17  C   UNL     1       2.329   6.621  19.778  0.00  0.00    +0.000 C 
BRANCH  17  18
ATOM     18  C   UNL     1       2.127   7.924  19.067  0.00  0.00    +0.000 A 
ATOM     19  N   UNL     1       2.607   8.177  17.842  0.00  0.00    +0.000 NA
ATOM     20  O   UNL     1       1.931   9.343  17.474  0.00  0.00    +0.000 OA
ATOM     21  C   UNL     1       1.136   9.687  18.532  0.00  0.00    +0.000 A 
ATOM     22  N   UNL     1       1.270   8.878  19.560  0.00  0.00    +0.000 NA
BRANCH  21  23
ATOM     23  C   UNL     1       0.134  10.829  18.485  0.00  0.00    +0.000 C 
ATOM     24  C   UNL     1      -1.224  10.536  17.870  0.00  0.00    +0.000 C 
ATOM     25  C   UNL     1      -1.115  10.770  19.336  0.00  0.00    +0.000 C 
ENDBRANCH  21  23
ENDBRANCH  17  18
ENDBRANCH   5  17
TORSDOF 6
ENDMDL
MODEL 2
REMARK VINA RESULT:      -7.4      1.841      8.097
REMARK  Name = 
REMARK  9 active torsions:
REMARK  status: ('A' for Active; 'I' for Inactive)
REMARK    1  A    between atoms: C_1  and  C_2
REMARK    2  A    between atoms: C_4  and  C_5
REMARK    3  A    between atoms: C_5  and  N_6
REMARK    4  A    between atoms: N_6  and  C_7
REMARK    5  A    between atoms: N_6  and  C_8
REMARK    6  A    between atoms: N_12  and  C_13
REMARK    7  A    between atoms: C_13  and  C_14
REMARK    8  A    between atoms: C_17  and  C_18
REMARK    9  A    between atoms: C_24  and  C_25
REMARK                            x       y       z     vdW  Elec       q    Type
REMARK                         _______ _______ _______ _____ _____    ______ ____
ROOT
ATOM      1  C   UNL     1       2.724   5.556  17.865  0.00  0.00    +0.000 C 
ATOM      2  C   UNL     1       2.232   4.422  18.793  0.00  0.00    +0.000 C 
ATOM      3  C   UNL     1       3.250   3.971  19.837  0.00  0.00    +0.000 C 
ATOM      4  C   UNL     1       4.630   3.741  19.233  0.00  0.00    +0.000 C 
ATOM      5  N   UNL     1       5.113   4.922  18.499  0.00  0.00    +0.000 NA
ATOM      6  C   UNL     1       4.184   5.262  17.405  0.00  0.00    +0.000 C 
ENDROOT
BRANCH   1   7
ATOM      7  N   UNL     1       2.395   6.920  18.355  0.00  0.00    +0.000 NA
ATOM      8  C   UNL     1       3.225   7.946  17.717  0.00  0.00    +0.000 C 
BRANCH   7   9
ATOM      9  C   UNL     1       2.399   7.085  19.824  0.00  0.00    +0.000 C 
BRANCH   9  13
ATOM     10  C   UNL     1      -0.591  11.042  20.252  0.00  0.00    +0.000 C 
ATOM     11  C   UNL     1       0.214   9.855  20.603  0.00  0.00    +0.000 A 
ATOM     12  N   UNL     1       0.920   9.162  19.645  0.00  0.00    +0.000 NA
ATOM     13  C   UNL     1       1.494   8.181  20.316  0.00  0.00    +0.000 A 
ATOM     14  O   UNL     1       1.219   8.187  21.661  0.00  0.00    +0.000 OA
ATOM     15  C   UNL     1       0.396   9.262  21.832  0.00  0.00    +0.000 A 
ATOM     16  C   UNL     1      -0.096   9.532  23.195  0.00  0.00    +0.000 C 
ENDBRANCH   9  13
ENDBRANCH   7   9
ENDBRANCH   1   7
BRANCH   5  17
ATOM     17  C   UNL     1       6.473   4.685  17.937  0.00  0.00    +0.000 C 
BRANCH  17  18
ATOM     18  C   UNL     1       6.483   4.806  16.443  0.00  0.00    +0.000 A 
ATOM     19  N   UNL     1       7.129   5.779  15.787  0.00  0.00    +0.000 NA
ATOM     20  O   UNL     1       7.124   5.324  14.466  0.00  0.00    +0.000 OA
ATOM     21  C   UNL     1       6.445   4.136  14.462  0.00  0.00    +0.000 A 
ATOM     22  N   UNL     1       5.978   3.808  15.646  0.00  0.00    +0.000 NA
BRANCH  21  23
ATOM     23  C   UNL     1       6.331   3.246  13.235  0.00  0.00    +0.000 C 
ATOM     24  C   UNL     1       5.294   3.629  12.193  0.00  0.00    +0.000 C 
ATOM     25  C   UNL     1       6.742   3.777  11.879  0.00  0.00    +0.000 C 
ENDBRANCH  21  23
ENDBRANCH  17  18
ENDBRANCH   5  17
TORSDOF 6
ENDMDL
MODEL 3
REMARK VINA RESULT:      -7.3      0.947      1.527
REMARK  Name = 
REMARK  9 active torsions:
REMARK  status: ('A' for Active; 'I' for Inactive)
REMARK    1  A    between atoms: C_1  and  C_2
REMARK    2  A    between atoms: C_4  and  C_5
REMARK    3  A    between atoms: C_5  and  N_6
REMARK    4  A    between atoms: N_6  and  C_7
REMARK    5  A    between atoms: N_6  and  C_8
REMARK    6  A    between atoms: N_12  and  C_13
REMARK    7  A    between atoms: C_13  and  C_14
REMARK    8  A    between atoms: C_17  and  C_18
REMARK    9  A    between atoms: C_24  and  C_25
REMARK                            x       y       z     vdW  Elec       q    Type
REMARK                         _______ _______ _______ _____ _____    ______ ____
ROOT
ATOM      1  C   UNL     1       4.803   3.854  18.609  0.00  0.00    +0.000 C 
ATOM      2  C   UNL     1       3.838   2.925  17.838  0.00  0.00    +0.000 C 
ATOM      3  C   UNL     1       2.581   3.614  17.311  0.00  0.00    +0.000 C 
ATOM      4  C   UNL     1       1.914   4.481  18.373  0.00  0.00    +0.000 C 
ATOM      5  N   UNL     1       2.849   5.458  18.953  0.00  0.00    +0.000 NA
ATOM      6  C   UNL     1       3.992   4.767  19.578  0.00  0.00    +0.000 C 
ENDROOT
BRANCH   1   7
ATOM      7  N   UNL     1       5.849   4.476  17.757  0.00  0.00    +0.000 NA
ATOM      8  C   UNL     1       6.850   5.194  18.553  0.00  0.00    +0.000 C 
BRANCH   7   9
ATOM      9  C   UNL     1       5.349   5.328  16.657  0.00  0.00    +0.000 C 
BRANCH   9  13
ATOM     10  C   UNL     1       5.993   3.166  12.220  0.00  0.00    +0.000 C 
ATOM     11  C   UNL     1       6.196   4.047  13.387  0.00  0.00    +0.000 A 
ATOM     12  N   UNL     1       5.358   3.993  14.478  0.00  0.00    +0.000 NA
ATOM     13  C   UNL     1       5.834   4.913  15.296  0.00  0.00    +0.000 A 
ATOM     14  O   UNL     1       6.942   5.567  14.817  0.00  0.00    +0.000 OA
ATOM     15  C   UNL     1       7.163   5.007  13.592  0.00  0.00    +0.000 A 
ATOM     16  C   UNL     1       8.298   5.518  12.805  0.00  0.00    +0.000 C 
ENDBRANCH   9  13
ENDBRANCH   7   9
ENDBRANCH   1   7
BRANCH   5  17
ATOM     17  C   UNL     1       2.171   6.312  19.969  0.00  0.00    +0.000 C 
BRANCH  17  18
ATOM     18  C   UNL     1       2.016   7.723  19.491  0.00  0.00    +0.000 A 
ATOM     19  N   UNL     1       2.380   8.131  18.268  0.00  0.00    +0.000 NA
ATOM     20  O   UNL     1       1.780   9.389  18.165  0.00  0.00    +0.000 OA
ATOM     21  C   UNL     1       1.143   9.619  19.353  0.00  0.00    +0.000 A 
ATOM     22  N   UNL     1       1.313   8.649  20.223  0.00  0.00    +0.000 NA
BRANCH  21  23
ATOM     23  C   UNL     1       0.253  10.827  19.601  0.00  0.00    +0.000 C 
ATOM     24  C   UNL     1       0.897  12.044  20.244  0.00  0.00    +0.000 C 
ATOM     25  C   UNL     1       0.478  12.100  18.816  0.00  0.00    +0.000 C 
ENDBRANCH  21  23
ENDBRANCH  17  18
ENDBRANCH   5  17
TORSDOF 6
ENDMDL
MODEL 4
REMARK VINA RESULT:      -7.2      2.353      3.084
REMARK  Name = 
REMARK  9 active torsions:
REMARK  status: ('A' for Active; 'I' for Inactive)
REMARK    1  A    between atoms: C_1  and  C_2
REMARK    2  A    between atoms: C_4  and  C_5
REMARK    3  A    between atoms: C_5  and  N_6
REMARK    4  A    between atoms: N_6  and  C_7
REMARK    5  A    between atoms: N_6  and  C_8
REMARK    6  A    between atoms: N_12  and  C_13
REMARK    7  A    between atoms: C_13  and  C_14
REMARK    8  A    between atoms: C_17  and  C_18
REMARK    9  A    between atoms: C_24  and  C_25
REMARK                            x       y       z     vdW  Elec       q    Type
REMARK                         _______ _______ _______ _____ _____    ______ ____
ROOT
ATOM      1  C   UNL     1       3.574   3.908  19.125  0.00  0.00    +0.000 C 
ATOM      2  C   UNL     1       2.562   2.984  19.838  0.00  0.00    +0.000 C 
ATOM      3  C   UNL     1       1.183   3.603  20.057  0.00  0.00    +0.000 C 
ATOM      4  C   UNL     1       1.271   5.011  20.634  0.00  0.00    +0.000 C 
ATOM      5  N   UNL     1       2.121   5.889  19.815  0.00  0.00    +0.000 NA
ATOM      6  C   UNL     1       3.488   5.344  19.726  0.00  0.00    +0.000 C 
ENDROOT
BRANCH   1   7
ATOM      7  N   UNL     1       3.590   3.758  17.647  0.00  0.00    +0.000 NA
ATOM      8  C   UNL     1       2.719   2.668  17.197  0.00  0.00    +0.000 C 
BRANCH   7   9
ATOM      9  C   UNL     1       4.930   3.642  17.035  0.00  0.00    +0.000 C 
BRANCH   9  13
ATOM     10  C   UNL     1       7.662   7.781  17.465  0.00  0.00    +0.000 C 
ATOM     11  C   UNL     1       7.109   6.438  17.732  0.00  0.00    +0.000 A 
ATOM     12  N   UNL     1       6.142   5.889  16.920  0.00  0.00    +0.000 NA
ATOM     13  C   UNL     1       5.892   4.714  17.466  0.00  0.00    +0.000 A 
ATOM     14  O   UNL     1       6.641   4.448  18.586  0.00  0.00    +0.000 OA
ATOM     15  C   UNL     1       7.414   5.561  18.748  0.00  0.00    +0.000 A 
ATOM     16  C   UNL     1       8.334   5.588  19.898  0.00  0.00    +0.000 C 
ENDBRANCH   9  13
ENDBRANCH   7   9
ENDBRANCH   1   7
BRANCH   5  17
ATOM     17  C   UNL     1       2.174   7.266  20.382  0.00  0.00    +0.000 C 
BRANCH  17  18
ATOM     18  C   UNL     1       1.828   8.301  19.355  0.00  0.00    +0.000 A 
ATOM     19  N   UNL     1       2.280   8.267  18.093  0.00  0.00    +0.000 NA
ATOM     20  O   UNL     1       1.478   9.211  17.448  0.00  0.00    +0.000 OA
ATOM     21  C   UNL     1       0.648   9.739  18.398  0.00  0.00    +0.000 A 
ATOM     22  N   UNL     1       0.870   9.254  19.599  0.00  0.00    +0.000 NA
BRANCH  21  23
ATOM     23  C   UNL     1      -0.476  10.710  18.076  0.00  0.00    +0.000 C 
ATOM     24  C   UNL     1      -1.681  10.158  17.334  0.00  0.00    +0.000 C 
ATOM     25  C   UNL     1      -1.817  10.564  18.761  0.00  0.00    +0.000 C 
ENDBRANCH  21  23
ENDBRANCH  17  18
ENDBRANCH   5  17
TORSDOF 6
ENDMDL
MODEL 5
REMARK VINA RESULT:      -7.2      1.738      8.096
REMARK  Name = 
REMARK  9 active torsions:
REMARK  status: ('A' for Active; 'I' for Inactive)
REMARK    1  A    between atoms: C_1  and  C_2
REMARK    2  A    between atoms: C_4  and  C_5
REMARK    3  A    between atoms: C_5  and  N_6
REMARK    4  A    between atoms: N_6  and  C_7
REMARK    5  A    between atoms: N_6  and  C_8
REMARK    6  A    between atoms: N_12  and  C_13
REMARK    7  A    between atoms: C_13  and  C_14
REMARK    8  A    between atoms: C_17  and  C_18
REMARK    9  A    between atoms: C_24  and  C_25
REMARK                            x       y       z     vdW  Elec       q    Type
REMARK                         _______ _______ _______ _____ _____    ______ ____
ROOT
ATOM      1  C   UNL     1       2.597   5.916  17.805  0.00  0.00    +0.000 C 
ATOM      2  C   UNL     1       2.017   4.676  18.522  0.00  0.00    +0.000 C 
ATOM      3  C   UNL     1       2.918   4.093  19.609  0.00  0.00    +0.000 C 
ATOM      4  C   UNL     1       4.359   3.937  19.139  0.00  0.00    +0.000 C 
ATOM      5  N   UNL     1       4.908   5.200  18.617  0.00  0.00    +0.000 NA
ATOM      6  C   UNL     1       4.103   5.678  17.478  0.00  0.00    +0.000 C 
ENDROOT
BRANCH   1   7
ATOM      7  N   UNL     1       2.201   7.208  18.422  0.00  0.00    +0.000 NA
ATOM      8  C   UNL     1       2.866   8.347  17.783  0.00  0.00    +0.000 C 
BRANCH   7   9
ATOM      9  C   UNL     1       2.342   7.279  19.892  0.00  0.00    +0.000 C 
BRANCH   9  13
ATOM     10  C   UNL     1      -0.399   9.921  23.099  0.00  0.00    +0.000 C 
ATOM     11  C   UNL     1       0.190   9.434  21.836  0.00  0.00    +0.000 A 
ATOM     12  N   UNL     1       1.097   8.398  21.823  0.00  0.00    +0.000 NA
ATOM     13  C   UNL     1       1.403   8.254  20.548  0.00  0.00    +0.000 A 
ATOM     14  O   UNL     1       0.749   9.126  19.714  0.00  0.00    +0.000 OA
ATOM     15  C   UNL     1      -0.023   9.880  20.551  0.00  0.00    +0.000 A 
ATOM     16  C   UNL     1      -0.849  10.938  19.945  0.00  0.00    +0.000 C 
ENDBRANCH   9  13
ENDBRANCH   7   9
ENDBRANCH   1   7
BRANCH   5  17
ATOM     17  C   UNL     1       6.324   5.032  18.185  0.00  0.00    +0.000 C 
BRANCH  17  18
ATOM     18  C   UNL     1       6.458   5.086  16.694  0.00  0.00    +0.000 A 
ATOM     19  N   UNL     1       7.247   5.961  16.056  0.00  0.00    +0.000 NA
ATOM     20  O   UNL     1       7.294   5.452  14.756  0.00  0.00    +0.000 OA
ATOM     21  C   UNL     1       6.501   4.338  14.741  0.00  0.00    +0.000 A 
ATOM     22  N   UNL     1       5.916   4.109  15.895  0.00  0.00    +0.000 NA
BRANCH  21  23
ATOM     23  C   UNL     1       6.389   3.411  13.541  0.00  0.00    +0.000 C 
ATOM     24  C   UNL     1       5.306   3.721  12.522  0.00  0.00    +0.000 C 
ATOM     25  C   UNL     1       6.736   3.923  12.160  0.00  0.00    +0.000 C 
ENDBRANCH  21  23
ENDBRANCH  17  18
ENDBRANCH   5  17
TORSDOF 6
ENDMDL
MODEL 6
REMARK VINA RESULT:      -7.1      0.814      1.042
REMARK  Name = 
REMARK  9 active torsions:
REMARK  status: ('A' for Active; 'I' for Inactive)
REMARK    1  A    between atoms: C_1  and  C_2
REMARK    2  A    between atoms: C_4  and  C_5
REMARK    3  A    between atoms: C_5  and  N_6
REMARK    4  A    between atoms: N_6  and  C_7
REMARK    5  A    between atoms: N_6  and  C_8
REMARK    6  A    between atoms: N_12  and  C_13
REMARK    7  A    between atoms: C_13  and  C_14
REMARK    8  A    between atoms: C_17  and  C_18
REMARK    9  A    between atoms: C_24  and  C_25
REMARK                            x       y       z     vdW  Elec       q    Type
REMARK                         _______ _______ _______ _____ _____    ______ ____
ROOT
ATOM      1  C   UNL     1       4.955   4.442  18.560  0.00  0.00    +0.000 C 
ATOM      2  C   UNL     1       4.074   3.344  17.923  0.00  0.00    +0.000 C 
ATOM      3  C   UNL     1       2.683   3.814  17.501  0.00  0.00    +0.000 C 
ATOM      4  C   UNL     1       1.995   4.626  18.591  0.00  0.00    +0.000 C 
ATOM      5  N   UNL     1       2.822   5.758  19.039  0.00  0.00    +0.000 NA
ATOM      6  C   UNL     1       4.110   5.275  19.571  0.00  0.00    +0.000 C 
ENDROOT
BRANCH   1   7
ATOM      7  N   UNL     1       5.811   5.166  17.586  0.00  0.00    +0.000 NA
ATOM      8  C   UNL     1       5.018   5.846  16.557  0.00  0.00    +0.000 C 
BRANCH   7   9
ATOM      9  C   UNL     1       6.889   4.365  16.968  0.00  0.00    +0.000 C 
BRANCH   9  13
ATOM     10  C   UNL     1       7.969   5.655  12.284  0.00  0.00    +0.000 C 
ATOM     11  C   UNL     1       7.348   4.974  13.437  0.00  0.00    +0.000 A 
ATOM     12  N   UNL     1       7.697   5.295  14.729  0.00  0.00    +0.000 NA
ATOM     13  C   UNL     1       6.960   4.490  15.472  0.00  0.00    +0.000 A 
ATOM     14  O   UNL     1       6.138   3.661  14.750  0.00  0.00    +0.000 OA
ATOM     15  C   UNL     1       6.397   3.978  13.448  0.00  0.00    +0.000 A 
ATOM     16  C   UNL     1       5.666   3.233  12.408  0.00  0.00    +0.000 C 
ENDBRANCH   9  13
ENDBRANCH   7   9
ENDBRANCH   1   7
BRANCH   5  17
ATOM     17  C   UNL     1       2.122   6.553  20.087  0.00  0.00    +0.000 C 
BRANCH  17  18
ATOM     18  C   UNL     1       1.864   7.958  19.635  0.00  0.00    +0.000 A 
ATOM     19  N   UNL     1       2.141   8.397  18.399  0.00  0.00    +0.000 NA
ATOM     20  O   UNL     1       1.469   9.620  18.343  0.00  0.00    +0.000 OA
ATOM     21  C   UNL     1       0.884   9.804  19.565  0.00  0.00    +0.000 A 
ATOM     22  N   UNL     1       1.151   8.837  20.413  0.00  0.00    +0.000 NA
BRANCH  21  23
ATOM     23  C   UNL     1      -0.056  10.959  19.874  0.00  0.00    +0.000 C 
ATOM     24  C   UNL     1      -0.342  11.942  18.751  0.00  0.00    +0.000 C 
ATOM     25  C   UNL     1      -1.416  11.019  19.213  0.00  0.00    +0.000 C 
ENDBRANCH  21  23
ENDBRANCH  17  18
ENDBRANCH   5  17
TORSDOF 6
ENDMDL
MODEL 7
REMARK VINA RESULT:      -6.9      1.482      7.917
REMARK  Name = 
REMARK  9 active torsions:
REMARK  status: ('A' for Active; 'I' for Inactive)
REMARK    1  A    between atoms: C_1  and  C_2
REMARK    2  A    between atoms: C_4  and  C_5
REMARK    3  A    between atoms: C_5  and  N_6
REMARK    4  A    between atoms: N_6  and  C_7
REMARK    5  A    between atoms: N_6  and  C_8
REMARK    6  A    between atoms: N_12  and  C_13
REMARK    7  A    between atoms: C_13  and  C_14
REMARK    8  A    between atoms: C_17  and  C_18
REMARK    9  A    between atoms: C_24  and  C_25
REMARK                            x       y       z     vdW  Elec       q    Type
REMARK                         _______ _______ _______ _____ _____    ______ ____
ROOT
ATOM      1  C   UNL     1       2.921   6.379  17.997  0.00  0.00    +0.000 C 
ATOM      2  C   UNL     1       2.272   5.251  18.829  0.00  0.00    +0.000 C 
ATOM      3  C   UNL     1       3.182   4.648  19.897  0.00  0.00    +0.000 C 
ATOM      4  C   UNL     1       4.567   4.318  19.353  0.00  0.00    +0.000 C 
ATOM      5  N   UNL     1       5.200   5.484  18.716  0.00  0.00    +0.000 NA
ATOM      6  C   UNL     1       4.372   5.971  17.598  0.00  0.00    +0.000 C 
ENDROOT
BRANCH   1   7
ATOM      7  N   UNL     1       2.694   7.740  18.548  0.00  0.00    +0.000 NA
ATOM      8  C   UNL     1       1.862   7.712  19.754  0.00  0.00    +0.000 C 
BRANCH   7   9
ATOM      9  C   UNL     1       2.182   8.738  17.585  0.00  0.00    +0.000 C 
BRANCH   9  13
ATOM     10  C   UNL     1       0.565  12.741  20.062  0.00  0.00    +0.000 C 
ATOM     11  C   UNL     1       0.568  11.508  19.250  0.00  0.00    +0.000 A 
ATOM     12  N   UNL     1       1.742  10.855  18.947  0.00  0.00    +0.000 NA
ATOM     13  C   UNL     1       1.358   9.826  18.215  0.00  0.00    +0.000 A 
ATOM     14  O   UNL     1       0.001   9.753  18.021  0.00  0.00    +0.000 OA
ATOM     15  C   UNL     1      -0.494  10.838  18.686  0.00  0.00    +0.000 A 
ATOM     16  C   UNL     1      -1.952  11.049  18.652  0.00  0.00    +0.000 C 
ENDBRANCH   9  13
ENDBRANCH   7   9
ENDBRANCH   1   7
BRANCH   5  17
ATOM     17  C   UNL     1       6.562   5.148  18.214  0.00  0.00    +0.000 C 
BRANCH  17  18
ATOM     18  C   UNL     1       6.619   5.164  16.717  0.00  0.00    +0.000 A 
ATOM     19  N   UNL     1       7.381   6.017  16.018  0.00  0.00    +0.000 NA
ATOM     20  O   UNL     1       7.357   5.476  14.730  0.00  0.00    +0.000 OA
ATOM     21  C   UNL     1       6.555   4.369  14.783  0.00  0.00    +0.000 A 
ATOM     22  N   UNL     1       6.028   4.174  15.971  0.00  0.00    +0.000 NA
BRANCH  21  23
ATOM     23  C   UNL     1       6.373   3.415  13.614  0.00  0.00    +0.000 C 
ATOM     24  C   UNL     1       5.316   3.772  12.583  0.00  0.00    +0.000 C 
ATOM     25  C   UNL     1       6.757   3.854  12.218  0.00  0.00    +0.000 C 
ENDBRANCH  21  23
ENDBRANCH  17  18
ENDBRANCH   5  17
TORSDOF 6
ENDMDL
MODEL 8
REMARK VINA RESULT:      -6.9      2.337      3.159
REMARK  Name = 
REMARK  9 active torsions:
REMARK  status: ('A' for Active; 'I' for Inactive)
REMARK    1  A    between atoms: C_1  and  C_2
REMARK    2  A    between atoms: C_4  and  C_5
REMARK    3  A    between atoms: C_5  and  N_6
REMARK    4  A    between atoms: N_6  and  C_7
REMARK    5  A    between atoms: N_6  and  C_8
REMARK    6  A    between atoms: N_12  and  C_13
REMARK    7  A    between atoms: C_13  and  C_14
REMARK    8  A    between atoms: C_17  and  C_18
REMARK    9  A    between atoms: C_24  and  C_25
REMARK                            x       y       z     vdW  Elec       q    Type
REMARK                         _______ _______ _______ _____ _____    ______ ____
ROOT
ATOM      1  C   UNL     1       3.602   4.164  18.972  0.00  0.00    +0.000 C 
ATOM      2  C   UNL     1       2.763   3.112  19.731  0.00  0.00    +0.000 C 
ATOM      3  C   UNL     1       1.352   3.570  20.094  0.00  0.00    +0.000 C 
ATOM      4  C   UNL     1       1.342   4.960  20.719  0.00  0.00    +0.000 C 
ATOM      5  N   UNL     1       2.016   5.952  19.867  0.00  0.00    +0.000 NA
ATOM      6  C   UNL     1       3.420   5.563  19.638  0.00  0.00    +0.000 C 
ENDROOT
BRANCH   1   7
ATOM      7  N   UNL     1       3.500   4.064  17.494  0.00  0.00    +0.000 NA
ATOM      8  C   UNL     1       2.707   2.904  17.076  0.00  0.00    +0.000 C 
BRANCH   7   9
ATOM      9  C   UNL     1       4.784   4.108  16.764  0.00  0.00    +0.000 C 
BRANCH   9  13
ATOM     10  C   UNL     1       8.423   5.532  19.848  0.00  0.00    +0.000 C 
ATOM     11  C   UNL     1       7.427   5.554  18.758  0.00  0.00    +0.000 A 
ATOM     12  N   UNL     1       6.600   4.478  18.523  0.00  0.00    +0.000 NA
ATOM     13  C   UNL     1       5.872   4.852  17.488  0.00  0.00    +0.000 A 
ATOM     14  O   UNL     1       6.161   6.112  17.027  0.00  0.00    +0.000 OA
ATOM     15  C   UNL     1       7.161   6.551  17.846  0.00  0.00    +0.000 A 
ATOM     16  C   UNL     1       7.708   7.895  17.592  0.00  0.00    +0.000 C 
ENDBRANCH   9  13
ENDBRANCH   7   9
ENDBRANCH   1   7
BRANCH   5  17
ATOM     17  C   UNL     1       1.974   7.307  20.484  0.00  0.00    +0.000 C 
BRANCH  17  18
ATOM     18  C   UNL     1       1.694   8.370  19.465  0.00  0.00    +0.000 A 
ATOM     19  N   UNL     1       2.053   8.270  18.178  0.00  0.00    +0.000 NA
ATOM     20  O   UNL     1       1.335   9.303  17.571  0.00  0.00    +0.000 OA
ATOM     21  C   UNL     1       0.643   9.939  18.565  0.00  0.00    +0.000 A 
ATOM     22  N   UNL     1       0.881   9.439  19.756  0.00  0.00    +0.000 NA
BRANCH  21  23
ATOM     23  C   UNL     1      -0.368  11.043  18.301  0.00  0.00    +0.000 C 
ATOM     24  C   UNL     1      -1.725  10.628  17.757  0.00  0.00    +0.000 C 
ATOM     25  C   UNL     1      -1.616  11.139  19.151  0.00  0.00    +0.000 C 
ENDBRANCH  21  23
ENDBRANCH  17  18
ENDBRANCH   5  17
TORSDOF 6
ENDMDL
MODEL 9
REMARK VINA RESULT:      -6.8      1.357      2.001
REMARK  Name = 
REMARK  9 active torsions:
REMARK  status: ('A' for Active; 'I' for Inactive)
REMARK    1  A    between atoms: C_1  and  C_2
REMARK    2  A    between atoms: C_4  and  C_5
REMARK    3  A    between atoms: C_5  and  N_6
REMARK    4  A    between atoms: N_6  and  C_7
REMARK    5  A    between atoms: N_6  and  C_8
REMARK    6  A    between atoms: N_12  and  C_13
REMARK    7  A    between atoms: C_13  and  C_14
REMARK    8  A    between atoms: C_17  and  C_18
REMARK    9  A    between atoms: C_24  and  C_25
REMARK                            x       y       z     vdW  Elec       q    Type
REMARK                         _______ _______ _______ _____ _____    ______ ____
ROOT
ATOM      1  C   UNL     1       4.843   4.399  18.462  0.00  0.00    +0.000 C 
ATOM      2  C   UNL     1       3.878   3.509  17.646  0.00  0.00    +0.000 C 
ATOM      3  C   UNL     1       2.488   4.107  17.440  0.00  0.00    +0.000 C 
ATOM      4  C   UNL     1       1.901   4.657  18.734  0.00  0.00    +0.000 C 
ATOM      5  N   UNL     1       2.803   5.626  19.379  0.00  0.00    +0.000 NA
ATOM      6  C   UNL     1       4.096   4.992  19.695  0.00  0.00    +0.000 C 
ENDROOT
BRANCH   1   7
ATOM      7  N   UNL     1       5.673   5.308  17.630  0.00  0.00    +0.000 NA
ATOM      8  C   UNL     1       4.881   5.978  16.593  0.00  0.00    +0.000 C 
BRANCH   7   9
ATOM      9  C   UNL     1       6.889   4.703  17.047  0.00  0.00    +0.000 C 
BRANCH   9  13
ATOM     10  C   UNL     1       5.850   3.307  12.384  0.00  0.00    +0.000 C 
ATOM     11  C   UNL     1       6.465   4.010  13.527  0.00  0.00    +0.000 A 
ATOM     12  N   UNL     1       6.097   3.725  14.823  0.00  0.00    +0.000 NA
ATOM     13  C   UNL     1       6.834   4.541  15.553  0.00  0.00    +0.000 A 
ATOM     14  O   UNL     1       7.673   5.343  14.821  0.00  0.00    +0.000 OA
ATOM     15  C   UNL     1       7.426   4.996  13.524  0.00  0.00    +0.000 A 
ATOM     16  C   UNL     1       8.177   5.707  12.475  0.00  0.00    +0.000 C 
ENDBRANCH   9  13
ENDBRANCH   7   9
ENDBRANCH   1   7
BRANCH   5  17
ATOM     17  C   UNL     1       2.200   6.170  20.628  0.00  0.00    +0.000 C 
BRANCH  17  18
ATOM     18  C   UNL     1       1.533   7.490  20.391  0.00  0.00    +0.000 A 
ATOM     19  N   UNL     1       0.839   8.145  21.333  0.00  0.00    +0.000 NA
ATOM     20  O   UNL     1       0.679   9.417  20.776  0.00  0.00    +0.000 OA
ATOM     21  C   UNL     1       1.267   9.384  19.542  0.00  0.00    +0.000 A 
ATOM     22  N   UNL     1       1.751   8.201  19.236  0.00  0.00    +0.000 NA
BRANCH  21  23
ATOM     23  C   UNL     1       1.428  10.613  18.662  0.00  0.00    +0.000 C 
ATOM     24  C   UNL     1       0.223  11.526  18.518  0.00  0.00    +0.000 C 
ATOM     25  C   UNL     1       1.411  11.991  19.285  0.00  0.00    +0.000 C 
ENDBRANCH  21  23
ENDBRANCH  17  18
ENDBRANCH   5  17
TORSDOF 6
ENDMDL
