MODEL 1
REMARK VINA RESULT:      -8.2      0.000      0.000
REMARK  Name = 
REMARK  7 active torsions:
REMARK  status: ('A' for Active; 'I' for Inactive)
REMARK    1  A    between atoms: C_1  and  C_2
REMARK    2  A    between atoms: C_7  and  O_8
REMARK    3  A    between atoms: O_8  and  C_9
REMARK    4  A    between atoms: C_9  and  C_10
REMARK    5  A    between atoms: C_10  and  O_11
REMARK    6  A    between atoms: C_10  and  C_12
REMARK    7  A    between atoms: C_12  and  N_13
REMARK                            x       y       z     vdW  Elec       q    Type
REMARK                         _______ _______ _______ _____ _____    ______ ____
ROOT
ATOM      1  C   UNL     1       4.861   4.944  17.267  0.00  0.00    +0.000 C 
ENDROOT
BRANCH   1   2
ATOM      2  N   UNL     1       3.871   5.236  18.290  0.00  0.00    +0.000 N 
ATOM      3  C   UNL     1       3.216   6.451  18.428  0.00  0.00    +0.000 A 
ATOM      4  C   UNL     1       3.247   7.624  17.649  0.00  0.00    +0.000 A 
ATOM      5  C   UNL     1       2.484   8.720  18.069  0.00  0.00    +0.000 A 
ATOM      6  C   UNL     1       1.713   8.656  19.222  0.00  0.00    +0.000 A 
ATOM      7  C   UNL     1       1.682   7.486  19.985  0.00  0.00    +0.000 A 
ATOM      8  C   UNL     1       2.441   6.367  19.586  0.00  0.00    +0.000 A 
ATOM      9  C   UNL     1       2.625   5.061  20.138  0.00  0.00    +0.000 A 
ATOM     10  C   UNL     1       2.113   4.417  21.284  0.00  0.00    +0.000 A 
ATOM     11  C   UNL     1       2.485   3.100  21.563  0.00  0.00    +0.000 A 
ATOM     12  C   UNL     1       3.360   2.424  20.720  0.00  0.00    +0.000 A 
ATOM     13  C   UNL     1       3.895   3.048  19.588  0.00  0.00    +0.000 A 
ATOM     14  C   UNL     1       3.513   4.371  19.310  0.00  0.00    +0.000 A 
ENDBRANCH   1   2
BRANCH   1  15
ATOM     15  C   UNL     1       6.331   5.040  17.697  0.00  0.00    +0.000 C 
BRANCH  15  16
ATOM     16  O   UNL     1       6.589   6.397  18.100  0.00  0.00    +0.000 OA
ATOM     17  H   UNL     1       6.624   6.430  19.072  0.00  0.00    +0.000 HD
ENDBRANCH  15  16
BRANCH  15  18
ATOM     18  C   UNL     1       7.310   4.588  16.599  0.00  0.00    +0.000 C 
BRANCH  18  19
ATOM     19  O   UNL     1       7.126   5.418  15.451  0.00  0.00    +0.000 OA
BRANCH  19  26
ATOM     20  C   UNL     1       8.862   5.940  12.918  0.00  0.00    +0.000 C 
ATOM     21  C   UNL     1       7.678   5.026  13.049  0.00  0.00    +0.000 A 
ATOM     22  C   UNL     1       7.257   4.367  11.875  0.00  0.00    +0.000 A 
ATOM     23  C   UNL     1       6.135   3.540  11.862  0.00  0.00    +0.000 A 
ATOM     24  C   UNL     1       5.411   3.347  13.031  0.00  0.00    +0.000 A 
ATOM     25  C   UNL     1       5.814   3.991  14.202  0.00  0.00    +0.000 A 
ATOM     26  C   UNL     1       6.947   4.822  14.232  0.00  0.00    +0.000 A 
ENDBRANCH  19  26
ENDBRANCH  18  19
ENDBRANCH  15  18
ENDBRANCH   1  15
TORSDOF 6
ENDMDL
MODEL 2
REMARK VINA RESULT:      -8.1      0.691      3.246
REMARK  Name = 
REMARK  7 active torsions:
REMARK  status: ('A' for Active; 'I' for Inactive)
REMARK    1  A    between atoms: C_1  and  C_2
REMARK    2  A    between atoms: C_7  and  O_8
REMARK    3  A    between atoms: O_8  and  C_9
REMARK    4  A    between atoms: C_9  and  C_10
REMARK    5  A    between atoms: C_10  and  O_11
REMARK    6  A    between atoms: C_10  and  C_12
REMARK    7  A    between atoms: C_12  and  N_13
REMARK                            x       y       z     vdW  Elec       q    Type
REMARK                         _______ _______ _______ _____ _____    ______ ____
ROOT
ATOM      1  C   UNL     1       4.412   5.992  17.092  0.00  0.00    +0.000 C 
ENDROOT
BRANCH   1   2
ATOM      2  N   UNL     1       3.599   6.040  18.295  0.00  0.00    +0.000 N 
ATOM      3  C   UNL     1       3.425   4.978  19.170  0.00  0.00    +0.000 A 
ATOM      4  C   UNL     1       3.990   3.689  19.200  0.00  0.00    +0.000 A 
ATOM      5  C   UNL     1       3.585   2.810  20.213  0.00  0.00    +0.000 A 
ATOM      6  C   UNL     1       2.652   3.196  21.166  0.00  0.00    +0.000 A 
ATOM      7  C   UNL     1       2.102   4.480  21.133  0.00  0.00    +0.000 A 
ATOM      8  C   UNL     1       2.492   5.386  20.125  0.00  0.00    +0.000 A 
ATOM      9  C   UNL     1       2.118   6.732  19.820  0.00  0.00    +0.000 A 
ATOM     10  C   UNL     1       1.224   7.645  20.419  0.00  0.00    +0.000 A 
ATOM     11  C   UNL     1       1.074   8.924  19.878  0.00  0.00    +0.000 A 
ATOM     12  C   UNL     1       1.798   9.299  18.752  0.00  0.00    +0.000 A 
ATOM     13  C   UNL     1       2.677   8.405  18.130  0.00  0.00    +0.000 A 
ATOM     14  C   UNL     1       2.826   7.122  18.681  0.00  0.00    +0.000 A 
ENDBRANCH   1   2
BRANCH   1  15
ATOM     15  C   UNL     1       5.929   6.118  17.290  0.00  0.00    +0.000 C 
BRANCH  15  16
ATOM     16  O   UNL     1       6.338   7.400  16.779  0.00  0.00    +0.000 OA
ATOM     17  H   UNL     1       6.057   7.468  15.850  0.00  0.00    +0.000 HD
ENDBRANCH  15  16
BRANCH  15  18
ATOM     18  C   UNL     1       6.719   4.975  16.630  0.00  0.00    +0.000 C 
BRANCH  18  19
ATOM     19  O   UNL     1       7.334   5.471  15.439  0.00  0.00    +0.000 OA
BRANCH  19  26
ATOM     20  C   UNL     1       8.810   6.002  12.748  0.00  0.00    +0.000 C 
ATOM     21  C   UNL     1       7.680   5.048  13.004  0.00  0.00    +0.000 A 
ATOM     22  C   UNL     1       7.180   4.347  11.886  0.00  0.00    +0.000 A 
ATOM     23  C   UNL     1       6.096   3.479  11.992  0.00  0.00    +0.000 A 
ATOM     24  C   UNL     1       5.490   3.284  13.226  0.00  0.00    +0.000 A 
ATOM     25  C   UNL     1       5.972   3.968  14.342  0.00  0.00    +0.000 A 
ATOM     26  C   UNL     1       7.069   4.842  14.253  0.00  0.00    +0.000 A 
ENDBRANCH  19  26
ENDBRANCH  18  19
ENDBRANCH  15  18
ENDBRANCH   1  15
TORSDOF 6
ENDMDL
MODEL 3
REMARK VINA RESULT:      -8.1      3.356      8.006
REMARK  Name = 
REMARK  7 active torsions:
REMARK  status: ('A' for Active; 'I' for Inactive)
REMARK    1  A    between atoms: C_1  and  C_2
REMARK    2  A    between atoms: C_7  and  O_8
REMARK    3  A    between atoms: O_8  and  C_9
REMARK    4  A    between atoms: C_9  and  C_10
REMARK    5  A    between atoms: C_10  and  O_11
REMARK    6  A    between atoms: C_10  and  C_12
REMARK    7  A    between atoms: C_12  and  N_13
REMARK                            x       y       z     vdW  Elec       q    Type
REMARK                         _______ _______ _______ _____ _____    ______ ____
ROOT
ATOM      1  C   UNL     1       2.660   7.580  19.117  0.00  0.00    +0.000 C 
ENDROOT
BRANCH   1   2
ATOM      2  N   UNL     1       2.873   6.233  18.614  0.00  0.00    +0.000 N 
ATOM      3  C   UNL     1       2.285   5.093  19.142  0.00  0.00    +0.000 A 
ATOM      4  C   UNL     1       1.337   4.920  20.168  0.00  0.00    +0.000 A 
ATOM      5  C   UNL     1       0.952   3.616  20.503  0.00  0.00    +0.000 A 
ATOM      6  C   UNL     1       1.489   2.519  19.842  0.00  0.00    +0.000 A 
ATOM      7  C   UNL     1       2.424   2.700  18.820  0.00  0.00    +0.000 A 
ATOM      8  C   UNL     1       2.829   4.002  18.461  0.00  0.00    +0.000 A 
ATOM      9  C   UNL     1       3.747   4.510  17.491  0.00  0.00    +0.000 A 
ATOM     10  C   UNL     1       4.584   3.891  16.536  0.00  0.00    +0.000 A 
ATOM     11  C   UNL     1       5.386   4.676  15.705  0.00  0.00    +0.000 A 
ATOM     12  C   UNL     1       5.368   6.061  15.817  0.00  0.00    +0.000 A 
ATOM     13  C   UNL     1       4.561   6.697  16.768  0.00  0.00    +0.000 A 
ATOM     14  C   UNL     1       3.753   5.902  17.598  0.00  0.00    +0.000 A 
ENDBRANCH   1   2
BRANCH   1  15
ATOM     15  C   UNL     1       1.624   8.430  18.369  0.00  0.00    +0.000 C 
BRANCH  15  16
ATOM     16  O   UNL     1       2.300   9.112  17.297  0.00  0.00    +0.000 OA
ATOM     17  H   UNL     1       3.170   9.406  17.617  0.00  0.00    +0.000 HD
ENDBRANCH  15  16
BRANCH  15  18
ATOM     18  C   UNL     1       0.884   9.421  19.284  0.00  0.00    +0.000 C 
BRANCH  18  19
ATOM     19  O   UNL     1       0.470  10.544  18.504  0.00  0.00    +0.000 OA
BRANCH  19  26
ATOM     20  C   UNL     1      -1.216  12.600  20.127  0.00  0.00    +0.000 C 
ATOM     21  C   UNL     1      -1.691  11.666  19.051  0.00  0.00    +0.000 A 
ATOM     22  C   UNL     1      -3.075  11.670  18.778  0.00  0.00    +0.000 A 
ATOM     23  C   UNL     1      -3.638  10.805  17.842  0.00  0.00    +0.000 A 
ATOM     24  C   UNL     1      -2.825   9.919  17.149  0.00  0.00    +0.000 A 
ATOM     25  C   UNL     1      -1.454   9.902  17.406  0.00  0.00    +0.000 A 
ATOM     26  C   UNL     1      -0.870  10.773  18.342  0.00  0.00    +0.000 A 
ENDBRANCH  19  26
ENDBRANCH  18  19
ENDBRANCH  15  18
ENDBRANCH   1  15
TORSDOF 6
ENDMDL
MODEL 4
REMARK VINA RESULT:      -8.1      3.347      7.653
REMARK  Name = 
REMARK  7 active torsions:
REMARK  status: ('A' for Active; 'I' for Inactive)
REMARK    1  A    between atoms: C_1  and  C_2
REMARK    2  A    between atoms: C_7  and  O_8
REMARK    3  A    between atoms: O_8  and  C_9
REMARK    4  A    between atoms: C_9  and  C_10
REMARK    5  A    between atoms: C_10  and  O_11
REMARK    6  A    between atoms: C_10  and  C_12
REMARK    7  A    between atoms: C_12  and  N_13
REMARK                            x       y       z     vdW  Elec       q    Type
REMARK                         _______ _______ _______ _____ _____    ______ ____
ROOT
ATOM      1  C   UNL     1       2.700   7.511  19.123  0.00  0.00    +0.000 C 
ENDROOT
BRANCH   1   2
ATOM      2  N   UNL     1       2.970   6.168  18.637  0.00  0.00    +0.000 N 
ATOM      3  C   UNL     1       3.844   5.865  17.604  0.00  0.00    +0.000 A 
ATOM      4  C   UNL     1       4.709   6.675  16.844  0.00  0.00    +0.000 A 
ATOM      5  C   UNL     1       5.459   6.072  15.827  0.00  0.00    +0.000 A 
ATOM      6  C   UNL     1       5.357   4.711  15.572  0.00  0.00    +0.000 A 
ATOM      7  C   UNL     1       4.502   3.913  16.336  0.00  0.00    +0.000 A 
ATOM      8  C   UNL     1       3.735   4.494  17.367  0.00  0.00    +0.000 A 
ATOM      9  C   UNL     1       2.786   3.966  18.298  0.00  0.00    +0.000 A 
ATOM     10  C   UNL     1       2.273   2.671  18.524  0.00  0.00    +0.000 A 
ATOM     11  C   UNL     1       1.335   2.464  19.538  0.00  0.00    +0.000 A 
ATOM     12  C   UNL     1       0.902   3.528  20.320  0.00  0.00    +0.000 A 
ATOM     13  C   UNL     1       1.382   4.825  20.102  0.00  0.00    +0.000 A 
ATOM     14  C   UNL     1       2.329   5.025  19.084  0.00  0.00    +0.000 A 
ENDBRANCH   1   2
BRANCH   1  15
ATOM     15  C   UNL     1       1.630   8.307  18.364  0.00  0.00    +0.000 C 
BRANCH  15  16
ATOM     16  O   UNL     1       2.273   8.979  17.265  0.00  0.00    +0.000 OA
ATOM     17  H   UNL     1       3.156   8.591  17.139  0.00  0.00    +0.000 HD
ENDBRANCH  15  16
BRANCH  15  18
ATOM     18  C   UNL     1       0.870   9.300  19.259  0.00  0.00    +0.000 C 
BRANCH  18  19
ATOM     19  O   UNL     1       0.479  10.424  18.469  0.00  0.00    +0.000 OA
BRANCH  19  26
ATOM     20  C   UNL     1      -1.154  12.509  20.108  0.00  0.00    +0.000 C 
ATOM     21  C   UNL     1      -1.654  11.593  19.028  0.00  0.00    +0.000 A 
ATOM     22  C   UNL     1      -3.038  11.631  18.759  0.00  0.00    +0.000 A 
ATOM     23  C   UNL     1      -3.624  10.785  17.819  0.00  0.00    +0.000 A 
ATOM     24  C   UNL     1      -2.832   9.884  17.120  0.00  0.00    +0.000 A 
ATOM     25  C   UNL     1      -1.461   9.834  17.373  0.00  0.00    +0.000 A 
ATOM     26  C   UNL     1      -0.855  10.685  18.312  0.00  0.00    +0.000 A 
ENDBRANCH  19  26
ENDBRANCH  18  19
ENDBRANCH  15  18
ENDBRANCH   1  15
TORSDOF 6
ENDMDL
MODEL 5
REMARK VINA RESULT:      -8.0      3.016      7.957
REMARK  Name = 
REMARK  7 active torsions:
REMARK  status: ('A' for Active; 'I' for Inactive)
REMARK    1  A    between atoms: C_1  and  C_2
REMARK    2  A    between atoms: C_7  and  O_8
REMARK    3  A    between atoms: O_8  and  C_9
REMARK    4  A    between atoms: C_9  and  C_10
REMARK    5  A    between atoms: C_10  and  O_11
REMARK    6  A    between atoms: C_10  and  C_12
REMARK    7  A    between atoms: C_12  and  N_13
REMARK                            x       y       z     vdW  Elec       q    Type
REMARK                         _______ _______ _______ _____ _____    ______ ____
ROOT
ATOM      1  C   UNL     1       2.552   7.648  19.017  0.00  0.00    +0.000 C 
ENDROOT
BRANCH   1   2
ATOM      2  N   UNL     1       2.903   6.290  18.636  0.00  0.00    +0.000 N 
ATOM      3  C   UNL     1       3.795   5.961  17.626  0.00  0.00    +0.000 A 
ATOM      4  C   UNL     1       4.611   6.760  16.803  0.00  0.00    +0.000 A 
ATOM      5  C   UNL     1       5.398   6.127  15.833  0.00  0.00    +0.000 A 
ATOM      6  C   UNL     1       5.378   4.746  15.685  0.00  0.00    +0.000 A 
ATOM      7  C   UNL     1       4.572   3.960  16.511  0.00  0.00    +0.000 A 
ATOM      8  C   UNL     1       3.769   4.571  17.497  0.00  0.00    +0.000 A 
ATOM      9  C   UNL     1       2.853   4.062  18.469  0.00  0.00    +0.000 A 
ATOM     10  C   UNL     1       2.419   2.759  18.796  0.00  0.00    +0.000 A 
ATOM     11  C   UNL     1       1.493   2.575  19.826  0.00  0.00    +0.000 A 
ATOM     12  C   UNL     1       0.996   3.669  20.525  0.00  0.00    +0.000 A 
ATOM     13  C   UNL     1       1.397   4.971  20.206  0.00  0.00    +0.000 A 
ATOM     14  C   UNL     1       2.331   5.149  19.172  0.00  0.00    +0.000 A 
ENDBRANCH   1   2
BRANCH   1  15
ATOM     15  C   UNL     1       1.743   8.454  17.992  0.00  0.00    +0.000 C 
BRANCH  15  16
ATOM     16  O   UNL     1       2.647   9.352  17.321  0.00  0.00    +0.000 OA
ATOM     17  H   UNL     1       2.211   9.688  16.519  0.00  0.00    +0.000 HD
ENDBRANCH  15  16
BRANCH  15  18
ATOM     18  C   UNL     1       0.563   9.215  18.621  0.00  0.00    +0.000 C 
BRANCH  18  19
ATOM     19  O   UNL     1       1.067  10.083  19.638  0.00  0.00    +0.000 OA
BRANCH  19  26
ATOM     20  C   UNL     1      -0.623  12.656  20.117  0.00  0.00    +0.000 C 
ATOM     21  C   UNL     1      -0.479  11.469  21.024  0.00  0.00    +0.000 A 
ATOM     22  C   UNL     1      -1.134  11.544  22.271  0.00  0.00    +0.000 A 
ATOM     23  C   UNL     1      -1.024  10.528  23.218  0.00  0.00    +0.000 A 
ATOM     24  C   UNL     1      -0.259   9.405  22.934  0.00  0.00    +0.000 A 
ATOM     25  C   UNL     1       0.396   9.313  21.705  0.00  0.00    +0.000 A 
ATOM     26  C   UNL     1       0.289  10.327  20.738  0.00  0.00    +0.000 A 
ENDBRANCH  19  26
ENDBRANCH  18  19
ENDBRANCH  15  18
ENDBRANCH   1  15
TORSDOF 6
ENDMDL
MODEL 6
REMARK VINA RESULT:      -8.0      3.011      8.274
REMARK  Name = 
REMARK  7 active torsions:
REMARK  status: ('A' for Active; 'I' for Inactive)
REMARK    1  A    between atoms: C_1  and  C_2
REMARK    2  A    between atoms: C_7  and  O_8
REMARK    3  A    between atoms: O_8  and  C_9
REMARK    4  A    between atoms: C_9  and  C_10
REMARK    5  A    between atoms: C_10  and  O_11
REMARK    6  A    between atoms: C_10  and  C_12
REMARK    7  A    between atoms: C_12  and  N_13
REMARK                            x       y       z     vdW  Elec       q    Type
REMARK                         _______ _______ _______ _____ _____    ______ ____
ROOT
ATOM      1  C   UNL     1       2.568   7.661  18.906  0.00  0.00    +0.000 C 
ENDROOT
BRANCH   1   2
ATOM      2  N   UNL     1       2.841   6.291  18.505  0.00  0.00    +0.000 N 
ATOM      3  C   UNL     1       2.292   5.169  19.109  0.00  0.00    +0.000 A 
ATOM      4  C   UNL     1       1.338   5.033  20.136  0.00  0.00    +0.000 A 
ATOM      5  C   UNL     1       1.001   3.742  20.562  0.00  0.00    +0.000 A 
ATOM      6  C   UNL     1       1.589   2.623  19.988  0.00  0.00    +0.000 A 
ATOM      7  C   UNL     1       2.529   2.767  18.965  0.00  0.00    +0.000 A 
ATOM      8  C   UNL     1       2.887   4.055  18.516  0.00  0.00    +0.000 A 
ATOM      9  C   UNL     1       3.797   4.527  17.520  0.00  0.00    +0.000 A 
ATOM     10  C   UNL     1       4.669   3.875  16.622  0.00  0.00    +0.000 A 
ATOM     11  C   UNL     1       5.450   4.629  15.743  0.00  0.00    +0.000 A 
ATOM     12  C   UNL     1       5.376   6.017  15.753  0.00  0.00    +0.000 A 
ATOM     13  C   UNL     1       4.532   6.687  16.647  0.00  0.00    +0.000 A 
ATOM     14  C   UNL     1       3.746   5.923  17.525  0.00  0.00    +0.000 A 
ENDBRANCH   1   2
BRANCH   1  15
ATOM     15  C   UNL     1       1.722   8.498  17.938  0.00  0.00    +0.000 C 
BRANCH  15  16
ATOM     16  O   UNL     1       2.605   9.397  17.241  0.00  0.00    +0.000 OA
ATOM     17  H   UNL     1       3.130   9.886  17.897  0.00  0.00    +0.000 HD
ENDBRANCH  15  16
BRANCH  15  18
ATOM     18  C   UNL     1       0.585   9.262  18.637  0.00  0.00    +0.000 C 
BRANCH  18  19
ATOM     19  O   UNL     1       1.133  10.001  19.730  0.00  0.00    +0.000 OA
BRANCH  19  26
ATOM     20  C   UNL     1      -0.475  12.644  20.096  0.00  0.00    +0.000 C 
ATOM     21  C   UNL     1      -0.409  11.471  21.030  0.00  0.00    +0.000 A 
ATOM     22  C   UNL     1      -1.107  11.595  22.250  0.00  0.00    +0.000 A 
ATOM     23  C   UNL     1      -1.070  10.595  23.220  0.00  0.00    +0.000 A 
ATOM     24  C   UNL     1      -0.337   9.440  22.986  0.00  0.00    +0.000 A 
ATOM     25  C   UNL     1       0.358   9.299  21.785  0.00  0.00    +0.000 A 
ATOM     26  C   UNL     1       0.325  10.296  20.795  0.00  0.00    +0.000 A 
ENDBRANCH  19  26
ENDBRANCH  18  19
ENDBRANCH  15  18
ENDBRANCH   1  15
TORSDOF 6
ENDMDL
MODEL 7
REMARK VINA RESULT:      -8.0      3.333      8.185
REMARK  Name = 
REMARK  7 active torsions:
REMARK  status: ('A' for Active; 'I' for Inactive)
REMARK    1  A    between atoms: C_1  and  C_2
REMARK    2  A    between atoms: C_7  and  O_8
REMARK    3  A    between atoms: O_8  and  C_9
REMARK    4  A    between atoms: C_9  and  C_10
REMARK    5  A    between atoms: C_10  and  O_11
REMARK    6  A    between atoms: C_10  and  C_12
REMARK    7  A    between atoms: C_12  and  N_13
REMARK                            x       y       z     vdW  Elec       q    Type
REMARK                         _______ _______ _______ _____ _____    ______ ____
ROOT
ATOM      1  C   UNL     1       2.732   7.508  19.152  0.00  0.00    +0.000 C 
ENDROOT
BRANCH   1   2
ATOM      2  N   UNL     1       2.920   6.168  18.621  0.00  0.00    +0.000 N 
ATOM      3  C   UNL     1       2.321   5.027  19.133  0.00  0.00    +0.000 A 
ATOM      4  C   UNL     1       1.381   4.847  20.166  0.00  0.00    +0.000 A 
ATOM      5  C   UNL     1       0.981   3.543  20.480  0.00  0.00    +0.000 A 
ATOM      6  C   UNL     1       1.495   2.451  19.793  0.00  0.00    +0.000 A 
ATOM      7  C   UNL     1       2.421   2.639  18.764  0.00  0.00    +0.000 A 
ATOM      8  C   UNL     1       2.841   3.941  18.426  0.00  0.00    +0.000 A 
ATOM      9  C   UNL     1       3.757   4.454  17.456  0.00  0.00    +0.000 A 
ATOM     10  C   UNL     1       4.574   3.842  16.481  0.00  0.00    +0.000 A 
ATOM     11  C   UNL     1       5.379   4.631  15.656  0.00  0.00    +0.000 A 
ATOM     12  C   UNL     1       5.383   6.014  15.795  0.00  0.00    +0.000 A 
ATOM     13  C   UNL     1       4.595   6.642  16.766  0.00  0.00    +0.000 A 
ATOM     14  C   UNL     1       3.785   5.844  17.589  0.00  0.00    +0.000 A 
ENDBRANCH   1   2
BRANCH   1  15
ATOM     15  C   UNL     1       1.678   8.376  18.452  0.00  0.00    +0.000 C 
BRANCH  15  16
ATOM     16  O   UNL     1       2.305   9.014  17.325  0.00  0.00    +0.000 OA
ATOM     17  H   UNL     1       3.258   8.817  17.349  0.00  0.00    +0.000 HD
ENDBRANCH  15  16
BRANCH  15  18
ATOM     18  C   UNL     1       1.030   9.409  19.390  0.00  0.00    +0.000 C 
BRANCH  18  19
ATOM     19  O   UNL     1       0.543  10.499  18.605  0.00  0.00    +0.000 OA
BRANCH  19  26
ATOM     20  C   UNL     1      -1.999   9.928  16.898  0.00  0.00    +0.000 C 
ATOM     21  C   UNL     1      -1.889  10.785  18.126  0.00  0.00    +0.000 A 
ATOM     22  C   UNL     1      -3.058  11.465  18.527  0.00  0.00    +0.000 A 
ATOM     23  C   UNL     1      -3.062  12.334  19.617  0.00  0.00    +0.000 A 
ATOM     24  C   UNL     1      -1.892  12.535  20.338  0.00  0.00    +0.000 A 
ATOM     25  C   UNL     1      -0.727  11.870  19.955  0.00  0.00    +0.000 A 
ATOM     26  C   UNL     1      -0.710  10.986  18.863  0.00  0.00    +0.000 A 
ENDBRANCH  19  26
ENDBRANCH  18  19
ENDBRANCH  15  18
ENDBRANCH   1  15
TORSDOF 6
ENDMDL
MODEL 8
REMARK VINA RESULT:      -7.9      3.243      7.795
REMARK  Name = 
REMARK  7 active torsions:
REMARK  status: ('A' for Active; 'I' for Inactive)
REMARK    1  A    between atoms: C_1  and  C_2
REMARK    2  A    between atoms: C_7  and  O_8
REMARK    3  A    between atoms: O_8  and  C_9
REMARK    4  A    between atoms: C_9  and  C_10
REMARK    5  A    between atoms: C_10  and  O_11
REMARK    6  A    between atoms: C_10  and  C_12
REMARK    7  A    between atoms: C_12  and  N_13
REMARK                            x       y       z     vdW  Elec       q    Type
REMARK                         _______ _______ _______ _____ _____    ______ ____
ROOT
ATOM      1  C   UNL     1       2.879   7.246  19.064  0.00  0.00    +0.000 C 
ENDROOT
BRANCH   1   2
ATOM      2  N   UNL     1       3.122   5.936  18.484  0.00  0.00    +0.000 N 
ATOM      3  C   UNL     1       4.037   5.679  17.473  0.00  0.00    +0.000 A 
ATOM      4  C   UNL     1       4.970   6.510  16.825  0.00  0.00    +0.000 A 
ATOM      5  C   UNL     1       5.749   5.959  15.800  0.00  0.00    +0.000 A 
ATOM      6  C   UNL     1       5.608   4.628  15.429  0.00  0.00    +0.000 A 
ATOM      7  C   UNL     1       4.684   3.809  16.083  0.00  0.00    +0.000 A 
ATOM      8  C   UNL     1       3.888   4.337  17.120  0.00  0.00    +0.000 A 
ATOM      9  C   UNL     1       2.872   3.778  17.957  0.00  0.00    +0.000 A 
ATOM     10  C   UNL     1       2.299   2.491  18.051  0.00  0.00    +0.000 A 
ATOM     11  C   UNL     1       1.302   2.244  18.997  0.00  0.00    +0.000 A 
ATOM     12  C   UNL     1       0.870   3.260  19.842  0.00  0.00    +0.000 A 
ATOM     13  C   UNL     1       1.410   4.548  19.755  0.00  0.00    +0.000 A 
ATOM     14  C   UNL     1       2.415   4.789  18.804  0.00  0.00    +0.000 A 
ENDBRANCH   1   2
BRANCH   1  15
ATOM     15  C   UNL     1       1.846   8.126  18.348  0.00  0.00    +0.000 C 
BRANCH  15  16
ATOM     16  O   UNL     1       2.512   8.801  17.265  0.00  0.00    +0.000 OA
ATOM     17  H   UNL     1       3.465   8.614  17.323  0.00  0.00    +0.000 HD
ENDBRANCH  15  16
BRANCH  15  18
ATOM     18  C   UNL     1       1.152   9.127  19.288  0.00  0.00    +0.000 C 
BRANCH  18  19
ATOM     19  O   UNL     1       0.711  10.248  18.520  0.00  0.00    +0.000 OA
BRANCH  19  26
ATOM     20  C   UNL     1      -1.960   9.895  16.956  0.00  0.00    +0.000 C 
ATOM     21  C   UNL     1      -1.712  10.738  18.173  0.00  0.00    +0.000 A 
ATOM     22  C   UNL     1      -2.796  11.513  18.636  0.00  0.00    +0.000 A 
ATOM     23  C   UNL     1      -2.667  12.377  19.722  0.00  0.00    +0.000 A 
ATOM     24  C   UNL     1      -1.447  12.478  20.377  0.00  0.00    +0.000 A 
ATOM     25  C   UNL     1      -0.364  11.718  19.933  0.00  0.00    +0.000 A 
ATOM     26  C   UNL     1      -0.481  10.838  18.844  0.00  0.00    +0.000 A 
ENDBRANCH  19  26
ENDBRANCH  18  19
ENDBRANCH  15  18
ENDBRANCH   1  15
TORSDOF 6
ENDMDL
MODEL 9
REMARK VINA RESULT:      -7.9      3.311      8.602
REMARK  Name = 
REMARK  7 active torsions:
REMARK  status: ('A' for Active; 'I' for Inactive)
REMARK    1  A    between atoms: C_1  and  C_2
REMARK    2  A    between atoms: C_7  and  O_8
REMARK    3  A    between atoms: O_8  and  C_9
REMARK    4  A    between atoms: C_9  and  C_10
REMARK    5  A    between atoms: C_10  and  O_11
REMARK    6  A    between atoms: C_10  and  C_12
REMARK    7  A    between atoms: C_12  and  N_13
REMARK                            x       y       z     vdW  Elec       q    Type
REMARK                         _______ _______ _______ _____ _____    ______ ____
ROOT
ATOM      1  C   UNL     1       2.808   7.402  19.293  0.00  0.00    +0.000 C 
ENDROOT
BRANCH   1   2
ATOM      2  N   UNL     1       2.955   6.109  18.645  0.00  0.00    +0.000 N 
ATOM      3  C   UNL     1       2.292   4.954  19.033  0.00  0.00    +0.000 A 
ATOM      4  C   UNL     1       1.313   4.724  20.019  0.00  0.00    +0.000 A 
ATOM      5  C   UNL     1       0.848   3.416  20.199  0.00  0.00    +0.000 A 
ATOM      6  C   UNL     1       1.336   2.370  19.427  0.00  0.00    +0.000 A 
ATOM      7  C   UNL     1       2.301   2.608  18.446  0.00  0.00    +0.000 A 
ATOM      8  C   UNL     1       2.787   3.916  18.242  0.00  0.00    +0.000 A 
ATOM      9  C   UNL     1       3.754   4.473  17.349  0.00  0.00    +0.000 A 
ATOM     10  C   UNL     1       4.574   3.916  16.344  0.00  0.00    +0.000 A 
ATOM     11  C   UNL     1       5.438   4.740  15.618  0.00  0.00    +0.000 A 
ATOM     12  C   UNL     1       5.496   6.103  15.885  0.00  0.00    +0.000 A 
ATOM     13  C   UNL     1       4.706   6.675  16.889  0.00  0.00    +0.000 A 
ATOM     14  C   UNL     1       3.837   5.842  17.612  0.00  0.00    +0.000 A 
ENDBRANCH   1   2
BRANCH   1  15
ATOM     15  C   UNL     1       1.725   8.328  18.726  0.00  0.00    +0.000 C 
BRANCH  15  16
ATOM     16  O   UNL     1       2.155   8.771  17.426  0.00  0.00    +0.000 OA
ATOM     17  H   UNL     1       1.540   8.419  16.760  0.00  0.00    +0.000 HD
ENDBRANCH  15  16
BRANCH  15  18
ATOM     18  C   UNL     1       1.410   9.520  19.646  0.00  0.00    +0.000 C 
BRANCH  18  19
ATOM     19  O   UNL     1       0.137   9.302  20.259  0.00  0.00    +0.000 OA
BRANCH  19  26
ATOM     20  C   UNL     1      -0.016   9.471  23.366  0.00  0.00    +0.000 C 
ATOM     21  C   UNL     1      -0.553  10.452  22.364  0.00  0.00    +0.000 A 
ATOM     22  C   UNL     1      -1.266  11.554  22.880  0.00  0.00    +0.000 A 
ATOM     23  C   UNL     1      -1.860  12.498  22.044  0.00  0.00    +0.000 A 
ATOM     24  C   UNL     1      -1.745  12.363  20.667  0.00  0.00    +0.000 A 
ATOM     25  C   UNL     1      -1.042  11.280  20.140  0.00  0.00    +0.000 A 
ATOM     26  C   UNL     1      -0.432  10.324  20.970  0.00  0.00    +0.000 A 
ENDBRANCH  19  26
ENDBRANCH  18  19
ENDBRANCH  15  18
ENDBRANCH   1  15
TORSDOF 6
ENDMDL
