MODEL 1
REMARK VINA RESULT:      -6.6      0.000      0.000
REMARK  Name = 
REMARK  9 active torsions:
REMARK  status: ('A' for Active; 'I' for Inactive)
REMARK    1  A    between atoms: C_1  and  C_2
REMARK    2  A    between atoms: C_2  and  O_3
REMARK    3  A    between atoms: O_3  and  C_4
REMARK    4  A    between atoms: C_4  and  N_6
REMARK    5  A    between atoms: N_12  and  N_13
REMARK    6  A    between atoms: C_14  and  O_16
REMARK    7  A    between atoms: O_16  and  C_17
REMARK    8  A    between atoms: C_17  and  C_18
REMARK    9  A    between atoms: C_26  and  C_27
REMARK                            x       y       z     vdW  Elec       q    Type
REMARK                         _______ _______ _______ _____ _____    ______ ____
ROOT
ATOM      1  N   UNL     1       4.922   5.440  19.165  0.00  0.00    +0.000 NA
ATOM      2  C   UNL     1       4.486   6.201  18.210  0.00  0.00    +0.000 A 
ATOM      3  C   UNL     1       3.377   7.125  18.659  0.00  0.00    +0.000 A 
ATOM      4  C   UNL     1       2.880   8.019  17.776  0.00  0.00    +0.000 A 
ATOM      5  N   UNL     1       3.368   8.176  16.490  0.00  0.00    +0.000 NA
ATOM      6  C   UNL     1       4.273   7.330  16.102  0.00  0.00    +0.000 A 
ATOM      7  N   UNL     1       4.809   6.305  16.854  0.00  0.00    +0.000 N 
ATOM      8  N   UNL     1       1.807   8.796  18.198  0.00  0.00    +0.000 N 
ATOM      9  C   UNL     1       1.233   8.778  19.450  0.00  0.00    +0.000 C 
ATOM     10  C   UNL     1       1.692   7.929  20.390  0.00  0.00    +0.000 C 
ATOM     11  C   UNL     1       1.155   7.876  21.799  0.00  0.00    +0.000 C 
ATOM     12  C   UNL     1       0.319   9.100  22.157  0.00  0.00    +0.000 C 
ATOM     13  C   UNL     1      -0.668   9.407  21.036  0.00  0.00    +0.000 C 
ATOM     14  C   UNL     1       0.055   9.689  19.711  0.00  0.00    +0.000 C 
ATOM     15  C   UNL     1       2.766   6.905  20.038  0.00  0.00    +0.000 C 
ATOM     16  H   UNL     1       1.438   9.418  17.485  0.00  0.00    +0.000 HD
ENDROOT
BRANCH  15  17
ATOM     17  C   UNL     1       2.164   5.499  20.177  0.00  0.00    +0.000 A 
ATOM     18  C   UNL     1       1.358   4.955  19.161  0.00  0.00    +0.000 A 
ATOM     19  C   UNL     1       0.800   3.687  19.302  0.00  0.00    +0.000 A 
ATOM     20  C   UNL     1       1.050   2.939  20.452  0.00  0.00    +0.000 A 
ATOM     21  C   UNL     1       1.851   3.462  21.464  0.00  0.00    +0.000 A 
ATOM     22  C   UNL     1       2.396   4.739  21.334  0.00  0.00    +0.000 A 
ENDBRANCH  15  17
BRANCH   7  23
ATOM     23  N   UNL     1       5.964   5.659  16.353  0.00  0.00    +0.000 N 
ATOM     24  C   UNL     1       5.849   4.676  15.396  0.00  0.00    +0.000 C 
ATOM     25  O   UNL     1       4.794   4.224  14.966  0.00  0.00    +0.000 OA
ATOM     26  H   UNL     1       6.865   6.040  16.607  0.00  0.00    +0.000 HD
BRANCH  24  27
ATOM     27  O   UNL     1       7.076   4.326  14.916  0.00  0.00    +0.000 OA
BRANCH  27  28
ATOM     28  C   UNL     1       7.412   4.840  13.611  0.00  0.00    +0.000 C 
ATOM     29  C   UNL     1       6.938   3.943  12.477  0.00  0.00    +0.000 C 
ENDBRANCH  27  28
ENDBRANCH  24  27
ENDBRANCH   7  23
BRANCH   1  30
ATOM     30  C   UNL     1       5.529   4.253  18.950  0.00  0.00    +0.000 C 
ATOM     31  O   UNL     1       6.722   4.134  18.717  0.00  0.00    +0.000 OA
BRANCH  30  32
ATOM     32  O   UNL     1       4.674   3.227  19.202  0.00  0.00    +0.000 OA
BRANCH  32  34
ATOM     33  C   UNL     1       3.535   1.259  18.377  0.00  0.00    +0.000 C 
ATOM     34  C   UNL     1       4.027   2.659  18.067  0.00  0.00    +0.000 C 
ENDBRANCH  32  34
ENDBRANCH  30  32
ENDBRANCH   1  30
TORSDOF 7
ENDMDL
MODEL 2
REMARK VINA RESULT:      -6.4      6.228     10.600
REMARK  Name = 
REMARK  9 active torsions:
REMARK  status: ('A' for Active; 'I' for Inactive)
REMARK    1  A    between atoms: C_1  and  C_2
REMARK    2  A    between atoms: C_2  and  O_3
REMARK    3  A    between atoms: O_3  and  C_4
REMARK    4  A    between atoms: C_4  and  N_6
REMARK    5  A    between atoms: N_12  and  N_13
REMARK    6  A    between atoms: C_14  and  O_16
REMARK    7  A    between atoms: O_16  and  C_17
REMARK    8  A    between atoms: C_17  and  C_18
REMARK    9  A    between atoms: C_26  and  C_27
REMARK                            x       y       z     vdW  Elec       q    Type
REMARK                         _______ _______ _______ _____ _____    ______ ____
ROOT
ATOM      1  N   UNL     1      -1.141  12.891  20.491  0.00  0.00    +0.000 NA
ATOM      2  C   UNL     1      -1.007  11.991  21.415  0.00  0.00    +0.000 A 
ATOM      3  C   UNL     1      -0.156  10.822  20.973  0.00  0.00    +0.000 A 
ATOM      4  C   UNL     1       0.118   9.846  21.865  0.00  0.00    +0.000 A 
ATOM      5  N   UNL     1      -0.293   9.880  23.187  0.00  0.00    +0.000 NA
ATOM      6  C   UNL     1      -1.076  10.857  23.529  0.00  0.00    +0.000 A 
ATOM      7  N   UNL     1      -1.521  11.873  22.709  0.00  0.00    +0.000 N 
ATOM      8  N   UNL     1       0.833   8.747  21.402  0.00  0.00    +0.000 N 
ATOM      9  C   UNL     1       1.335   8.581  20.130  0.00  0.00    +0.000 C 
ATOM     10  C   UNL     1       1.122   9.525  19.192  0.00  0.00    +0.000 C 
ATOM     11  C   UNL     1       1.674   9.449  17.791  0.00  0.00    +0.000 C 
ATOM     12  C   UNL     1       2.779   8.409  17.650  0.00  0.00    +0.000 C 
ATOM     13  C   UNL     1       2.360   7.103  18.316  0.00  0.00    +0.000 C 
ATOM     14  C   UNL     1       2.074   7.301  19.812  0.00  0.00    +0.000 C 
ATOM     15  C   UNL     1       0.226  10.721  19.501  0.00  0.00    +0.000 C 
ATOM     16  H   UNL     1       0.974   8.019  22.096  0.00  0.00    +0.000 HD
ENDROOT
BRANCH  15  17
ATOM     17  C   UNL     1      -1.011  10.651  18.593  0.00  0.00    +0.000 A 
ATOM     18  C   UNL     1      -1.973   9.640  18.763  0.00  0.00    +0.000 A 
ATOM     19  C   UNL     1      -3.083   9.571  17.924  0.00  0.00    +0.000 A 
ATOM     20  C   UNL     1      -3.255  10.517  16.916  0.00  0.00    +0.000 A 
ATOM     21  C   UNL     1      -2.314  11.529  16.740  0.00  0.00    +0.000 A 
ATOM     22  C   UNL     1      -1.192  11.590  17.565  0.00  0.00    +0.000 A 
ENDBRANCH  15  17
BRANCH   7  23
ATOM     23  N   UNL     1      -2.150  12.983  23.322  0.00  0.00    +0.000 N 
ATOM     24  C   UNL     1      -3.415  12.860  23.848  0.00  0.00    +0.000 C 
ATOM     25  O   UNL     1      -4.123  11.862  23.770  0.00  0.00    +0.000 OA
ATOM     26  H   UNL     1      -1.590  13.808  23.490  0.00  0.00    +0.000 HD
BRANCH  24  27
ATOM     27  O   UNL     1      -3.753  13.976  24.555  0.00  0.00    +0.000 OA
BRANCH  27  28
ATOM     28  C   UNL     1      -4.490  14.981  23.828  0.00  0.00    +0.000 C 
ATOM     29  C   UNL     1      -4.599  16.300  24.579  0.00  0.00    +0.000 C 
ENDBRANCH  27  28
ENDBRANCH  24  27
ENDBRANCH   7  23
BRANCH   1  30
ATOM     30  C   UNL     1      -2.180  13.751  20.438  0.00  0.00    +0.000 C 
ATOM     31  O   UNL     1      -2.108  14.922  20.778  0.00  0.00    +0.000 OA
BRANCH  30  32
ATOM     32  O   UNL     1      -3.237  13.185  19.799  0.00  0.00    +0.000 OA
BRANCH  32  34
ATOM     33  C   UNL     1      -5.445  12.216  19.998  0.00  0.00    +0.000 C 
ATOM     34  C   UNL     1      -4.500  13.313  20.446  0.00  0.00    +0.000 C 
ENDBRANCH  32  34
ENDBRANCH  30  32
ENDBRANCH   1  30
TORSDOF 7
ENDMDL
MODEL 3
REMARK VINA RESULT:      -6.3      0.776      1.802
REMARK  Name = 
REMARK  9 active torsions:
REMARK  status: ('A' for Active; 'I' for Inactive)
REMARK    1  A    between atoms: C_1  and  C_2
REMARK    2  A    between atoms: C_2  and  O_3
REMARK    3  A    between atoms: O_3  and  C_4
REMARK    4  A    between atoms: C_4  and  N_6
REMARK    5  A    between atoms: N_12  and  N_13
REMARK    6  A    between atoms: C_14  and  O_16
REMARK    7  A    between atoms: O_16  and  C_17
REMARK    8  A    between atoms: C_17  and  C_18
REMARK    9  A    between atoms: C_26  and  C_27
REMARK                            x       y       z     vdW  Elec       q    Type
REMARK                         _______ _______ _______ _____ _____    ______ ____
ROOT
ATOM      1  N   UNL     1       4.889   5.428  19.169  0.00  0.00    +0.000 NA
ATOM      2  C   UNL     1       4.442   6.187  18.216  0.00  0.00    +0.000 A 
ATOM      3  C   UNL     1       3.338   7.111  18.674  0.00  0.00    +0.000 A 
ATOM      4  C   UNL     1       2.831   8.002  17.794  0.00  0.00    +0.000 A 
ATOM      5  N   UNL     1       3.306   8.156  16.502  0.00  0.00    +0.000 NA
ATOM      6  C   UNL     1       4.208   7.310  16.108  0.00  0.00    +0.000 A 
ATOM      7  N   UNL     1       4.752   6.287  16.857  0.00  0.00    +0.000 N 
ATOM      8  N   UNL     1       1.762   8.779  18.224  0.00  0.00    +0.000 N 
ATOM      9  C   UNL     1       1.200   8.764  19.482  0.00  0.00    +0.000 C 
ATOM     10  C   UNL     1       1.669   7.918  20.420  0.00  0.00    +0.000 C 
ATOM     11  C   UNL     1       1.147   7.868  21.834  0.00  0.00    +0.000 C 
ATOM     12  C   UNL     1       0.313   9.092  22.196  0.00  0.00    +0.000 C 
ATOM     13  C   UNL     1      -0.685   9.395  21.085  0.00  0.00    +0.000 C 
ATOM     14  C   UNL     1       0.025   9.675  19.752  0.00  0.00    +0.000 C 
ATOM     15  C   UNL     1       2.740   6.894  20.059  0.00  0.00    +0.000 C 
ATOM     16  H   UNL     1       1.385   9.399  17.513  0.00  0.00    +0.000 HD
ENDROOT
BRANCH  15  17
ATOM     17  C   UNL     1       2.141   5.487  20.208  0.00  0.00    +0.000 A 
ATOM     18  C   UNL     1       2.378   4.722  21.364  0.00  0.00    +0.000 A 
ATOM     19  C   UNL     1       1.847   3.439  21.484  0.00  0.00    +0.000 A 
ATOM     20  C   UNL     1       1.062   2.911  20.461  0.00  0.00    +0.000 A 
ATOM     21  C   UNL     1       0.814   3.660  19.313  0.00  0.00    +0.000 A 
ATOM     22  C   UNL     1       1.359   4.936  19.181  0.00  0.00    +0.000 A 
ENDBRANCH  15  17
BRANCH   7  23
ATOM     23  N   UNL     1       5.903   5.640  16.346  0.00  0.00    +0.000 N 
ATOM     24  C   UNL     1       5.775   4.524  15.551  0.00  0.00    +0.000 C 
ATOM     25  O   UNL     1       4.722   3.956  15.288  0.00  0.00    +0.000 OA
ATOM     26  H   UNL     1       6.794   6.104  16.459  0.00  0.00    +0.000 HD
BRANCH  24  27
ATOM     27  O   UNL     1       6.979   4.177  15.013  0.00  0.00    +0.000 OA
BRANCH  27  28
ATOM     28  C   UNL     1       7.264   4.718  13.706  0.00  0.00    +0.000 C 
ATOM     29  C   UNL     1       6.772   3.830  12.573  0.00  0.00    +0.000 C 
ENDBRANCH  27  28
ENDBRANCH  24  27
ENDBRANCH   7  23
BRANCH   1  30
ATOM     30  C   UNL     1       5.494   4.241  18.951  0.00  0.00    +0.000 C 
ATOM     31  O   UNL     1       4.889   3.201  18.739  0.00  0.00    +0.000 OA
BRANCH  30  32
ATOM     32  O   UNL     1       6.837   4.405  18.827  0.00  0.00    +0.000 OA
BRANCH  32  34
ATOM     33  C   UNL     1       8.080   6.480  18.778  0.00  0.00    +0.000 C 
ATOM     34  C   UNL     1       7.420   5.421  19.639  0.00  0.00    +0.000 C 
ENDBRANCH  32  34
ENDBRANCH  30  32
ENDBRANCH   1  30
TORSDOF 7
ENDMDL
MODEL 4
REMARK VINA RESULT:      -6.2      6.110     10.449
REMARK  Name = 
REMARK  9 active torsions:
REMARK  status: ('A' for Active; 'I' for Inactive)
REMARK    1  A    between atoms: C_1  and  C_2
REMARK    2  A    between atoms: C_2  and  O_3
REMARK    3  A    between atoms: O_3  and  C_4
REMARK    4  A    between atoms: C_4  and  N_6
REMARK    5  A    between atoms: N_12  and  N_13
REMARK    6  A    between atoms: C_14  and  O_16
REMARK    7  A    between atoms: O_16  and  C_17
REMARK    8  A    between atoms: C_17  and  C_18
REMARK    9  A    between atoms: C_26  and  C_27
REMARK                            x       y       z     vdW  Elec       q    Type
REMARK                         _______ _______ _______ _____ _____    ______ ____
ROOT
ATOM      1  N   UNL     1      -0.802  12.826  20.556  0.00  0.00    +0.000 NA
ATOM      2  C   UNL     1      -0.740  11.885  21.447  0.00  0.00    +0.000 A 
ATOM      3  C   UNL     1       0.049  10.685  20.977  0.00  0.00    +0.000 A 
ATOM      4  C   UNL     1       0.246   9.662  21.837  0.00  0.00    +0.000 A 
ATOM      5  N   UNL     1      -0.188   9.672  23.151  0.00  0.00    +0.000 NA
ATOM      6  C   UNL     1      -0.920  10.681  23.515  0.00  0.00    +0.000 A 
ATOM      7  N   UNL     1      -1.287  11.751  22.726  0.00  0.00    +0.000 N 
ATOM      8  N   UNL     1       0.905   8.540  21.346  0.00  0.00    +0.000 N 
ATOM      9  C   UNL     1       1.423   8.392  20.077  0.00  0.00    +0.000 C 
ATOM     10  C   UNL     1       1.285   9.381  19.172  0.00  0.00    +0.000 C 
ATOM     11  C   UNL     1       1.860   9.323  17.780  0.00  0.00    +0.000 C 
ATOM     12  C   UNL     1       2.905   8.225  17.620  0.00  0.00    +0.000 C 
ATOM     13  C   UNL     1       2.395   6.923  18.228  0.00  0.00    +0.000 C 
ATOM     14  C   UNL     1       2.091   7.083  19.725  0.00  0.00    +0.000 C 
ATOM     15  C   UNL     1       0.455  10.616  19.509  0.00  0.00    +0.000 C 
ATOM     16  H   UNL     1       0.988   7.780  22.013  0.00  0.00    +0.000 HD
ENDROOT
BRANCH  15  17
ATOM     17  C   UNL     1      -0.766  10.653  18.577  0.00  0.00    +0.000 A 
ATOM     18  C   UNL     1      -1.715   9.615  18.591  0.00  0.00    +0.000 A 
ATOM     19  C   UNL     1      -2.809   9.646  17.729  0.00  0.00    +0.000 A 
ATOM     20  C   UNL     1      -2.978  10.719  16.855  0.00  0.00    +0.000 A 
ATOM     21  C   UNL     1      -2.050  11.756  16.836  0.00  0.00    +0.000 A 
ATOM     22  C   UNL     1      -0.943  11.720  17.683  0.00  0.00    +0.000 A 
ENDBRANCH  15  17
BRANCH   7  23
ATOM     23  N   UNL     1      -1.862  12.873  23.370  0.00  0.00    +0.000 N 
ATOM     24  C   UNL     1      -3.181  12.848  23.761  0.00  0.00    +0.000 C 
ATOM     25  O   UNL     1      -3.972  11.941  23.532  0.00  0.00    +0.000 OA
ATOM     26  H   UNL     1      -1.243  13.619  23.659  0.00  0.00    +0.000 HD
BRANCH  24  27
ATOM     27  O   UNL     1      -3.477  13.938  24.525  0.00  0.00    +0.000 OA
BRANCH  27  28
ATOM     28  C   UNL     1      -2.511  15.009  24.493  0.00  0.00    +0.000 C 
ATOM     29  C   UNL     1      -2.053  15.441  25.878  0.00  0.00    +0.000 C 
ENDBRANCH  27  28
ENDBRANCH  24  27
ENDBRANCH   7  23
BRANCH   1  30
ATOM     30  C   UNL     1      -1.787  13.748  20.516  0.00  0.00    +0.000 C 
ATOM     31  O   UNL     1      -2.952  13.484  20.258  0.00  0.00    +0.000 OA
BRANCH  30  32
ATOM     32  O   UNL     1      -1.338  14.947  20.970  0.00  0.00    +0.000 OA
BRANCH  32  34
ATOM     33  C   UNL     1      -0.473  15.828  18.889  0.00  0.00    +0.000 C 
ATOM     34  C   UNL     1      -0.173  15.461  20.329  0.00  0.00    +0.000 C 
ENDBRANCH  32  34
ENDBRANCH  30  32
ENDBRANCH   1  30
TORSDOF 7
ENDMDL
MODEL 5
REMARK VINA RESULT:      -6.2      6.324     10.654
REMARK  Name = 
REMARK  9 active torsions:
REMARK  status: ('A' for Active; 'I' for Inactive)
REMARK    1  A    between atoms: C_1  and  C_2
REMARK    2  A    between atoms: C_2  and  O_3
REMARK    3  A    between atoms: O_3  and  C_4
REMARK    4  A    between atoms: C_4  and  N_6
REMARK    5  A    between atoms: N_12  and  N_13
REMARK    6  A    between atoms: C_14  and  O_16
REMARK    7  A    between atoms: O_16  and  C_17
REMARK    8  A    between atoms: C_17  and  C_18
REMARK    9  A    between atoms: C_26  and  C_27
REMARK                            x       y       z     vdW  Elec       q    Type
REMARK                         _______ _______ _______ _____ _____    ______ ____
ROOT
ATOM      1  N   UNL     1      -1.560  12.933  20.411  0.00  0.00    +0.000 NA
ATOM      2  C   UNL     1      -1.407  12.043  21.343  0.00  0.00    +0.000 A 
ATOM      3  C   UNL     1      -0.477  10.925  20.935  0.00  0.00    +0.000 A 
ATOM      4  C   UNL     1      -0.179   9.967  21.841  0.00  0.00    +0.000 A 
ATOM      5  N   UNL     1      -0.636   9.980  23.147  0.00  0.00    +0.000 NA
ATOM      6  C   UNL     1      -1.486  10.911  23.458  0.00  0.00    +0.000 A 
ATOM      7  N   UNL     1      -1.959  11.899  22.618  0.00  0.00    +0.000 N 
ATOM      8  N   UNL     1       0.614   8.910  21.407  0.00  0.00    +0.000 N 
ATOM      9  C   UNL     1       1.169   8.771  20.154  0.00  0.00    +0.000 C 
ATOM     10  C   UNL     1       0.935   9.699  19.205  0.00  0.00    +0.000 C 
ATOM     11  C   UNL     1       1.539   9.652  17.824  0.00  0.00    +0.000 C 
ATOM     12  C   UNL     1       2.706   8.677  17.726  0.00  0.00    +0.000 C 
ATOM     13  C   UNL     1       2.339   7.350  18.383  0.00  0.00    +0.000 C 
ATOM     14  C   UNL     1       1.990   7.535  19.867  0.00  0.00    +0.000 C 
ATOM     15  C   UNL     1      -0.038  10.843  19.478  0.00  0.00    +0.000 C 
ATOM     16  H   UNL     1       0.771   8.192  22.108  0.00  0.00    +0.000 HD
ENDROOT
BRANCH  15  17
ATOM     17  C   UNL     1      -1.237  10.700  18.528  0.00  0.00    +0.000 A 
ATOM     18  C   UNL     1      -1.450  11.628  17.493  0.00  0.00    +0.000 A 
ATOM     19  C   UNL     1      -2.551  11.503  16.647  0.00  0.00    +0.000 A 
ATOM     20  C   UNL     1      -3.442  10.446  16.814  0.00  0.00    +0.000 A 
ATOM     21  C   UNL     1      -3.240   9.516  17.831  0.00  0.00    +0.000 A 
ATOM     22  C   UNL     1      -2.151   9.647  18.691  0.00  0.00    +0.000 A 
ENDBRANCH  15  17
BRANCH   7  23
ATOM     23  N   UNL     1      -2.671  12.972  23.205  0.00  0.00    +0.000 N 
ATOM     24  C   UNL     1      -1.994  13.994  23.830  0.00  0.00    +0.000 C 
ATOM     25  O   UNL     1      -0.783  14.038  24.011  0.00  0.00    +0.000 OA
ATOM     26  H   UNL     1      -3.664  13.036  23.021  0.00  0.00    +0.000 HD
BRANCH  24  27
ATOM     27  O   UNL     1      -2.847  15.009  24.152  0.00  0.00    +0.000 OA
BRANCH  27  28
ATOM     28  C   UNL     1      -4.232  14.799  23.811  0.00  0.00    +0.000 C 
ATOM     29  C   UNL     1      -5.119  15.985  24.161  0.00  0.00    +0.000 C 
ENDBRANCH  27  28
ENDBRANCH  24  27
ENDBRANCH   7  23
BRANCH   1  30
ATOM     30  C   UNL     1      -2.644  13.732  20.318  0.00  0.00    +0.000 C 
ATOM     31  O   UNL     1      -2.624  14.932  20.549  0.00  0.00    +0.000 OA
BRANCH  30  32
ATOM     32  O   UNL     1      -3.690  13.058  19.773  0.00  0.00    +0.000 OA
BRANCH  32  34
ATOM     33  C   UNL     1      -5.785  12.072  20.473  0.00  0.00    +0.000 C 
ATOM     34  C   UNL     1      -4.973  13.343  20.323  0.00  0.00    +0.000 C 
ENDBRANCH  32  34
ENDBRANCH  30  32
ENDBRANCH   1  30
TORSDOF 7
ENDMDL
MODEL 6
REMARK VINA RESULT:      -6.1      7.500     10.911
REMARK  Name = 
REMARK  9 active torsions:
REMARK  status: ('A' for Active; 'I' for Inactive)
REMARK    1  A    between atoms: C_1  and  C_2
REMARK    2  A    between atoms: C_2  and  O_3
REMARK    3  A    between atoms: O_3  and  C_4
REMARK    4  A    between atoms: C_4  and  N_6
REMARK    5  A    between atoms: N_12  and  N_13
REMARK    6  A    between atoms: C_14  and  O_16
REMARK    7  A    between atoms: O_16  and  C_17
REMARK    8  A    between atoms: C_17  and  C_18
REMARK    9  A    between atoms: C_26  and  C_27
REMARK                            x       y       z     vdW  Elec       q    Type
REMARK                         _______ _______ _______ _____ _____    ______ ____
ROOT
ATOM      1  N   UNL     1      -1.455  11.576  21.590  0.00  0.00    +0.000 NA
ATOM      2  C   UNL     1      -2.508  12.261  21.268  0.00  0.00    +0.000 A 
ATOM      3  C   UNL     1      -2.997  11.958  19.870  0.00  0.00    +0.000 A 
ATOM      4  C   UNL     1      -4.128  12.556  19.435  0.00  0.00    +0.000 A 
ATOM      5  N   UNL     1      -4.900  13.395  20.220  0.00  0.00    +0.000 NA
ATOM      6  C   UNL     1      -4.429  13.694  21.392  0.00  0.00    +0.000 A 
ATOM      7  N   UNL     1      -3.245  13.241  21.937  0.00  0.00    +0.000 N 
ATOM      8  N   UNL     1      -4.503  12.319  18.118  0.00  0.00    +0.000 N 
ATOM      9  C   UNL     1      -3.860  11.489  17.226  0.00  0.00    +0.000 C 
ATOM     10  C   UNL     1      -2.738  10.840  17.597  0.00  0.00    +0.000 C 
ATOM     11  C   UNL     1      -1.998   9.878  16.703  0.00  0.00    +0.000 C 
ATOM     12  C   UNL     1      -2.825   9.435  15.502  0.00  0.00    +0.000 C 
ATOM     13  C   UNL     1      -3.485  10.642  14.845  0.00  0.00    +0.000 C 
ATOM     14  C   UNL     1      -4.414  11.376  15.824  0.00  0.00    +0.000 C 
ATOM     15  C   UNL     1      -2.113  11.113  18.961  0.00  0.00    +0.000 C 
ATOM     16  H   UNL     1      -5.332  12.827  17.822  0.00  0.00    +0.000 HD
ENDROOT
BRANCH  15  17
ATOM     17  C   UNL     1      -0.734  11.756  18.747  0.00  0.00    +0.000 A 
ATOM     18  C   UNL     1       0.443  10.997  18.874  0.00  0.00    +0.000 A 
ATOM     19  C   UNL     1       1.690  11.591  18.697  0.00  0.00    +0.000 A 
ATOM     20  C   UNL     1       1.779  12.944  18.377  0.00  0.00    +0.000 A 
ATOM     21  C   UNL     1       0.621  13.707  18.242  0.00  0.00    +0.000 A 
ATOM     22  C   UNL     1      -0.628  13.121  18.437  0.00  0.00    +0.000 A 
ENDBRANCH  15  17
BRANCH   7  23
ATOM     23  N   UNL     1      -3.031  13.466  23.318  0.00  0.00    +0.000 N 
ATOM     24  C   UNL     1      -2.665  14.713  23.769  0.00  0.00    +0.000 C 
ATOM     25  O   UNL     1      -2.417  15.681  23.059  0.00  0.00    +0.000 OA
ATOM     26  H   UNL     1      -3.296  12.733  23.961  0.00  0.00    +0.000 HD
BRANCH  24  27
ATOM     27  O   UNL     1      -2.699  14.761  25.132  0.00  0.00    +0.000 OA
BRANCH  27  28
ATOM     28  C   UNL     1      -2.252  15.995  25.729  0.00  0.00    +0.000 C 
ATOM     29  C   UNL     1      -0.863  15.892  26.342  0.00  0.00    +0.000 C 
ENDBRANCH  27  28
ENDBRANCH  24  27
ENDBRANCH   7  23
BRANCH   1  30
ATOM     30  C   UNL     1      -0.570  11.972  22.529  0.00  0.00    +0.000 C 
ATOM     31  O   UNL     1      -0.080  13.090  22.569  0.00  0.00    +0.000 OA
BRANCH  30  32
ATOM     32  O   UNL     1      -0.446  11.028  23.498  0.00  0.00    +0.000 OA
BRANCH  32  34
ATOM     33  C   UNL     1       0.928   9.306  22.498  0.00  0.00    +0.000 C 
ATOM     34  C   UNL     1      -0.434   9.674  23.054  0.00  0.00    +0.000 C 
ENDBRANCH  32  34
ENDBRANCH  30  32
ENDBRANCH   1  30
TORSDOF 7
ENDMDL
MODEL 7
REMARK VINA RESULT:      -6.1      6.405     10.843
REMARK  Name = 
REMARK  9 active torsions:
REMARK  status: ('A' for Active; 'I' for Inactive)
REMARK    1  A    between atoms: C_1  and  C_2
REMARK    2  A    between atoms: C_2  and  O_3
REMARK    3  A    between atoms: O_3  and  C_4
REMARK    4  A    between atoms: C_4  and  N_6
REMARK    5  A    between atoms: N_12  and  N_13
REMARK    6  A    between atoms: C_14  and  O_16
REMARK    7  A    between atoms: O_16  and  C_17
REMARK    8  A    between atoms: C_17  and  C_18
REMARK    9  A    between atoms: C_26  and  C_27
REMARK                            x       y       z     vdW  Elec       q    Type
REMARK                         _______ _______ _______ _____ _____    ______ ____
ROOT
ATOM      1  N   UNL     1      -1.233  12.927  20.391  0.00  0.00    +0.000 NA
ATOM      2  C   UNL     1      -1.116  12.042  21.332  0.00  0.00    +0.000 A 
ATOM      3  C   UNL     1      -0.235  10.880  20.936  0.00  0.00    +0.000 A 
ATOM      4  C   UNL     1       0.025   9.921  21.851  0.00  0.00    +0.000 A 
ATOM      5  N   UNL     1      -0.429   9.968  23.158  0.00  0.00    +0.000 NA
ATOM      6  C   UNL     1      -1.237  10.939  23.460  0.00  0.00    +0.000 A 
ATOM      7  N   UNL     1      -1.670  11.936  22.611  0.00  0.00    +0.000 N 
ATOM      8  N   UNL     1       0.770   8.826  21.428  0.00  0.00    +0.000 N 
ATOM      9  C   UNL     1       1.315   8.649  20.175  0.00  0.00    +0.000 C 
ATOM     10  C   UNL     1       1.118   9.576  19.217  0.00  0.00    +0.000 C 
ATOM     11  C   UNL     1       1.716   9.487  17.835  0.00  0.00    +0.000 C 
ATOM     12  C   UNL     1       2.840   8.462  17.745  0.00  0.00    +0.000 C 
ATOM     13  C   UNL     1       2.418   7.160  18.417  0.00  0.00    +0.000 C 
ATOM     14  C   UNL     1       2.082   7.376  19.900  0.00  0.00    +0.000 C 
ATOM     15  C   UNL     1       0.196  10.763  19.478  0.00  0.00    +0.000 C 
ATOM     16  H   UNL     1       0.899   8.110  22.136  0.00  0.00    +0.000 HD
ENDROOT
BRANCH  15  17
ATOM     17  C   UNL     1      -1.011  10.661  18.533  0.00  0.00    +0.000 A 
ATOM     18  C   UNL     1      -1.230  11.631  17.538  0.00  0.00    +0.000 A 
ATOM     19  C   UNL     1      -2.337  11.542  16.697  0.00  0.00    +0.000 A 
ATOM     20  C   UNL     1      -3.230  10.480  16.827  0.00  0.00    +0.000 A 
ATOM     21  C   UNL     1      -3.021   9.509  17.804  0.00  0.00    +0.000 A 
ATOM     22  C   UNL     1      -1.925   9.604  18.660  0.00  0.00    +0.000 A 
ENDBRANCH  15  17
BRANCH   7  23
ATOM     23  N   UNL     1      -2.334  13.045  23.187  0.00  0.00    +0.000 N 
ATOM     24  C   UNL     1      -3.695  13.013  23.382  0.00  0.00    +0.000 C 
ATOM     25  O   UNL     1      -4.443  12.112  23.022  0.00  0.00    +0.000 OA
ATOM     26  H   UNL     1      -1.765  13.784  23.578  0.00  0.00    +0.000 HD
BRANCH  24  27
ATOM     27  O   UNL     1      -4.101  14.088  24.117  0.00  0.00    +0.000 OA
BRANCH  27  28
ATOM     28  C   UNL     1      -5.421  14.590  23.822  0.00  0.00    +0.000 C 
ATOM     29  C   UNL     1      -5.530  16.100  23.968  0.00  0.00    +0.000 C 
ENDBRANCH  27  28
ENDBRANCH  24  27
ENDBRANCH   7  23
BRANCH   1  30
ATOM     30  C   UNL     1      -2.282  13.771  20.291  0.00  0.00    +0.000 C 
ATOM     31  O   UNL     1      -3.427  13.405  20.072  0.00  0.00    +0.000 OA
BRANCH  30  32
ATOM     32  O   UNL     1      -1.916  15.031  20.641  0.00  0.00    +0.000 OA
BRANCH  32  34
ATOM     33  C   UNL     1      -2.562  16.832  22.123  0.00  0.00    +0.000 C 
ATOM     34  C   UNL     1      -2.978  15.916  20.988  0.00  0.00    +0.000 C 
ENDBRANCH  32  34
ENDBRANCH  30  32
ENDBRANCH   1  30
TORSDOF 7
ENDMDL
MODEL 8
REMARK VINA RESULT:      -6.1      6.303     10.653
REMARK  Name = 
REMARK  9 active torsions:
REMARK  status: ('A' for Active; 'I' for Inactive)
REMARK    1  A    between atoms: C_1  and  C_2
REMARK    2  A    between atoms: C_2  and  O_3
REMARK    3  A    between atoms: O_3  and  C_4
REMARK    4  A    between atoms: C_4  and  N_6
REMARK    5  A    between atoms: N_12  and  N_13
REMARK    6  A    between atoms: C_14  and  O_16
REMARK    7  A    between atoms: O_16  and  C_17
REMARK    8  A    between atoms: C_17  and  C_18
REMARK    9  A    between atoms: C_26  and  C_27
REMARK                            x       y       z     vdW  Elec       q    Type
REMARK                         _______ _______ _______ _____ _____    ______ ____
ROOT
ATOM      1  N   UNL     1      -1.447  12.884  20.408  0.00  0.00    +0.000 NA
ATOM      2  C   UNL     1      -1.307  11.981  21.328  0.00  0.00    +0.000 A 
ATOM      3  C   UNL     1      -0.388  10.857  20.909  0.00  0.00    +0.000 A 
ATOM      4  C   UNL     1      -0.104   9.884  21.803  0.00  0.00    +0.000 A 
ATOM      5  N   UNL     1      -0.565   9.886  23.108  0.00  0.00    +0.000 NA
ATOM      6  C   UNL     1      -1.404  10.823  23.428  0.00  0.00    +0.000 A 
ATOM      7  N   UNL     1      -1.864  11.827  22.600  0.00  0.00    +0.000 N 
ATOM      8  N   UNL     1       0.678   8.824  21.358  0.00  0.00    +0.000 N 
ATOM      9  C   UNL     1       1.235   8.694  20.104  0.00  0.00    +0.000 C 
ATOM     10  C   UNL     1       1.014   9.637  19.167  0.00  0.00    +0.000 C 
ATOM     11  C   UNL     1       1.621   9.600  17.787  0.00  0.00    +0.000 C 
ATOM     12  C   UNL     1       2.777   8.613  17.680  0.00  0.00    +0.000 C 
ATOM     13  C   UNL     1       2.393   7.283  18.318  0.00  0.00    +0.000 C 
ATOM     14  C   UNL     1       2.042   7.452  19.804  0.00  0.00    +0.000 C 
ATOM     15  C   UNL     1       0.054  10.788  19.452  0.00  0.00    +0.000 C 
ATOM     16  H   UNL     1       0.825   8.096  22.050  0.00  0.00    +0.000 HD
ENDROOT
BRANCH  15  17
ATOM     17  C   UNL     1      -1.144  10.672  18.497  0.00  0.00    +0.000 A 
ATOM     18  C   UNL     1      -1.365  11.636  17.497  0.00  0.00    +0.000 A 
ATOM     19  C   UNL     1      -2.465  11.534  16.648  0.00  0.00    +0.000 A 
ATOM     20  C   UNL     1      -3.348  10.463  16.775  0.00  0.00    +0.000 A 
ATOM     21  C   UNL     1      -3.138   9.498  17.756  0.00  0.00    +0.000 A 
ATOM     22  C   UNL     1      -2.050   9.606  18.621  0.00  0.00    +0.000 A 
ENDBRANCH  15  17
BRANCH   7  23
ATOM     23  N   UNL     1      -2.565  12.901  23.199  0.00  0.00    +0.000 N 
ATOM     24  C   UNL     1      -1.876  13.954  23.756  0.00  0.00    +0.000 C 
ATOM     25  O   UNL     1      -0.658  14.028  23.864  0.00  0.00    +0.000 OA
ATOM     26  H   UNL     1      -3.567  12.938  23.072  0.00  0.00    +0.000 HD
BRANCH  24  27
ATOM     27  O   UNL     1      -2.732  14.959  24.100  0.00  0.00    +0.000 OA
BRANCH  27  28
ATOM     28  C   UNL     1      -4.135  14.685  23.907  0.00  0.00    +0.000 C 
ATOM     29  C   UNL     1      -5.008  15.924  24.043  0.00  0.00    +0.000 C 
ENDBRANCH  27  28
ENDBRANCH  24  27
ENDBRANCH   7  23
BRANCH   1  30
ATOM     30  C   UNL     1      -2.522  13.697  20.322  0.00  0.00    +0.000 C 
ATOM     31  O   UNL     1      -3.670  13.293  20.227  0.00  0.00    +0.000 OA
BRANCH  30  32
ATOM     32  O   UNL     1      -2.161  14.990  20.533  0.00  0.00    +0.000 OA
BRANCH  32  34
ATOM     33  C   UNL     1      -0.864  16.544  19.208  0.00  0.00    +0.000 C 
ATOM     34  C   UNL     1      -0.839  15.343  20.133  0.00  0.00    +0.000 C 
ENDBRANCH  32  34
ENDBRANCH  30  32
ENDBRANCH   1  30
TORSDOF 7
ENDMDL
MODEL 9
REMARK VINA RESULT:      -5.9      6.900     10.381
REMARK  Name = 
REMARK  9 active torsions:
REMARK  status: ('A' for Active; 'I' for Inactive)
REMARK    1  A    between atoms: C_1  and  C_2
REMARK    2  A    between atoms: C_2  and  O_3
REMARK    3  A    between atoms: O_3  and  C_4
REMARK    4  A    between atoms: C_4  and  N_6
REMARK    5  A    between atoms: N_12  and  N_13
REMARK    6  A    between atoms: C_14  and  O_16
REMARK    7  A    between atoms: O_16  and  C_17
REMARK    8  A    between atoms: C_17  and  C_18
REMARK    9  A    between atoms: C_26  and  C_27
REMARK                            x       y       z     vdW  Elec       q    Type
REMARK                         _______ _______ _______ _____ _____    ______ ____
ROOT
ATOM      1  N   UNL     1      -2.960  11.535  19.598  0.00  0.00    +0.000 NA
ATOM      2  C   UNL     1      -2.552  12.685  20.039  0.00  0.00    +0.000 A 
ATOM      3  C   UNL     1      -3.504  13.299  21.039  0.00  0.00    +0.000 A 
ATOM      4  C   UNL     1      -3.163  14.467  21.626  0.00  0.00    +0.000 A 
ATOM      5  N   UNL     1      -1.958  15.113  21.404  0.00  0.00    +0.000 NA
ATOM      6  C   UNL     1      -1.185  14.605  20.493  0.00  0.00    +0.000 A 
ATOM      7  N   UNL     1      -1.438  13.475  19.743  0.00  0.00    +0.000 N 
ATOM      8  N   UNL     1      -4.098  15.045  22.478  0.00  0.00    +0.000 N 
ATOM      9  C   UNL     1      -5.321  14.513  22.823  0.00  0.00    +0.000 C 
ATOM     10  C   UNL     1      -5.719  13.339  22.296  0.00  0.00    +0.000 C 
ATOM     11  C   UNL     1      -7.018  12.661  22.653  0.00  0.00    +0.000 C 
ATOM     12  C   UNL     1      -7.651  13.233  23.916  0.00  0.00    +0.000 C 
ATOM     13  C   UNL     1      -7.640  14.757  23.866  0.00  0.00    +0.000 C 
ATOM     14  C   UNL     1      -6.210  15.305  23.755  0.00  0.00    +0.000 C 
ATOM     15  C   UNL     1      -4.872  12.654  21.227  0.00  0.00    +0.000 C 
ATOM     16  H   UNL     1      -3.816  15.943  22.858  0.00  0.00    +0.000 HD
ENDROOT
BRANCH  15  17
ATOM     17  C   UNL     1      -5.673  12.621  19.916  0.00  0.00    +0.000 A 
ATOM     18  C   UNL     1      -5.904  13.799  19.184  0.00  0.00    +0.000 A 
ATOM     19  C   UNL     1      -6.647  13.765  18.006  0.00  0.00    +0.000 A 
ATOM     20  C   UNL     1      -7.156  12.555  17.537  0.00  0.00    +0.000 A 
ATOM     21  C   UNL     1      -6.929  11.380  18.249  0.00  0.00    +0.000 A 
ATOM     22  C   UNL     1      -6.202  11.412  19.438  0.00  0.00    +0.000 A 
ENDBRANCH  15  17
BRANCH   7  23
ATOM     23  N   UNL     1      -0.367  12.933  18.992  0.00  0.00    +0.000 N 
ATOM     24  C   UNL     1       0.606  12.185  19.615  0.00  0.00    +0.000 C 
ATOM     25  O   UNL     1       0.691  11.994  20.822  0.00  0.00    +0.000 OA
ATOM     26  H   UNL     1      -0.424  12.986  17.984  0.00  0.00    +0.000 HD
BRANCH  24  27
ATOM     27  O   UNL     1       1.426  11.603  18.694  0.00  0.00    +0.000 OA
BRANCH  27  28
ATOM     28  C   UNL     1       1.755  10.218  18.931  0.00  0.00    +0.000 C 
ATOM     29  C   UNL     1       1.581   9.345  17.697  0.00  0.00    +0.000 C 
ENDBRANCH  27  28
ENDBRANCH  24  27
ENDBRANCH   7  23
BRANCH   1  30
ATOM     30  C   UNL     1      -2.583  11.020  18.409  0.00  0.00    +0.000 C 
ATOM     31  O   UNL     1      -1.817  10.076  18.293  0.00  0.00    +0.000 OA
BRANCH  30  32
ATOM     32  O   UNL     1      -3.303  11.573  17.398  0.00  0.00    +0.000 OA
BRANCH  32  34
ATOM     33  C   UNL     1      -3.208  10.788  15.112  0.00  0.00    +0.000 C 
ATOM     34  C   UNL     1      -3.877  10.660  16.466  0.00  0.00    +0.000 C 
ENDBRANCH  32  34
ENDBRANCH  30  32
ENDBRANCH   1  30
TORSDOF 7
ENDMDL
