MODEL 1
REMARK VINA RESULT:      -7.6      0.000      0.000
REMARK  Name = 
REMARK  6 active torsions:
REMARK  status: ('A' for Active; 'I' for Inactive)
REMARK    1  A    between atoms: C_1  and  C_2
REMARK    2  A    between atoms: C_2  and  C_3
REMARK    3  A    between atoms: C_2  and  C_4
REMARK    4  A    between atoms: C_2  and  O_5
REMARK    5  A    between atoms: O_5  and  C_6
REMARK    6  A    between atoms: C_14  and  O_15
REMARK                            x       y       z     vdW  Elec       q    Type
REMARK                         _______ _______ _______ _____ _____    ______ ____
ROOT
ATOM      1  C   UNL     1       2.109   8.768  18.392  0.00  0.00    +0.000 C 
ATOM      2  O   UNL     1       2.106   9.550  17.445  0.00  0.00    +0.000 OA
ATOM      3  N   UNL     1       2.777   7.564  18.342  0.00  0.00    +0.000 N 
ATOM      4  C   UNL     1       2.880   6.627  19.468  0.00  0.00    +0.000 C 
ATOM      5  C   UNL     1       2.776   5.135  19.018  0.00  0.00    +0.000 C 
ATOM      6  C   UNL     1       3.947   4.293  19.551  0.00  0.00    +0.000 C 
ATOM      7  C   UNL     1       5.254   4.873  19.065  0.00  0.00    +0.000 A 
ATOM      8  N   UNL     1       6.298   4.758  19.918  0.00  0.00    +0.000 NA
ATOM      9  C   UNL     1       7.383   5.483  19.619  0.00  0.00    +0.000 A 
ATOM     10  C   UNL     1       7.522   6.301  18.521  0.00  0.00    +0.000 A 
ATOM     11  C   UNL     1       6.465   6.356  17.621  0.00  0.00    +0.000 A 
ATOM     12  C   UNL     1       5.288   5.639  17.883  0.00  0.00    +0.000 A 
ATOM     13  C   UNL     1       4.042   5.850  17.027  0.00  0.00    +0.000 C 
ATOM     14  C   UNL     1       2.851   4.996  17.490  0.00  0.00    +0.000 C 
ATOM     15  C   UNL     1       3.550   7.300  17.123  0.00  0.00    +0.000 C 
ENDROOT
BRANCH   9  16
ATOM     16  O   UNL     1       8.364   5.396  20.549  0.00  0.00    +0.000 OA
ATOM     17  H   UNL     1       8.311   4.444  20.747  0.00  0.00    +0.000 HD
ENDBRANCH   9  16
BRANCH   1  18
ATOM     18  O   UNL     1       1.453   8.971  19.563  0.00  0.00    +0.000 OA
BRANCH  18  20
ATOM     19  C   UNL     1      -0.471   9.978  18.436  0.00  0.00    +0.000 C 
ATOM     20  C   UNL     1       0.476  10.032  19.649  0.00  0.00    +0.000 C 
ATOM     21  C   UNL     1       1.137  11.405  19.819  0.00  0.00    +0.000 C 
ATOM     22  C   UNL     1      -0.352   9.745  20.911  0.00  0.00    +0.000 C 
ENDBRANCH  18  20
ENDBRANCH   1  18
TORSDOF 3
ENDMDL
MODEL 2
REMARK VINA RESULT:      -7.1      0.626      1.135
REMARK  Name = 
REMARK  6 active torsions:
REMARK  status: ('A' for Active; 'I' for Inactive)
REMARK    1  A    between atoms: C_1  and  C_2
REMARK    2  A    between atoms: C_2  and  C_3
REMARK    3  A    between atoms: C_2  and  C_4
REMARK    4  A    between atoms: C_2  and  O_5
REMARK    5  A    between atoms: O_5  and  C_6
REMARK    6  A    between atoms: C_14  and  O_15
REMARK                            x       y       z     vdW  Elec       q    Type
REMARK                         _______ _______ _______ _____ _____    ______ ____
ROOT
ATOM      1  C   UNL     1       1.869   8.598  19.085  0.00  0.00    +0.000 C 
ATOM      2  O   UNL     1       1.706   9.473  18.238  0.00  0.00    +0.000 OA
ATOM      3  N   UNL     1       2.594   7.455  18.823  0.00  0.00    +0.000 N 
ATOM      4  C   UNL     1       2.886   6.415  19.817  0.00  0.00    +0.000 C 
ATOM      5  C   UNL     1       2.813   4.974  19.218  0.00  0.00    +0.000 C 
ATOM      6  C   UNL     1       4.086   4.165  19.515  0.00  0.00    +0.000 C 
ATOM      7  C   UNL     1       5.288   4.883  18.949  0.00  0.00    +0.000 A 
ATOM      8  N   UNL     1       6.434   4.753  19.658  0.00  0.00    +0.000 NA
ATOM      9  C   UNL     1       7.432   5.578  19.319  0.00  0.00    +0.000 A 
ATOM     10  C   UNL     1       7.389   6.514  18.311  0.00  0.00    +0.000 A 
ATOM     11  C   UNL     1       6.228   6.590  17.551  0.00  0.00    +0.000 A 
ATOM     12  C   UNL     1       5.135   5.769  17.865  0.00  0.00    +0.000 A 
ATOM     13  C   UNL     1       3.783   5.980  17.188  0.00  0.00    +0.000 C 
ATOM     14  C   UNL     1       2.708   5.002  17.685  0.00  0.00    +0.000 C 
ATOM     15  C   UNL     1       3.225   7.375  17.501  0.00  0.00    +0.000 C 
ENDROOT
BRANCH   9  16
ATOM     16  O   UNL     1       8.522   5.463  20.114  0.00  0.00    +0.000 OA
ATOM     17  H   UNL     1       8.519   6.350  20.517  0.00  0.00    +0.000 HD
ENDBRANCH   9  16
BRANCH   1  18
ATOM     18  O   UNL     1       1.350   8.631  20.338  0.00  0.00    +0.000 OA
BRANCH  18  20
ATOM     19  C   UNL     1      -0.420   9.175  21.936  0.00  0.00    +0.000 C 
ATOM     20  C   UNL     1       0.313   9.588  20.648  0.00  0.00    +0.000 C 
ATOM     21  C   UNL     1      -0.642   9.797  19.467  0.00  0.00    +0.000 C 
ATOM     22  C   UNL     1       1.031  10.920  20.916  0.00  0.00    +0.000 C 
ENDBRANCH  18  20
ENDBRANCH   1  18
TORSDOF 3
ENDMDL
MODEL 3
REMARK VINA RESULT:      -6.7      0.977      1.238
REMARK  Name = 
REMARK  6 active torsions:
REMARK  status: ('A' for Active; 'I' for Inactive)
REMARK    1  A    between atoms: C_1  and  C_2
REMARK    2  A    between atoms: C_2  and  C_3
REMARK    3  A    between atoms: C_2  and  C_4
REMARK    4  A    between atoms: C_2  and  O_5
REMARK    5  A    between atoms: O_5  and  C_6
REMARK    6  A    between atoms: C_14  and  O_15
REMARK                            x       y       z     vdW  Elec       q    Type
REMARK                         _______ _______ _______ _____ _____    ______ ____
ROOT
ATOM      1  C   UNL     1       1.931   8.086  19.318  0.00  0.00    +0.000 C 
ATOM      2  O   UNL     1       1.717   9.070  18.615  0.00  0.00    +0.000 OA
ATOM      3  N   UNL     1       2.758   7.063  18.909  0.00  0.00    +0.000 N 
ATOM      4  C   UNL     1       3.111   5.902  19.736  0.00  0.00    +0.000 C 
ATOM      5  C   UNL     1       3.180   4.577  18.912  0.00  0.00    +0.000 C 
ATOM      6  C   UNL     1       4.509   3.836  19.129  0.00  0.00    +0.000 C 
ATOM      7  C   UNL     1       5.661   4.730  18.736  0.00  0.00    +0.000 A 
ATOM      8  N   UNL     1       6.792   4.580  19.462  0.00  0.00    +0.000 NA
ATOM      9  C   UNL     1       7.725   5.527  19.302  0.00  0.00    +0.000 A 
ATOM     10  C   UNL     1       7.629   6.608  18.455  0.00  0.00    +0.000 A 
ATOM     11  C   UNL     1       6.488   6.712  17.668  0.00  0.00    +0.000 A 
ATOM     12  C   UNL     1       5.462   5.765  17.802  0.00  0.00    +0.000 A 
ATOM     13  C   UNL     1       4.117   5.974  17.110  0.00  0.00    +0.000 C 
ATOM     14  C   UNL     1       3.117   4.844  17.400  0.00  0.00    +0.000 C 
ATOM     15  C   UNL     1       3.432   7.249  17.618  0.00  0.00    +0.000 C 
ENDROOT
BRANCH   9  16
ATOM     16  O   UNL     1       8.798   5.373  20.114  0.00  0.00    +0.000 OA
ATOM     17  H   UNL     1       9.243   6.224  19.952  0.00  0.00    +0.000 HD
ENDBRANCH   9  16
BRANCH   1  18
ATOM     18  O   UNL     1       1.375   7.873  20.538  0.00  0.00    +0.000 OA
BRANCH  18  20
ATOM     19  C   UNL     1       0.629  10.191  20.306  0.00  0.00    +0.000 C 
ATOM     20  C   UNL     1       0.789   8.985  21.250  0.00  0.00    +0.000 C 
ATOM     21  C   UNL     1       1.576   9.330  22.519  0.00  0.00    +0.000 C 
ATOM     22  C   UNL     1      -0.614   8.525  21.674  0.00  0.00    +0.000 C 
ENDBRANCH  18  20
ENDBRANCH   1  18
TORSDOF 3
ENDMDL
MODEL 4
REMARK VINA RESULT:      -6.6      1.405      1.805
REMARK  Name = 
REMARK  6 active torsions:
REMARK  status: ('A' for Active; 'I' for Inactive)
REMARK    1  A    between atoms: C_1  and  C_2
REMARK    2  A    between atoms: C_2  and  C_3
REMARK    3  A    between atoms: C_2  and  C_4
REMARK    4  A    between atoms: C_2  and  O_5
REMARK    5  A    between atoms: O_5  and  C_6
REMARK    6  A    between atoms: C_14  and  O_15
REMARK                            x       y       z     vdW  Elec       q    Type
REMARK                         _______ _______ _______ _____ _____    ______ ____
ROOT
ATOM      1  C   UNL     1       1.673   8.415  19.567  0.00  0.00    +0.000 C 
ATOM      2  O   UNL     1       1.241   9.166  18.696  0.00  0.00    +0.000 OA
ATOM      3  N   UNL     1       2.143   7.153  19.274  0.00  0.00    +0.000 N 
ATOM      4  C   UNL     1       2.742   6.243  20.260  0.00  0.00    +0.000 C 
ATOM      5  C   UNL     1       2.327   4.755  20.032  0.00  0.00    +0.000 C 
ATOM      6  C   UNL     1       3.548   3.824  19.963  0.00  0.00    +0.000 C 
ATOM      7  C   UNL     1       4.462   4.267  18.845  0.00  0.00    +0.000 A 
ATOM      8  N   UNL     1       5.785   4.080  19.062  0.00  0.00    +0.000 NA
ATOM      9  C   UNL     1       6.614   4.692  18.207  0.00  0.00    +0.000 A 
ATOM     10  C   UNL     1       6.229   5.462  17.132  0.00  0.00    +0.000 A 
ATOM     11  C   UNL     1       4.867   5.589  16.885  0.00  0.00    +0.000 A 
ATOM     12  C   UNL     1       3.943   4.992  17.755  0.00  0.00    +0.000 A 
ATOM     13  C   UNL     1       2.451   5.292  17.629  0.00  0.00    +0.000 C 
ATOM     14  C   UNL     1       1.607   4.565  18.688  0.00  0.00    +0.000 C 
ATOM     15  C   UNL     1       2.171   6.784  17.855  0.00  0.00    +0.000 C 
ENDROOT
BRANCH   9  16
ATOM     16  O   UNL     1       7.923   4.542  18.521  0.00  0.00    +0.000 OA
ATOM     17  H   UNL     1       8.122   5.451  18.810  0.00  0.00    +0.000 HD
ENDBRANCH   9  16
BRANCH   1  18
ATOM     18  O   UNL     1       1.716   8.712  20.891  0.00  0.00    +0.000 OA
BRANCH  18  20
ATOM     19  C   UNL     1       0.048  10.500  20.856  0.00  0.00    +0.000 C 
ATOM     20  C   UNL     1       0.525   9.207  21.541  0.00  0.00    +0.000 C 
ATOM     21  C   UNL     1       0.730   9.382  23.051  0.00  0.00    +0.000 C 
ATOM     22  C   UNL     1      -0.552   8.132  21.331  0.00  0.00    +0.000 C 
ENDBRANCH  18  20
ENDBRANCH   1  18
TORSDOF 3
ENDMDL
MODEL 5
REMARK VINA RESULT:      -6.6      3.213      4.366
REMARK  Name = 
REMARK  6 active torsions:
REMARK  status: ('A' for Active; 'I' for Inactive)
REMARK    1  A    between atoms: C_1  and  C_2
REMARK    2  A    between atoms: C_2  and  C_3
REMARK    3  A    between atoms: C_2  and  C_4
REMARK    4  A    between atoms: C_2  and  O_5
REMARK    5  A    between atoms: O_5  and  C_6
REMARK    6  A    between atoms: C_14  and  O_15
REMARK                            x       y       z     vdW  Elec       q    Type
REMARK                         _______ _______ _______ _____ _____    ______ ____
ROOT
ATOM      1  C   UNL     1       2.901   5.446  18.751  0.00  0.00    +0.000 C 
ATOM      2  O   UNL     1       1.980   5.830  18.035  0.00  0.00    +0.000 OA
ATOM      3  N   UNL     1       4.215   5.492  18.337  0.00  0.00    +0.000 N 
ATOM      4  C   UNL     1       5.361   5.120  19.176  0.00  0.00    +0.000 C 
ATOM      5  C   UNL     1       6.468   4.361  18.378  0.00  0.00    +0.000 C 
ATOM      6  C   UNL     1       7.852   5.001  18.569  0.00  0.00    +0.000 C 
ATOM      7  C   UNL     1       7.812   6.443  18.123  0.00  0.00    +0.000 A 
ATOM      8  N   UNL     1       8.605   7.292  18.816  0.00  0.00    +0.000 NA
ATOM      9  C   UNL     1       8.393   8.597  18.609  0.00  0.00    +0.000 A 
ATOM     10  C   UNL     1       7.464   9.129  17.743  0.00  0.00    +0.000 A 
ATOM     11  C   UNL     1       6.704   8.242  16.990  0.00  0.00    +0.000 A 
ATOM     12  C   UNL     1       6.859   6.861  17.174  0.00  0.00    +0.000 A 
ATOM     13  C   UNL     1       5.893   5.876  16.520  0.00  0.00    +0.000 C 
ATOM     14  C   UNL     1       6.212   4.412  16.863  0.00  0.00    +0.000 C 
ATOM     15  C   UNL     1       4.461   6.097  17.023  0.00  0.00    +0.000 C 
ENDROOT
BRANCH   9  16
ATOM     16  O   UNL     1       9.155   9.400  19.390  0.00  0.00    +0.000 OA
ATOM     17  H   UNL     1       9.887   8.787  19.580  0.00  0.00    +0.000 HD
ENDBRANCH   9  16
BRANCH   1  18
ATOM     18  O   UNL     1       2.746   4.918  19.991  0.00  0.00    +0.000 OA
BRANCH  18  20
ATOM     19  C   UNL     1       2.767   2.640  19.101  0.00  0.00    +0.000 C 
ATOM     20  C   UNL     1       2.156   3.607  20.131  0.00  0.00    +0.000 C 
ATOM     21  C   UNL     1       0.625   3.658  20.055  0.00  0.00    +0.000 C 
ATOM     22  C   UNL     1       2.543   3.114  21.533  0.00  0.00    +0.000 C 
ENDBRANCH  18  20
ENDBRANCH   1  18
TORSDOF 3
ENDMDL
MODEL 6
REMARK VINA RESULT:      -6.4      2.846      3.813
REMARK  Name = 
REMARK  6 active torsions:
REMARK  status: ('A' for Active; 'I' for Inactive)
REMARK    1  A    between atoms: C_1  and  C_2
REMARK    2  A    between atoms: C_2  and  C_3
REMARK    3  A    between atoms: C_2  and  C_4
REMARK    4  A    between atoms: C_2  and  O_5
REMARK    5  A    between atoms: O_5  and  C_6
REMARK    6  A    between atoms: C_14  and  O_15
REMARK                            x       y       z     vdW  Elec       q    Type
REMARK                         _______ _______ _______ _____ _____    ______ ____
ROOT
ATOM      1  C   UNL     1       2.627   7.088  17.796  0.00  0.00    +0.000 C 
ATOM      2  O   UNL     1       1.599   6.439  17.973  0.00  0.00    +0.000 OA
ATOM      3  N   UNL     1       3.857   6.481  17.653  0.00  0.00    +0.000 N 
ATOM      4  C   UNL     1       5.105   7.198  17.362  0.00  0.00    +0.000 C 
ATOM      5  C   UNL     1       6.328   6.612  18.136  0.00  0.00    +0.000 C 
ATOM      6  C   UNL     1       7.501   6.293  17.195  0.00  0.00    +0.000 C 
ATOM      7  C   UNL     1       7.055   5.307  16.141  0.00  0.00    +0.000 A 
ATOM      8  N   UNL     1       7.631   5.451  14.925  0.00  0.00    +0.000 NA
ATOM      9  C   UNL     1       7.068   4.763  13.923  0.00  0.00    +0.000 A 
ATOM     10  C   UNL     1       5.985   3.921  14.040  0.00  0.00    +0.000 A 
ATOM     11  C   UNL     1       5.448   3.734  15.308  0.00  0.00    +0.000 A 
ATOM     12  C   UNL     1       5.974   4.441  16.399  0.00  0.00    +0.000 A 
ATOM     13  C   UNL     1       5.271   4.418  17.753  0.00  0.00    +0.000 C 
ATOM     14  C   UNL     1       5.986   5.274  18.810  0.00  0.00    +0.000 C 
ATOM     15  C   UNL     1       3.861   5.014  17.649  0.00  0.00    +0.000 C 
ENDROOT
BRANCH   9  16
ATOM     16  O   UNL     1       7.630   5.009  12.716  0.00  0.00    +0.000 OA
ATOM     17  H   UNL     1       6.823   5.071  12.175  0.00  0.00    +0.000 HD
ENDBRANCH   9  16
BRANCH   1  18
ATOM     18  O   UNL     1       2.686   8.442  17.746  0.00  0.00    +0.000 OA
BRANCH  18  20
ATOM     19  C   UNL     1       1.506   8.802  19.857  0.00  0.00    +0.000 C 
ATOM     20  C   UNL     1       1.647   9.218  18.382  0.00  0.00    +0.000 C 
ATOM     21  C   UNL     1       0.321   9.133  17.617  0.00  0.00    +0.000 C 
ATOM     22  C   UNL     1       2.123  10.678  18.344  0.00  0.00    +0.000 C 
ENDBRANCH  18  20
ENDBRANCH   1  18
TORSDOF 3
ENDMDL
MODEL 7
REMARK VINA RESULT:      -6.3      3.753      5.333
REMARK  Name = 
REMARK  6 active torsions:
REMARK  status: ('A' for Active; 'I' for Inactive)
REMARK    1  A    between atoms: C_1  and  C_2
REMARK    2  A    between atoms: C_2  and  C_3
REMARK    3  A    between atoms: C_2  and  C_4
REMARK    4  A    between atoms: C_2  and  O_5
REMARK    5  A    between atoms: O_5  and  C_6
REMARK    6  A    between atoms: C_14  and  O_15
REMARK                            x       y       z     vdW  Elec       q    Type
REMARK                         _______ _______ _______ _____ _____    ______ ____
ROOT
ATOM      1  C   UNL     1       3.957   3.002  19.800  0.00  0.00    +0.000 C 
ATOM      2  O   UNL     1       4.671   2.414  20.608  0.00  0.00    +0.000 OA
ATOM      3  N   UNL     1       4.440   4.018  19.003  0.00  0.00    +0.000 N 
ATOM      4  C   UNL     1       3.655   4.703  17.969  0.00  0.00    +0.000 C 
ATOM      5  C   UNL     1       3.951   6.235  17.905  0.00  0.00    +0.000 C 
ATOM      6  C   UNL     1       4.305   6.691  16.481  0.00  0.00    +0.000 C 
ATOM      7  C   UNL     1       5.509   5.926  15.985  0.00  0.00    +0.000 A 
ATOM      8  N   UNL     1       5.527   5.658  14.659  0.00  0.00    +0.000 NA
ATOM      9  C   UNL     1       6.444   4.772  14.250  0.00  0.00    +0.000 A 
ATOM     10  C   UNL     1       7.365   4.143  15.058  0.00  0.00    +0.000 A 
ATOM     11  C   UNL     1       7.375   4.479  16.406  0.00  0.00    +0.000 A 
ATOM     12  C   UNL     1       6.428   5.385  16.906  0.00  0.00    +0.000 A 
ATOM     13  C   UNL     1       6.281   5.606  18.409  0.00  0.00    +0.000 C 
ATOM     14  C   UNL     1       5.173   6.612  18.757  0.00  0.00    +0.000 C 
ATOM     15  C   UNL     1       5.874   4.307  19.117  0.00  0.00    +0.000 C 
ENDROOT
BRANCH   9  16
ATOM     16  O   UNL     1       6.361   4.478  12.931  0.00  0.00    +0.000 OA
ATOM     17  H   UNL     1       5.408   4.287  12.870  0.00  0.00    +0.000 HD
ENDBRANCH   9  16
BRANCH   1  18
ATOM     18  O   UNL     1       2.636   2.754  19.615  0.00  0.00    +0.000 OA
BRANCH  18  20
ATOM     19  C   UNL     1       2.042   4.723  20.938  0.00  0.00    +0.000 C 
ATOM     20  C   UNL     1       1.680   3.275  20.564  0.00  0.00    +0.000 C 
ATOM     21  C   UNL     1       1.542   2.367  21.792  0.00  0.00    +0.000 C 
ATOM     22  C   UNL     1       0.327   3.296  19.836  0.00  0.00    +0.000 C 
ENDBRANCH  18  20
ENDBRANCH   1  18
TORSDOF 3
ENDMDL
MODEL 8
REMARK VINA RESULT:      -6.2      3.388      5.971
REMARK  Name = 
REMARK  6 active torsions:
REMARK  status: ('A' for Active; 'I' for Inactive)
REMARK    1  A    between atoms: C_1  and  C_2
REMARK    2  A    between atoms: C_2  and  C_3
REMARK    3  A    between atoms: C_2  and  C_4
REMARK    4  A    between atoms: C_2  and  O_5
REMARK    5  A    between atoms: O_5  and  C_6
REMARK    6  A    between atoms: C_14  and  O_15
REMARK                            x       y       z     vdW  Elec       q    Type
REMARK                         _______ _______ _______ _____ _____    ______ ____
ROOT
ATOM      1  C   UNL     1       5.413   4.384  16.917  0.00  0.00    +0.000 C 
ATOM      2  O   UNL     1       5.431   3.773  15.851  0.00  0.00    +0.000 OA
ATOM      3  N   UNL     1       4.238   4.638  17.592  0.00  0.00    +0.000 N 
ATOM      4  C   UNL     1       4.163   5.293  18.904  0.00  0.00    +0.000 C 
ATOM      5  C   UNL     1       2.949   6.270  19.018  0.00  0.00    +0.000 C 
ATOM      6  C   UNL     1       2.097   5.980  20.264  0.00  0.00    +0.000 C 
ATOM      7  C   UNL     1       1.592   4.558  20.216  0.00  0.00    +0.000 A 
ATOM      8  N   UNL     1       1.472   3.939  21.414  0.00  0.00    +0.000 NA
ATOM      9  C   UNL     1       1.276   2.615  21.375  0.00  0.00    +0.000 A 
ATOM     10  C   UNL     1       1.168   1.856  20.232  0.00  0.00    +0.000 A 
ATOM     11  C   UNL     1       1.228   2.517  19.011  0.00  0.00    +0.000 A 
ATOM     12  C   UNL     1       1.454   3.900  18.978  0.00  0.00    +0.000 A 
ATOM     13  C   UNL     1       1.736   4.611  17.657  0.00  0.00    +0.000 C 
ATOM     14  C   UNL     1       1.984   6.117  17.833  0.00  0.00    +0.000 C 
ATOM     15  C   UNL     1       3.017   4.071  17.008  0.00  0.00    +0.000 C 
ENDROOT
BRANCH   9  16
ATOM     16  O   UNL     1       1.247   2.037  22.600  0.00  0.00    +0.000 OA
ATOM     17  H   UNL     1       1.831   2.652  23.079  0.00  0.00    +0.000 HD
ENDBRANCH   9  16
BRANCH   1  18
ATOM     18  O   UNL     1       6.509   4.895  17.533  0.00  0.00    +0.000 OA
BRANCH  18  20
ATOM     19  C   UNL     1       7.924   6.758  18.244  0.00  0.00    +0.000 C 
ATOM     20  C   UNL     1       6.978   6.210  17.161  0.00  0.00    +0.000 C 
ATOM     21  C   UNL     1       5.818   7.165  16.855  0.00  0.00    +0.000 C 
ATOM     22  C   UNL     1       7.790   6.022  15.871  0.00  0.00    +0.000 C 
ENDBRANCH  18  20
ENDBRANCH   1  18
TORSDOF 3
ENDMDL
MODEL 9
REMARK VINA RESULT:      -6.1      2.786      3.563
REMARK  Name = 
REMARK  6 active torsions:
REMARK  status: ('A' for Active; 'I' for Inactive)
REMARK    1  A    between atoms: C_1  and  C_2
REMARK    2  A    between atoms: C_2  and  C_3
REMARK    3  A    between atoms: C_2  and  C_4
REMARK    4  A    between atoms: C_2  and  O_5
REMARK    5  A    between atoms: O_5  and  C_6
REMARK    6  A    between atoms: C_14  and  O_15
REMARK                            x       y       z     vdW  Elec       q    Type
REMARK                         _______ _______ _______ _____ _____    ______ ____
ROOT
ATOM      1  C   UNL     1       2.644   7.044  18.024  0.00  0.00    +0.000 C 
ATOM      2  O   UNL     1       1.536   6.515  18.013  0.00  0.00    +0.000 OA
ATOM      3  N   UNL     1       3.801   6.318  17.837  0.00  0.00    +0.000 N 
ATOM      4  C   UNL     1       5.144   6.906  17.763  0.00  0.00    +0.000 C 
ATOM      5  C   UNL     1       6.223   6.030  18.477  0.00  0.00    +0.000 C 
ATOM      6  C   UNL     1       7.423   5.741  17.560  0.00  0.00    +0.000 C 
ATOM      7  C   UNL     1       6.950   5.036  16.311  0.00  0.00    +0.000 A 
ATOM      8  N   UNL     1       7.636   5.326  15.181  0.00  0.00    +0.000 NA
ATOM      9  C   UNL     1       7.080   4.917  14.034  0.00  0.00    +0.000 A 
ATOM     10  C   UNL     1       5.899   4.218  13.922  0.00  0.00    +0.000 A 
ATOM     11  C   UNL     1       5.242   3.871  15.096  0.00  0.00    +0.000 A 
ATOM     12  C   UNL     1       5.758   4.287  16.332  0.00  0.00    +0.000 A 
ATOM     13  C   UNL     1       4.948   4.105  17.614  0.00  0.00    +0.000 C 
ATOM     14  C   UNL     1       5.671   4.648  18.856  0.00  0.00    +0.000 C 
ATOM     15  C   UNL     1       3.632   4.890  17.547  0.00  0.00    +0.000 C 
ENDROOT
BRANCH   9  16
ATOM     16  O   UNL     1       7.763   5.308  12.932  0.00  0.00    +0.000 OA
ATOM     17  H   UNL     1       8.020   6.204  13.214  0.00  0.00    +0.000 HD
ENDBRANCH   9  16
BRANCH   1  18
ATOM     18  O   UNL     1       2.867   8.365  18.243  0.00  0.00    +0.000 OA
BRANCH  18  20
ATOM     19  C   UNL     1       0.619   8.860  17.415  0.00  0.00    +0.000 C 
ATOM     20  C   UNL     1       1.739   9.255  18.394  0.00  0.00    +0.000 C 
ATOM     21  C   UNL     1       2.150  10.725  18.257  0.00  0.00    +0.000 C 
ATOM     22  C   UNL     1       1.218   9.040  19.823  0.00  0.00    +0.000 C 
ENDBRANCH  18  20
ENDBRANCH   1  18
TORSDOF 3
ENDMDL
