MODEL 1
REMARK VINA RESULT:      -7.9      0.000      0.000
REMARK  Name = 
REMARK  4 active torsions:
REMARK  status: ('A' for Active; 'I' for Inactive)
REMARK    1  A    between atoms: C_1  and  C_2
REMARK    2  A    between atoms: C_2  and  C_3
REMARK    3  A    between atoms: C_12  and  N_13
REMARK    4  A    between atoms: C_19  and  O_20
REMARK                            x       y       z     vdW  Elec       q    Type
REMARK                         _______ _______ _______ _____ _____    ______ ____
ROOT
ATOM      1  C   UNL     1       3.472   1.706  18.369  0.00  0.00    +0.000 C 
ATOM      2  C   UNL     1       3.791   3.201  18.582  0.00  0.00    +0.000 C 
ATOM      3  C   UNL     1       3.214   3.616  19.946  0.00  0.00    +0.000 C 
ATOM      4  N   UNL     1       5.255   3.351  18.617  0.00  0.00    +0.000 N 
ATOM      5  C   UNL     1       5.801   4.616  18.402  0.00  0.00    +0.000 A 
ATOM      6  C   UNL     1       7.163   4.809  18.686  0.00  0.00    +0.000 A 
ATOM      7  C   UNL     1       7.787   6.029  18.431  0.00  0.00    +0.000 A 
ATOM      8  C   UNL     1       7.072   7.057  17.828  0.00  0.00    +0.000 A 
ATOM      9 CL   UNL     1       7.823   8.580  17.547  0.00  0.00    +0.000 Cl
ATOM     10  C   UNL     1       5.737   6.868  17.482  0.00  0.00    +0.000 A 
ATOM     11  C   UNL     1       5.082   5.660  17.790  0.00  0.00    +0.000 A 
ATOM     12  C   UNL     1       3.581   5.528  17.522  0.00  0.00    +0.000 C 
ATOM     13  C   UNL     1       3.236   4.013  17.384  0.00  0.00    +0.000 C 
ATOM     14  H   UNL     1       5.713   2.810  19.343  0.00  0.00    +0.000 HD
ENDROOT
BRANCH  12  15
ATOM     15  N   UNL     1       2.753   6.296  18.499  0.00  0.00    +0.000 N 
ATOM     16  C   UNL     1       2.724   6.008  19.922  0.00  0.00    +0.000 C 
ATOM     17  C   UNL     1       1.738   7.016  20.475  0.00  0.00    +0.000 C 
ATOM     18  C   UNL     1       1.986   8.234  19.607  0.00  0.00    +0.000 C 
ATOM     19  C   UNL     1       2.357   7.614  18.285  0.00  0.00    +0.000 C 
ATOM     20  O   UNL     1       2.353   8.200  17.215  0.00  0.00    +0.000 OA
ENDBRANCH  12  15
BRANCH  13  21
ATOM     21  O   UNL     1       1.874   3.684  17.105  0.00  0.00    +0.000 OA
ATOM     22  H   UNL     1       1.803   3.340  16.192  0.00  0.00    +0.000 HD
ENDBRANCH  13  21
TORSDOF 2
ENDMDL
MODEL 2
REMARK VINA RESULT:      -7.3      2.050      4.115
REMARK  Name = 
REMARK  4 active torsions:
REMARK  status: ('A' for Active; 'I' for Inactive)
REMARK    1  A    between atoms: C_1  and  C_2
REMARK    2  A    between atoms: C_2  and  C_3
REMARK    3  A    between atoms: C_12  and  N_13
REMARK    4  A    between atoms: C_19  and  O_20
REMARK                            x       y       z     vdW  Elec       q    Type
REMARK                         _______ _______ _______ _____ _____    ______ ____
ROOT
ATOM      1  C   UNL     1       1.477   8.719  18.481  0.00  0.00    +0.000 C 
ATOM      2  C   UNL     1       2.282   7.410  18.347  0.00  0.00    +0.000 C 
ATOM      3  C   UNL     1       1.413   6.399  17.580  0.00  0.00    +0.000 C 
ATOM      4  N   UNL     1       3.489   7.700  17.555  0.00  0.00    +0.000 N 
ATOM      5  C   UNL     1       4.561   6.809  17.622  0.00  0.00    +0.000 A 
ATOM      6  C   UNL     1       5.597   6.944  16.683  0.00  0.00    +0.000 A 
ATOM      7  C   UNL     1       6.727   6.131  16.736  0.00  0.00    +0.000 A 
ATOM      8  C   UNL     1       6.868   5.211  17.768  0.00  0.00    +0.000 A 
ATOM      9 CL   UNL     1       8.242   4.175  17.817  0.00  0.00    +0.000 Cl
ATOM     10  C   UNL     1       5.883   5.101  18.744  0.00  0.00    +0.000 A 
ATOM     11  C   UNL     1       4.709   5.876  18.666  0.00  0.00    +0.000 A 
ATOM     12  C   UNL     1       3.582   5.639  19.674  0.00  0.00    +0.000 C 
ATOM     13  C   UNL     1       2.715   6.934  19.757  0.00  0.00    +0.000 C 
ATOM     14  H   UNL     1       3.302   8.067  16.628  0.00  0.00    +0.000 HD
ENDROOT
BRANCH  12  15
ATOM     15  N   UNL     1       2.835   4.374  19.414  0.00  0.00    +0.000 N 
ATOM     16  C   UNL     1       3.072   3.528  18.258  0.00  0.00    +0.000 C 
ATOM     17  C   UNL     1       2.071   2.403  18.420  0.00  0.00    +0.000 C 
ATOM     18  C   UNL     1       2.022   2.217  19.924  0.00  0.00    +0.000 C 
ATOM     19  C   UNL     1       2.248   3.619  20.427  0.00  0.00    +0.000 C 
ATOM     20  O   UNL     1       1.998   4.003  21.558  0.00  0.00    +0.000 OA
ENDBRANCH  12  15
BRANCH  13  21
ATOM     21  O   UNL     1       1.618   6.918  20.672  0.00  0.00    +0.000 OA
ATOM     22  H   UNL     1       1.695   6.139  21.258  0.00  0.00    +0.000 HD
ENDBRANCH  13  21
TORSDOF 2
ENDMDL
MODEL 3
REMARK VINA RESULT:      -7.3      3.488      4.989
REMARK  Name = 
REMARK  4 active torsions:
REMARK  status: ('A' for Active; 'I' for Inactive)
REMARK    1  A    between atoms: C_1  and  C_2
REMARK    2  A    between atoms: C_2  and  C_3
REMARK    3  A    between atoms: C_12  and  N_13
REMARK    4  A    between atoms: C_19  and  O_20
REMARK                            x       y       z     vdW  Elec       q    Type
REMARK                         _______ _______ _______ _____ _____    ______ ____
ROOT
ATOM      1  C   UNL     1       8.171   7.319  18.465  0.00  0.00    +0.000 C 
ATOM      2  C   UNL     1       7.153   6.475  17.670  0.00  0.00    +0.000 C 
ATOM      3  C   UNL     1       5.769   7.124  17.841  0.00  0.00    +0.000 C 
ATOM      4  N   UNL     1       7.533   6.529  16.249  0.00  0.00    +0.000 N 
ATOM      5  C   UNL     1       7.030   5.556  15.385  0.00  0.00    +0.000 A 
ATOM      6  C   UNL     1       7.181   5.751  14.003  0.00  0.00    +0.000 A 
ATOM      7  C   UNL     1       6.761   4.786  13.089  0.00  0.00    +0.000 A 
ATOM      8  C   UNL     1       6.241   3.582  13.547  0.00  0.00    +0.000 A 
ATOM      9 CL   UNL     1       5.683   2.402  12.425  0.00  0.00    +0.000 Cl
ATOM     10  C   UNL     1       6.139   3.340  14.914  0.00  0.00    +0.000 A 
ATOM     11  C   UNL     1       6.504   4.333  15.845  0.00  0.00    +0.000 A 
ATOM     12  C   UNL     1       6.255   4.095  17.335  0.00  0.00    +0.000 C 
ATOM     13  C   UNL     1       7.228   5.004  18.149  0.00  0.00    +0.000 C 
ATOM     14  H   UNL     1       7.561   7.466  15.859  0.00  0.00    +0.000 HD
ENDROOT
BRANCH  12  15
ATOM     15  N   UNL     1       4.812   4.200  17.701  0.00  0.00    +0.000 N 
ATOM     16  C   UNL     1       3.771   4.559  16.754  0.00  0.00    +0.000 C 
ATOM     17  C   UNL     1       2.507   4.560  17.588  0.00  0.00    +0.000 C 
ATOM     18  C   UNL     1       2.756   3.430  18.568  0.00  0.00    +0.000 C 
ATOM     19  C   UNL     1       4.247   3.500  18.765  0.00  0.00    +0.000 C 
ATOM     20  O   UNL     1       4.854   2.981  19.688  0.00  0.00    +0.000 OA
ENDBRANCH  12  15
BRANCH  13  21
ATOM     21  O   UNL     1       7.164   4.905  19.573  0.00  0.00    +0.000 OA
ATOM     22  H   UNL     1       6.734   4.062  19.821  0.00  0.00    +0.000 HD
ENDBRANCH  13  21
TORSDOF 2
ENDMDL
MODEL 4
REMARK VINA RESULT:      -7.2      3.314      5.245
REMARK  Name = 
REMARK  4 active torsions:
REMARK  status: ('A' for Active; 'I' for Inactive)
REMARK    1  A    between atoms: C_1  and  C_2
REMARK    2  A    between atoms: C_2  and  C_3
REMARK    3  A    between atoms: C_12  and  N_13
REMARK    4  A    between atoms: C_19  and  O_20
REMARK                            x       y       z     vdW  Elec       q    Type
REMARK                         _______ _______ _______ _____ _____    ______ ____
ROOT
ATOM      1  C   UNL     1       8.073   6.282  19.503  0.00  0.00    +0.000 C 
ATOM      2  C   UNL     1       7.044   5.450  18.710  0.00  0.00    +0.000 C 
ATOM      3  C   UNL     1       7.821   4.513  17.770  0.00  0.00    +0.000 C 
ATOM      4  N   UNL     1       6.281   4.638  19.671  0.00  0.00    +0.000 N 
ATOM      5  C   UNL     1       5.053   4.109  19.271  0.00  0.00    +0.000 A 
ATOM      6  C   UNL     1       4.452   3.135  20.085  0.00  0.00    +0.000 A 
ATOM      7  C   UNL     1       3.196   2.616  19.779  0.00  0.00    +0.000 A 
ATOM      8  C   UNL     1       2.492   3.109  18.687  0.00  0.00    +0.000 A 
ATOM      9 CL   UNL     1       0.958   2.445  18.278  0.00  0.00    +0.000 Cl
ATOM     10  C   UNL     1       3.041   4.118  17.901  0.00  0.00    +0.000 A 
ATOM     11  C   UNL     1       4.335   4.607  18.167  0.00  0.00    +0.000 A 
ATOM     12  C   UNL     1       4.970   5.618  17.208  0.00  0.00    +0.000 C 
ATOM     13  C   UNL     1       6.068   6.410  17.984  0.00  0.00    +0.000 C 
ATOM     14  H   UNL     1       6.848   4.011  20.232  0.00  0.00    +0.000 HD
ENDROOT
BRANCH  12  15
ATOM     15  N   UNL     1       5.404   4.996  15.923  0.00  0.00    +0.000 N 
ATOM     16  C   UNL     1       5.425   3.562  15.694  0.00  0.00    +0.000 C 
ATOM     17  C   UNL     1       5.956   3.428  14.282  0.00  0.00    +0.000 C 
ATOM     18  C   UNL     1       5.367   4.641  13.590  0.00  0.00    +0.000 C 
ATOM     19  C   UNL     1       5.334   5.659  14.699  0.00  0.00    +0.000 C 
ATOM     20  O   UNL     1       5.215   6.862  14.539  0.00  0.00    +0.000 OA
ENDBRANCH  12  15
BRANCH  13  21
ATOM     21  O   UNL     1       6.763   7.426  17.259  0.00  0.00    +0.000 OA
ATOM     22  H   UNL     1       7.533   7.030  16.803  0.00  0.00    +0.000 HD
ENDBRANCH  13  21
TORSDOF 2
ENDMDL
MODEL 5
REMARK VINA RESULT:      -7.2      2.588      4.493
REMARK  Name = 
REMARK  4 active torsions:
REMARK  status: ('A' for Active; 'I' for Inactive)
REMARK    1  A    between atoms: C_1  and  C_2
REMARK    2  A    between atoms: C_2  and  C_3
REMARK    3  A    between atoms: C_12  and  N_13
REMARK    4  A    between atoms: C_19  and  O_20
REMARK                            x       y       z     vdW  Elec       q    Type
REMARK                         _______ _______ _______ _____ _____    ______ ____
ROOT
ATOM      1  C   UNL     1       3.463   1.716  18.019  0.00  0.00    +0.000 C 
ATOM      2  C   UNL     1       3.772   3.226  17.947  0.00  0.00    +0.000 C 
ATOM      3  C   UNL     1       4.736   3.453  16.771  0.00  0.00    +0.000 C 
ATOM      4  N   UNL     1       2.510   3.933  17.673  0.00  0.00    +0.000 N 
ATOM      5  C   UNL     1       2.437   5.299  17.947  0.00  0.00    +0.000 A 
ATOM      6  C   UNL     1       1.336   6.018  17.453  0.00  0.00    +0.000 A 
ATOM      7  C   UNL     1       1.168   7.370  17.747  0.00  0.00    +0.000 A 
ATOM      8  C   UNL     1       2.066   8.008  18.594  0.00  0.00    +0.000 A 
ATOM      9 CL   UNL     1       1.888   9.687  18.930  0.00  0.00    +0.000 Cl
ATOM     10  C   UNL     1       3.130   7.301  19.145  0.00  0.00    +0.000 A 
ATOM     11  C   UNL     1       3.343   5.950  18.805  0.00  0.00    +0.000 A 
ATOM     12  C   UNL     1       4.595   5.234  19.316  0.00  0.00    +0.000 C 
ATOM     13  C   UNL     1       4.319   3.698  19.318  0.00  0.00    +0.000 C 
ATOM     14  H   UNL     1       2.050   3.649  16.813  0.00  0.00    +0.000 HD
ENDROOT
BRANCH  12  15
ATOM     15  N   UNL     1       5.835   5.669  18.607  0.00  0.00    +0.000 N 
ATOM     16  C   UNL     1       5.829   6.543  17.448  0.00  0.00    +0.000 C 
ATOM     17  C   UNL     1       7.293   6.668  17.080  0.00  0.00    +0.000 C 
ATOM     18  C   UNL     1       7.978   6.643  18.433  0.00  0.00    +0.000 C 
ATOM     19  C   UNL     1       7.080   5.735  19.230  0.00  0.00    +0.000 C 
ATOM     20  O   UNL     1       7.390   5.190  20.277  0.00  0.00    +0.000 OA
ENDBRANCH  12  15
BRANCH  13  21
ATOM     21  O   UNL     1       5.370   2.854  19.789  0.00  0.00    +0.000 OA
ATOM     22  H   UNL     1       5.499   2.115  19.161  0.00  0.00    +0.000 HD
ENDBRANCH  13  21
TORSDOF 2
ENDMDL
MODEL 6
REMARK VINA RESULT:      -7.1      6.104      8.959
REMARK  Name = 
REMARK  4 active torsions:
REMARK  status: ('A' for Active; 'I' for Inactive)
REMARK    1  A    between atoms: C_1  and  C_2
REMARK    2  A    between atoms: C_2  and  C_3
REMARK    3  A    between atoms: C_12  and  N_13
REMARK    4  A    between atoms: C_19  and  O_20
REMARK                            x       y       z     vdW  Elec       q    Type
REMARK                         _______ _______ _______ _____ _____    ______ ____
ROOT
ATOM      1  C   UNL     1       1.825   8.727  18.776  0.00  0.00    +0.000 C 
ATOM      2  C   UNL     1       0.836   9.905  18.654  0.00  0.00    +0.000 C 
ATOM      3  C   UNL     1       1.631  11.142  18.203  0.00  0.00    +0.000 C 
ATOM      4  N   UNL     1      -0.147   9.564  17.613  0.00  0.00    +0.000 N 
ATOM      5  C   UNL     1      -1.355  10.262  17.581  0.00  0.00    +0.000 A 
ATOM      6  C   UNL     1      -2.175  10.120  16.450  0.00  0.00    +0.000 A 
ATOM      7  C   UNL     1      -3.424  10.736  16.383  0.00  0.00    +0.000 A 
ATOM      8  C   UNL     1      -3.899  11.452  17.475  0.00  0.00    +0.000 A 
ATOM      9 CL   UNL     1      -5.422  12.249  17.386  0.00  0.00    +0.000 Cl
ATOM     10  C   UNL     1      -3.130  11.555  18.630  0.00  0.00    +0.000 A 
ATOM     11  C   UNL     1      -1.842  10.988  18.685  0.00  0.00    +0.000 A 
ATOM     12  C   UNL     1      -0.964  11.231  19.914  0.00  0.00    +0.000 C 
ATOM     13  C   UNL     1       0.092  10.084  20.001  0.00  0.00    +0.000 C 
ATOM     14  H   UNL     1       0.257   9.378  16.700  0.00  0.00    +0.000 HD
ENDROOT
BRANCH  12  15
ATOM     15  N   UNL     1      -0.418  12.619  19.965  0.00  0.00    +0.000 N 
ATOM     16  C   UNL     1      -0.611  13.594  18.906  0.00  0.00    +0.000 C 
ATOM     17  C   UNL     1       0.137  14.816  19.397  0.00  0.00    +0.000 C 
ATOM     18  C   UNL     1      -0.091  14.764  20.895  0.00  0.00    +0.000 C 
ATOM     19  C   UNL     1      -0.146  13.282  21.160  0.00  0.00    +0.000 C 
ATOM     20  O   UNL     1      -0.019  12.765  22.257  0.00  0.00    +0.000 OA
ENDBRANCH  12  15
BRANCH  13  21
ATOM     21  O   UNL     1       0.996  10.123  21.106  0.00  0.00    +0.000 OA
ATOM     22  H   UNL     1       1.511  10.954  21.076  0.00  0.00    +0.000 HD
ENDBRANCH  13  21
TORSDOF 2
ENDMDL
MODEL 7
REMARK VINA RESULT:      -7.0      8.934     11.540
REMARK  Name = 
REMARK  4 active torsions:
REMARK  status: ('A' for Active; 'I' for Inactive)
REMARK    1  A    between atoms: C_1  and  C_2
REMARK    2  A    between atoms: C_2  and  C_3
REMARK    3  A    between atoms: C_12  and  N_13
REMARK    4  A    between atoms: C_19  and  O_20
REMARK                            x       y       z     vdW  Elec       q    Type
REMARK                         _______ _______ _______ _____ _____    ______ ____
ROOT
ATOM      1  C   UNL     1      12.221  17.042  17.792  0.00  0.00    +0.000 C 
ATOM      2  C   UNL     1      11.059  16.142  18.260  0.00  0.00    +0.000 C 
ATOM      3  C   UNL     1      11.399  15.630  19.669  0.00  0.00    +0.000 C 
ATOM      4  N   UNL     1       9.845  16.972  18.334  0.00  0.00    +0.000 N 
ATOM      5  C   UNL     1       8.603  16.339  18.344  0.00  0.00    +0.000 A 
ATOM      6  C   UNL     1       7.470  17.102  18.670  0.00  0.00    +0.000 A 
ATOM      7  C   UNL     1       6.192  16.547  18.633  0.00  0.00    +0.000 A 
ATOM      8  C   UNL     1       6.022  15.235  18.209  0.00  0.00    +0.000 A 
ATOM      9 CL   UNL     1       4.451  14.529  18.199  0.00  0.00    +0.000 Cl
ATOM     10  C   UNL     1       7.123  14.478  17.822  0.00  0.00    +0.000 A 
ATOM     11  C   UNL     1       8.424  15.010  17.913  0.00  0.00    +0.000 A 
ATOM     12  C   UNL     1       9.627  14.113  17.613  0.00  0.00    +0.000 C 
ATOM     13  C   UNL     1      10.832  15.021  17.214  0.00  0.00    +0.000 C 
ATOM     14  H   UNL     1       9.920  17.767  18.961  0.00  0.00    +0.000 HD
ENDROOT
BRANCH  12  15
ATOM     15  N   UNL     1       9.892  13.124  18.699  0.00  0.00    +0.000 N 
ATOM     16  C   UNL     1       9.172  13.109  19.960  0.00  0.00    +0.000 C 
ATOM     17  C   UNL     1       9.806  11.966  20.725  0.00  0.00    +0.000 C 
ATOM     18  C   UNL     1      10.120  10.967  19.629  0.00  0.00    +0.000 C 
ATOM     19  C   UNL     1      10.433  11.863  18.459  0.00  0.00    +0.000 C 
ATOM     20  O   UNL     1      11.022  11.512  17.450  0.00  0.00    +0.000 OA
ENDBRANCH  12  15
BRANCH  13  21
ATOM     21  O   UNL     1      12.052  14.361  16.871  0.00  0.00    +0.000 OA
ATOM     22  H   UNL     1      11.858  13.440  16.603  0.00  0.00    +0.000 HD
ENDBRANCH  13  21
TORSDOF 2
ENDMDL
MODEL 8
REMARK VINA RESULT:      -7.0      2.836      3.988
REMARK  Name = 
REMARK  4 active torsions:
REMARK  status: ('A' for Active; 'I' for Inactive)
REMARK    1  A    between atoms: C_1  and  C_2
REMARK    2  A    between atoms: C_2  and  C_3
REMARK    3  A    between atoms: C_12  and  N_13
REMARK    4  A    between atoms: C_19  and  O_20
REMARK                            x       y       z     vdW  Elec       q    Type
REMARK                         _______ _______ _______ _____ _____    ______ ____
ROOT
ATOM      1  C   UNL     1       5.548   3.355  16.232  0.00  0.00    +0.000 C 
ATOM      2  C   UNL     1       4.653   4.111  17.236  0.00  0.00    +0.000 C 
ATOM      3  C   UNL     1       5.174   3.810  18.651  0.00  0.00    +0.000 C 
ATOM      4  N   UNL     1       4.794   5.552  16.972  0.00  0.00    +0.000 N 
ATOM      5  C   UNL     1       3.815   6.420  17.459  0.00  0.00    +0.000 A 
ATOM      6  C   UNL     1       4.076   7.799  17.432  0.00  0.00    +0.000 A 
ATOM      7  C   UNL     1       3.116   8.722  17.840  0.00  0.00    +0.000 A 
ATOM      8  C   UNL     1       1.854   8.282  18.223  0.00  0.00    +0.000 A 
ATOM      9 CL   UNL     1       0.675   9.413  18.768  0.00  0.00    +0.000 Cl
ATOM     10  C   UNL     1       1.552   6.924  18.200  0.00  0.00    +0.000 A 
ATOM     11  C   UNL     1       2.535   5.979  17.846  0.00  0.00    +0.000 A 
ATOM     12  C   UNL     1       2.219   4.486  17.960  0.00  0.00    +0.000 C 
ATOM     13  C   UNL     1       3.175   3.705  17.004  0.00  0.00    +0.000 C 
ATOM     14  H   UNL     1       5.744   5.901  17.051  0.00  0.00    +0.000 HD
ENDROOT
BRANCH  12  15
ATOM     15  N   UNL     1       2.187   4.011  19.375  0.00  0.00    +0.000 N 
ATOM     16  C   UNL     1       2.435   4.876  20.514  0.00  0.00    +0.000 C 
ATOM     17  C   UNL     1       2.321   3.947  21.706  0.00  0.00    +0.000 C 
ATOM     18  C   UNL     1       1.230   2.987  21.274  0.00  0.00    +0.000 C 
ATOM     19  C   UNL     1       1.446   2.905  19.786  0.00  0.00    +0.000 C 
ATOM     20  O   UNL     1       0.997   2.031  19.063  0.00  0.00    +0.000 OA
ENDBRANCH  12  15
BRANCH  13  21
ATOM     21  O   UNL     1       3.016   2.287  16.951  0.00  0.00    +0.000 OA
ATOM     22  H   UNL     1       3.535   1.930  16.202  0.00  0.00    +0.000 HD
ENDBRANCH  13  21
TORSDOF 2
ENDMDL
MODEL 9
REMARK VINA RESULT:      -7.0      8.439     10.560
REMARK  Name = 
REMARK  4 active torsions:
REMARK  status: ('A' for Active; 'I' for Inactive)
REMARK    1  A    between atoms: C_1  and  C_2
REMARK    2  A    between atoms: C_2  and  C_3
REMARK    3  A    between atoms: C_12  and  N_13
REMARK    4  A    between atoms: C_19  and  O_20
REMARK                            x       y       z     vdW  Elec       q    Type
REMARK                         _______ _______ _______ _____ _____    ______ ____
ROOT
ATOM      1  C   UNL     1      12.333  13.403  16.650  0.00  0.00    +0.000 C 
ATOM      2  C   UNL     1      11.231  13.690  17.691  0.00  0.00    +0.000 C 
ATOM      3  C   UNL     1      11.892  13.720  19.080  0.00  0.00    +0.000 C 
ATOM      4  N   UNL     1      10.669  15.019  17.401  0.00  0.00    +0.000 N 
ATOM      5  C   UNL     1       9.420  15.345  17.929  0.00  0.00    +0.000 A 
ATOM      6  C   UNL     1       9.002  16.685  17.870  0.00  0.00    +0.000 A 
ATOM      7  C   UNL     1       7.739  17.066  18.318  0.00  0.00    +0.000 A 
ATOM      8  C   UNL     1       6.848  16.102  18.774  0.00  0.00    +0.000 A 
ATOM      9 CL   UNL     1       5.301  16.569  19.367  0.00  0.00    +0.000 Cl
ATOM     10  C   UNL     1       7.218  14.760  18.785  0.00  0.00    +0.000 A 
ATOM     11  C   UNL     1       8.513  14.372  18.391  0.00  0.00    +0.000 A 
ATOM     12  C   UNL     1       8.939  12.910  18.541  0.00  0.00    +0.000 C 
ATOM     13  C   UNL     1      10.108  12.632  17.545  0.00  0.00    +0.000 C 
ATOM     14  H   UNL     1      11.348  15.773  17.424  0.00  0.00    +0.000 HD
ENDROOT
BRANCH  12  15
ATOM     15  N   UNL     1       9.192  12.527  19.962  0.00  0.00    +0.000 N 
ATOM     16  C   UNL     1       8.993  13.431  21.081  0.00  0.00    +0.000 C 
ATOM     17  C   UNL     1       9.402  12.611  22.286  0.00  0.00    +0.000 C 
ATOM     18  C   UNL     1       8.946  11.215  21.908  0.00  0.00    +0.000 C 
ATOM     19  C   UNL     1       9.133  11.211  20.414  0.00  0.00    +0.000 C 
ATOM     20  O   UNL     1       9.176  10.209  19.719  0.00  0.00    +0.000 OA
ENDBRANCH  12  15
BRANCH  13  21
ATOM     21  O   UNL     1      10.631  11.303  17.519  0.00  0.00    +0.000 OA
ATOM     22  H   UNL     1      11.008  11.119  16.635  0.00  0.00    +0.000 HD
ENDBRANCH  13  21
TORSDOF 2
ENDMDL
