MODEL 1
REMARK VINA RESULT:      -7.7      0.000      0.000
REMARK  Name = 
REMARK  2 active torsions:
REMARK  status: ('A' for Active; 'I' for Inactive)
REMARK    1  A    between atoms: C_1  and  C_2
REMARK    2  A    between atoms: C_21  and  C_22
REMARK                            x       y       z     vdW  Elec       q    Type
REMARK                         _______ _______ _______ _____ _____    ______ ____
ROOT
ATOM      1  C   UNL     1      -1.956  14.003  20.592  0.00  0.00    +0.000 C 
ATOM      2  C   UNL     1      -1.234  12.726  20.294  0.00  0.00    +0.000 A 
ATOM      3  S   UNL     1      -0.871  12.354  18.671  0.00  0.00    +0.000 S 
ATOM      4  C   UNL     1      -0.000  10.974  19.117  0.00  0.00    +0.000 A 
ATOM      5  N   UNL     1       0.727  10.317  18.189  0.00  0.00    +0.000 NA
ATOM      6  C   UNL     1       1.336   9.257  18.629  0.00  0.00    +0.000 A 
ATOM      7  C   UNL     1       2.275   8.614  17.703  0.00  0.00    +0.000 A 
ATOM      8  C   UNL     1       2.908   7.507  18.065  0.00  0.00    +0.000 A 
ATOM      9  C   UNL     1       2.572   6.876  19.365  0.00  0.00    +0.000 A 
ATOM     10  N   UNL     1       3.133   5.626  19.598  0.00  0.00    +0.000 N 
ATOM     11  C   UNL     1       4.576   5.397  19.537  0.00  0.00    +0.000 C 
ATOM     12  C   UNL     1       4.881   4.222  18.608  0.00  0.00    +0.000 C 
ATOM     13  C   UNL     1       4.090   2.976  19.004  0.00  0.00    +0.000 C 
ATOM     14  C   UNL     1       2.601   3.288  19.175  0.00  0.00    +0.000 C 
ATOM     15  C   UNL     1       2.360   4.493  20.097  0.00  0.00    +0.000 C 
ATOM     16  N   UNL     1       1.772   7.457  20.225  0.00  0.00    +0.000 NA
ATOM     17  N   UNL     1       1.213   8.714  19.900  0.00  0.00    +0.000 N 
ATOM     18  C   UNL     1       0.483   9.397  20.910  0.00  0.00    +0.000 A 
ATOM     19  O   UNL     1       0.329   8.998  22.063  0.00  0.00    +0.000 OA
ATOM     20  C   UNL     1      -0.109  10.673  20.457  0.00  0.00    +0.000 A 
ATOM     21  C   UNL     1      -0.737  11.770  21.176  0.00  0.00    +0.000 A 
ATOM     22  C   UNL     1      -0.816  11.934  22.662  0.00  0.00    +0.000 C 
ENDROOT
TORSDOF 0
ENDMDL
MODEL 2
REMARK VINA RESULT:      -7.6      2.488      7.642
REMARK  Name = 
REMARK  2 active torsions:
REMARK  status: ('A' for Active; 'I' for Inactive)
REMARK    1  A    between atoms: C_1  and  C_2
REMARK    2  A    between atoms: C_21  and  C_22
REMARK                            x       y       z     vdW  Elec       q    Type
REMARK                         _______ _______ _______ _____ _____    ______ ____
ROOT
ATOM      1  C   UNL     1       4.807   3.923  17.786  0.00  0.00    +0.000 C 
ATOM      2  C   UNL     1       3.923   5.029  18.270  0.00  0.00    +0.000 A 
ATOM      3  S   UNL     1       3.020   4.786  19.695  0.00  0.00    +0.000 S 
ATOM      4  C   UNL     1       2.449   6.378  19.680  0.00  0.00    +0.000 A 
ATOM      5  N   UNL     1       1.776   6.855  20.747  0.00  0.00    +0.000 NA
ATOM      6  C   UNL     1       1.358   8.080  20.623  0.00  0.00    +0.000 A 
ATOM      7  C   UNL     1       0.778   8.695  21.822  0.00  0.00    +0.000 A 
ATOM      8  C   UNL     1       0.296   9.929  21.765  0.00  0.00    +0.000 A 
ATOM      9  C   UNL     1       0.256  10.628  20.457  0.00  0.00    +0.000 A 
ATOM     10  N   UNL     1      -0.426  11.838  20.435  0.00  0.00    +0.000 N 
ATOM     11  C   UNL     1      -0.086  12.940  21.335  0.00  0.00    +0.000 C 
ATOM     12  C   UNL     1      -1.338  13.423  22.067  0.00  0.00    +0.000 C 
ATOM     13  C   UNL     1      -2.460  13.769  21.089  0.00  0.00    +0.000 C 
ATOM     14  C   UNL     1      -2.700  12.637  20.088  0.00  0.00    +0.000 C 
ATOM     15  C   UNL     1      -1.403  12.177  19.405  0.00  0.00    +0.000 C 
ATOM     16  N   UNL     1       0.809  10.115  19.386  0.00  0.00    +0.000 NA
ATOM     17  N   UNL     1       1.456   8.862  19.482  0.00  0.00    +0.000 N 
ATOM     18  C   UNL     1       2.188   8.404  18.352  0.00  0.00    +0.000 A 
ATOM     19  O   UNL     1       2.335   9.031  17.304  0.00  0.00    +0.000 OA
ATOM     20  C   UNL     1       2.779   7.062  18.529  0.00  0.00    +0.000 A 
ATOM     21  C   UNL     1       3.748   6.308  17.750  0.00  0.00    +0.000 A 
ATOM     22  C   UNL     1       4.529   6.807  16.574  0.00  0.00    +0.000 C 
ENDROOT
TORSDOF 0
ENDMDL
MODEL 3
REMARK VINA RESULT:      -7.5      2.289      3.319
REMARK  Name = 
REMARK  2 active torsions:
REMARK  status: ('A' for Active; 'I' for Inactive)
REMARK    1  A    between atoms: C_1  and  C_2
REMARK    2  A    between atoms: C_21  and  C_22
REMARK                            x       y       z     vdW  Elec       q    Type
REMARK                         _______ _______ _______ _____ _____    ______ ____
ROOT
ATOM      1  C   UNL     1      -1.645  11.792  22.005  0.00  0.00    +0.000 C 
ATOM      2  C   UNL     1      -0.652  10.855  21.391  0.00  0.00    +0.000 A 
ATOM      3  S   UNL     1      -0.066   9.558  22.329  0.00  0.00    +0.000 S 
ATOM      4  C   UNL     1       0.803   8.924  21.024  0.00  0.00    +0.000 A 
ATOM      5  N   UNL     1       1.369   7.704  21.131  0.00  0.00    +0.000 NA
ATOM      6  C   UNL     1       2.036   7.322  20.082  0.00  0.00    +0.000 A 
ATOM      7  C   UNL     1       2.517   5.936  20.086  0.00  0.00    +0.000 A 
ATOM      8  C   UNL     1       3.236   5.483  19.069  0.00  0.00    +0.000 A 
ATOM      9  C   UNL     1       3.632   6.422  17.990  0.00  0.00    +0.000 A 
ATOM     10  N   UNL     1       4.534   5.928  17.056  0.00  0.00    +0.000 N 
ATOM     11  C   UNL     1       4.273   4.710  16.289  0.00  0.00    +0.000 C 
ATOM     12  C   UNL     1       5.456   3.750  16.414  0.00  0.00    +0.000 C 
ATOM     13  C   UNL     1       6.771   4.429  16.036  0.00  0.00    +0.000 C 
ATOM     14  C   UNL     1       6.946   5.760  16.770  0.00  0.00    +0.000 C 
ATOM     15  C   UNL     1       5.717   6.670  16.629  0.00  0.00    +0.000 C 
ATOM     16  N   UNL     1       3.175   7.648  17.944  0.00  0.00    +0.000 NA
ATOM     17  N   UNL     1       2.286   8.087  18.953  0.00  0.00    +0.000 N 
ATOM     18  C   UNL     1       1.678   9.362  18.793  0.00  0.00    +0.000 A 
ATOM     19  O   UNL     1       1.834  10.102  17.824  0.00  0.00    +0.000 OA
ATOM     20  C   UNL     1       0.812   9.754  19.923  0.00  0.00    +0.000 A 
ATOM     21  C   UNL     1      -0.144  10.837  20.095  0.00  0.00    +0.000 A 
ATOM     22  C   UNL     1      -0.603  11.797  19.042  0.00  0.00    +0.000 C 
ENDROOT
TORSDOF 0
ENDMDL
MODEL 4
REMARK VINA RESULT:      -7.2      1.293      1.464
REMARK  Name = 
REMARK  2 active torsions:
REMARK  status: ('A' for Active; 'I' for Inactive)
REMARK    1  A    between atoms: C_1  and  C_2
REMARK    2  A    between atoms: C_21  and  C_22
REMARK                            x       y       z     vdW  Elec       q    Type
REMARK                         _______ _______ _______ _____ _____    ______ ____
ROOT
ATOM      1  C   UNL     1      -2.105  12.599  22.297  0.00  0.00    +0.000 C 
ATOM      2  C   UNL     1      -1.287  11.594  21.549  0.00  0.00    +0.000 A 
ATOM      3  S   UNL     1      -1.062  11.811  19.874  0.00  0.00    +0.000 S 
ATOM      4  C   UNL     1      -0.007  10.493  19.781  0.00  0.00    +0.000 A 
ATOM      5  N   UNL     1       0.682  10.271  18.642  0.00  0.00    +0.000 NA
ATOM      6  C   UNL     1       1.444   9.218  18.666  0.00  0.00    +0.000 A 
ATOM      7  C   UNL     1       2.342   9.037  17.520  0.00  0.00    +0.000 A 
ATOM      8  C   UNL     1       3.124   7.968  17.454  0.00  0.00    +0.000 A 
ATOM      9  C   UNL     1       2.997   6.917  18.493  0.00  0.00    +0.000 A 
ATOM     10  N   UNL     1       3.710   5.746  18.263  0.00  0.00    +0.000 N 
ATOM     11  C   UNL     1       5.155   5.746  18.034  0.00  0.00    +0.000 C 
ATOM     12  C   UNL     1       5.481   4.981  16.752  0.00  0.00    +0.000 C 
ATOM     13  C   UNL     1       4.874   3.579  16.766  0.00  0.00    +0.000 C 
ATOM     14  C   UNL     1       3.388   3.615  17.130  0.00  0.00    +0.000 C 
ATOM     15  C   UNL     1       3.120   4.419  18.411  0.00  0.00    +0.000 C 
ATOM     16  N   UNL     1       2.237   7.080  19.547  0.00  0.00    +0.000 NA
ATOM     17  N   UNL     1       1.516   8.287  19.692  0.00  0.00    +0.000 N 
ATOM     18  C   UNL     1       0.829   8.507  20.917  0.00  0.00    +0.000 A 
ATOM     19  O   UNL     1       0.843   7.744  21.882  0.00  0.00    +0.000 OA
ATOM     20  C   UNL     1       0.061   9.768  20.951  0.00  0.00    +0.000 A 
ATOM     21  C   UNL     1      -0.600  10.483  22.031  0.00  0.00    +0.000 A 
ATOM     22  C   UNL     1      -0.537  10.153  23.490  0.00  0.00    +0.000 C 
ENDROOT
TORSDOF 0
ENDMDL
MODEL 5
REMARK VINA RESULT:      -7.2      2.555      7.384
REMARK  Name = 
REMARK  2 active torsions:
REMARK  status: ('A' for Active; 'I' for Inactive)
REMARK    1  A    between atoms: C_1  and  C_2
REMARK    2  A    between atoms: C_21  and  C_22
REMARK                            x       y       z     vdW  Elec       q    Type
REMARK                         _______ _______ _______ _____ _____    ______ ____
ROOT
ATOM      1  C   UNL     1       4.293   1.753  19.540  0.00  0.00    +0.000 C 
ATOM      2  C   UNL     1       3.862   3.186  19.480  0.00  0.00    +0.000 A 
ATOM      3  S   UNL     1       4.590   4.209  18.328  0.00  0.00    +0.000 S 
ATOM      4  C   UNL     1       3.570   5.495  18.733  0.00  0.00    +0.000 A 
ATOM      5  N   UNL     1       3.563   6.606  17.968  0.00  0.00    +0.000 NA
ATOM      6  C   UNL     1       2.763   7.545  18.381  0.00  0.00    +0.000 A 
ATOM      7  C   UNL     1       2.592   8.695  17.486  0.00  0.00    +0.000 A 
ATOM      8  C   UNL     1       1.822   9.710  17.854  0.00  0.00    +0.000 A 
ATOM      9  C   UNL     1       1.231   9.711  19.214  0.00  0.00    +0.000 A 
ATOM     10  N   UNL     1       0.591  10.883  19.598  0.00  0.00    +0.000 N 
ATOM     11  C   UNL     1      -0.498  11.468  18.815  0.00  0.00    +0.000 C 
ATOM     12  C   UNL     1      -0.202  12.939  18.525  0.00  0.00    +0.000 C 
ATOM     13  C   UNL     1       0.101  13.713  19.807  0.00  0.00    +0.000 C 
ATOM     14  C   UNL     1       1.159  13.002  20.654  0.00  0.00    +0.000 C 
ATOM     15  C   UNL     1       0.819  11.522  20.890  0.00  0.00    +0.000 C 
ATOM     16  N   UNL     1       1.333   8.675  20.009  0.00  0.00    +0.000 NA
ATOM     17  N   UNL     1       2.030   7.531  19.558  0.00  0.00    +0.000 N 
ATOM     18  C   UNL     1       1.989   6.365  20.370  0.00  0.00    +0.000 A 
ATOM     19  O   UNL     1       1.360   6.259  21.422  0.00  0.00    +0.000 OA
ATOM     20  C   UNL     1       2.792   5.243  19.843  0.00  0.00    +0.000 A 
ATOM     21  C   UNL     1       2.875   3.839  20.214  0.00  0.00    +0.000 A 
ATOM     22  C   UNL     1       2.005   3.123  21.200  0.00  0.00    +0.000 C 
ENDROOT
TORSDOF 0
ENDMDL
MODEL 6
REMARK VINA RESULT:      -7.1      1.909      2.770
REMARK  Name = 
REMARK  2 active torsions:
REMARK  status: ('A' for Active; 'I' for Inactive)
REMARK    1  A    between atoms: C_1  and  C_2
REMARK    2  A    between atoms: C_21  and  C_22
REMARK                            x       y       z     vdW  Elec       q    Type
REMARK                         _______ _______ _______ _____ _____    ______ ____
ROOT
ATOM      1  C   UNL     1      -2.274  13.107  22.251  0.00  0.00    +0.000 C 
ATOM      2  C   UNL     1      -1.356  12.032  21.757  0.00  0.00    +0.000 A 
ATOM      3  S   UNL     1      -0.809  10.856  22.863  0.00  0.00    +0.000 S 
ATOM      4  C   UNL     1      -0.023   9.986  21.644  0.00  0.00    +0.000 A 
ATOM      5  N   UNL     1       0.480   8.764  21.917  0.00  0.00    +0.000 NA
ATOM      6  C   UNL     1       1.087   8.192  20.920  0.00  0.00    +0.000 A 
ATOM      7  C   UNL     1       1.492   6.796  21.118  0.00  0.00    +0.000 A 
ATOM      8  C   UNL     1       2.149   6.155  20.161  0.00  0.00    +0.000 A 
ATOM      9  C   UNL     1       2.557   6.899  18.944  0.00  0.00    +0.000 A 
ATOM     10  N   UNL     1       3.397   6.221  18.070  0.00  0.00    +0.000 N 
ATOM     11  C   UNL     1       3.044   4.920  17.501  0.00  0.00    +0.000 C 
ATOM     12  C   UNL     1       4.176   3.921  17.737  0.00  0.00    +0.000 C 
ATOM     13  C   UNL     1       5.512   4.457  17.227  0.00  0.00    +0.000 C 
ATOM     14  C   UNL     1       5.786   5.870  17.749  0.00  0.00    +0.000 C 
ATOM     15  C   UNL     1       4.603   6.820  17.506  0.00  0.00    +0.000 C 
ATOM     16  N   UNL     1       2.166   8.131  18.728  0.00  0.00    +0.000 NA
ATOM     17  N   UNL     1       1.339   8.765  19.682  0.00  0.00    +0.000 N 
ATOM     18  C   UNL     1       0.796  10.036  19.350  0.00  0.00    +0.000 A 
ATOM     19  O   UNL     1       0.959  10.616  18.278  0.00  0.00    +0.000 OA
ATOM     20  C   UNL     1      -0.007  10.642  20.432  0.00  0.00    +0.000 A 
ATOM     21  C   UNL     1      -0.895  11.793  20.466  0.00  0.00    +0.000 A 
ATOM     22  C   UNL     1      -1.338  12.613  19.294  0.00  0.00    +0.000 C 
ENDROOT
TORSDOF 0
ENDMDL
MODEL 7
REMARK VINA RESULT:      -7.0      1.247      1.374
REMARK  Name = 
REMARK  2 active torsions:
REMARK  status: ('A' for Active; 'I' for Inactive)
REMARK    1  A    between atoms: C_1  and  C_2
REMARK    2  A    between atoms: C_21  and  C_22
REMARK                            x       y       z     vdW  Elec       q    Type
REMARK                         _______ _______ _______ _____ _____    ______ ____
ROOT
ATOM      1  C   UNL     1      -0.021  13.923  20.187  0.00  0.00    +0.000 C 
ATOM      2  C   UNL     1       0.389  12.514  19.890  0.00  0.00    +0.000 A 
ATOM      3  S   UNL     1       1.061  12.166  18.364  0.00  0.00    +0.000 S 
ATOM      4  C   UNL     1       1.381  10.564  18.801  0.00  0.00    +0.000 A 
ATOM      5  N   UNL     1       2.129   9.788  17.988  0.00  0.00    +0.000 NA
ATOM      6  C   UNL     1       2.292   8.567  18.403  0.00  0.00    +0.000 A 
ATOM      7  C   UNL     1       3.240   7.743  17.645  0.00  0.00    +0.000 A 
ATOM      8  C   UNL     1       3.434   6.476  17.984  0.00  0.00    +0.000 A 
ATOM      9  C   UNL     1       2.605   5.883  19.062  0.00  0.00    +0.000 A 
ATOM     10  N   UNL     1       2.730   4.511  19.240  0.00  0.00    +0.000 N 
ATOM     11  C   UNL     1       4.022   3.872  19.491  0.00  0.00    +0.000 C 
ATOM     12  C   UNL     1       4.241   2.727  18.503  0.00  0.00    +0.000 C 
ATOM     13  C   UNL     1       3.071   1.744  18.517  0.00  0.00    +0.000 C 
ATOM     14  C   UNL     1       1.730   2.467  18.373  0.00  0.00    +0.000 C 
ATOM     15  C   UNL     1       1.580   3.623  19.374  0.00  0.00    +0.000 C 
ATOM     16  N   UNL     1       1.788   6.612  19.781  0.00  0.00    +0.000 NA
ATOM     17  N   UNL     1       1.692   7.997  19.517  0.00  0.00    +0.000 N 
ATOM     18  C   UNL     1       0.927   8.794  20.412  0.00  0.00    +0.000 A 
ATOM     19  O   UNL     1       0.369   8.377  21.426  0.00  0.00    +0.000 OA
ATOM     20  C   UNL     1       0.840  10.214  20.019  0.00  0.00    +0.000 A 
ATOM     21  C   UNL     1       0.357  11.395  20.718  0.00  0.00    +0.000 A 
ATOM     22  C   UNL     1      -0.071  11.472  22.151  0.00  0.00    +0.000 C 
ENDROOT
TORSDOF 0
ENDMDL
MODEL 8
REMARK VINA RESULT:      -6.8      2.658      7.641
REMARK  Name = 
REMARK  2 active torsions:
REMARK  status: ('A' for Active; 'I' for Inactive)
REMARK    1  A    between atoms: C_1  and  C_2
REMARK    2  A    between atoms: C_21  and  C_22
REMARK                            x       y       z     vdW  Elec       q    Type
REMARK                         _______ _______ _______ _____ _____    ______ ____
ROOT
ATOM      1  C   UNL     1       3.841   2.252  19.148  0.00  0.00    +0.000 C 
ATOM      2  C   UNL     1       3.235   3.609  19.324  0.00  0.00    +0.000 A 
ATOM      3  S   UNL     1       2.223   3.882  20.668  0.00  0.00    +0.000 S 
ATOM      4  C   UNL     1       2.069   5.525  20.298  0.00  0.00    +0.000 A 
ATOM      5  N   UNL     1       1.478   6.355  21.183  0.00  0.00    +0.000 NA
ATOM      6  C   UNL     1       1.387   7.590  20.790  0.00  0.00    +0.000 A 
ATOM      7  C   UNL     1       0.914   8.557  21.787  0.00  0.00    +0.000 A 
ATOM      8  C   UNL     1       0.759   9.831  21.453  0.00  0.00    +0.000 A 
ATOM      9  C   UNL     1       0.966  10.236  20.041  0.00  0.00    +0.000 A 
ATOM     10  N   UNL     1       0.609  11.540  19.724  0.00  0.00    +0.000 N 
ATOM     11  C   UNL     1       1.164  12.694  20.434  0.00  0.00    +0.000 C 
ATOM     12  C   UNL     1       0.034  13.596  20.929  0.00  0.00    +0.000 C 
ATOM     13  C   UNL     1      -0.911  13.985  19.794  0.00  0.00    +0.000 C 
ATOM     14  C   UNL     1      -1.371  12.759  19.001  0.00  0.00    +0.000 C 
ATOM     15  C   UNL     1      -0.194  11.879  18.553  0.00  0.00    +0.000 C 
ATOM     16  N   UNL     1       1.432   9.399  19.147  0.00  0.00    +0.000 NA
ATOM     17  N   UNL     1       1.739   8.077  19.540  0.00  0.00    +0.000 N 
ATOM     18  C   UNL     1       2.395   7.238  18.597  0.00  0.00    +0.000 A 
ATOM     19  O   UNL     1       2.751   7.585  17.472  0.00  0.00    +0.000 OA
ATOM     20  C   UNL     1       2.621   5.862  19.081  0.00  0.00    +0.000 A 
ATOM     21  C   UNL     1       3.414   4.759  18.559  0.00  0.00    +0.000 A 
ATOM     22  C   UNL     1       4.358   4.809  17.398  0.00  0.00    +0.000 C 
ENDROOT
TORSDOF 0
ENDMDL
MODEL 9
REMARK VINA RESULT:      -6.4      2.698      7.909
REMARK  Name = 
REMARK  2 active torsions:
REMARK  status: ('A' for Active; 'I' for Inactive)
REMARK    1  A    between atoms: C_1  and  C_2
REMARK    2  A    between atoms: C_21  and  C_22
REMARK                            x       y       z     vdW  Elec       q    Type
REMARK                         _______ _______ _______ _____ _____    ______ ____
ROOT
ATOM      1  C   UNL     1       3.755   5.325  18.418  0.00  0.00    +0.000 C 
ATOM      2  C   UNL     1       2.835   6.325  19.046  0.00  0.00    +0.000 A 
ATOM      3  S   UNL     1       2.037   5.904  20.491  0.00  0.00    +0.000 S 
ATOM      4  C   UNL     1       1.370   7.450  20.647  0.00  0.00    +0.000 A 
ATOM      5  N   UNL     1       0.734   7.789  21.788  0.00  0.00    +0.000 NA
ATOM      6  C   UNL     1       0.235   8.990  21.794  0.00  0.00    +0.000 A 
ATOM      7  C   UNL     1      -0.308   9.462  23.073  0.00  0.00    +0.000 A 
ATOM      8  C   UNL     1      -0.868  10.662  23.151  0.00  0.00    +0.000 A 
ATOM      9  C   UNL     1      -1.030  11.464  21.914  0.00  0.00    +0.000 A 
ATOM     10  N   UNL     1      -1.785  12.623  22.036  0.00  0.00    +0.000 N 
ATOM     11  C   UNL     1      -1.460  13.666  23.009  0.00  0.00    +0.000 C 
ATOM     12  C   UNL     1      -2.693  14.002  23.848  0.00  0.00    +0.000 C 
ATOM     13  C   UNL     1      -3.891  14.353  22.967  0.00  0.00    +0.000 C 
ATOM     14  C   UNL     1      -4.121  13.296  21.885  0.00  0.00    +0.000 C 
ATOM     15  C   UNL     1      -2.842  12.982  21.095  0.00  0.00    +0.000 C 
ATOM     16  N   UNL     1      -0.512  11.081  20.773  0.00  0.00    +0.000 NA
ATOM     17  N   UNL     1       0.215   9.870  20.722  0.00  0.00    +0.000 N 
ATOM     18  C   UNL     1       0.904   9.558  19.518  0.00  0.00    +0.000 A 
ATOM     19  O   UNL     1       0.949  10.280  18.524  0.00  0.00    +0.000 OA
ATOM     20  C   UNL     1       1.586   8.249  19.545  0.00  0.00    +0.000 A 
ATOM     21  C   UNL     1       2.551   7.629  18.650  0.00  0.00    +0.000 A 
ATOM     22  C   UNL     1       3.228   8.276  17.481  0.00  0.00    +0.000 C 
ENDROOT
TORSDOF 0
ENDMDL
