MODEL 1
REMARK VINA RESULT:      -7.5      0.000      0.000
REMARK  Name = 
REMARK  5 active torsions:
REMARK  status: ('A' for Active; 'I' for Inactive)
REMARK    1  A    between atoms: C_1  and  N_2
REMARK    2  A    between atoms: C_4  and  C_5
REMARK    3  A    between atoms: N_7  and  C_8
REMARK    4  A    between atoms: C_11  and  O_12
REMARK    5  A    between atoms: O_12  and  C_13
REMARK                            x       y       z     vdW  Elec       q    Type
REMARK                         _______ _______ _______ _____ _____    ______ ____
ROOT
ATOM      1  C   UNL     1       7.763   8.008  17.876  0.00  0.00    +0.000 A 
ATOM      2  C   UNL     1       8.256   7.030  18.745  0.00  0.00    +0.000 A 
ATOM      3  C   UNL     1       7.575   5.825  18.930  0.00  0.00    +0.000 A 
ATOM      4  C   UNL     1       6.390   5.582  18.244  0.00  0.00    +0.000 A 
ATOM      5  C   UNL     1       5.917   6.527  17.332  0.00  0.00    +0.000 A 
ATOM      6  C   UNL     1       6.576   7.753  17.180  0.00  0.00    +0.000 A 
ENDROOT
BRANCH   1   9
ATOM      7  C   UNL     1       8.964  10.048  18.639  0.00  0.00    +0.000 C 
ATOM      8  O   UNL     1       9.033   9.792  19.837  0.00  0.00    +0.000 OA
ATOM      9  N   UNL     1       8.406   9.243  17.664  0.00  0.00    +0.000 N 
ATOM     10  H   UNL     1       8.547   9.546  16.706  0.00  0.00    +0.000 HD
BRANCH   7  14
ATOM     11  C   UNL     1      12.025  13.504  16.848  0.00  0.00    +0.000 C 
ATOM     12  N   UNL     1      10.892  12.771  17.345  0.00  0.00    +0.000 N 
ATOM     13  C   UNL     1      10.860  11.490  17.785  0.00  0.00    +0.000 A 
ATOM     14  C   UNL     1       9.536  11.280  18.117  0.00  0.00    +0.000 A 
ATOM     15  N   UNL     1       8.829  12.432  17.870  0.00  0.00    +0.000 NA
ATOM     16  N   UNL     1       9.676  13.342  17.398  0.00  0.00    +0.000 NA
ENDBRANCH   7  14
ENDBRANCH   1   9
BRANCH   4  17
ATOM     17  O   UNL     1       5.801   4.363  18.487  0.00  0.00    +0.000 OA
BRANCH  17  18
ATOM     18  C   UNL     1       4.432   4.239  18.444  0.00  0.00    +0.000 A 
ATOM     19  C   UNL     1       3.926   3.473  17.392  0.00  0.00    +0.000 A 
ATOM     20  C   UNL     1       2.548   3.305  17.244  0.00  0.00    +0.000 A 
ATOM     21  C   UNL     1       1.674   3.903  18.151  0.00  0.00    +0.000 A 
ATOM     22  C   UNL     1       2.177   4.631  19.228  0.00  0.00    +0.000 A 
ATOM     23  C   UNL     1       3.554   4.772  19.392  0.00  0.00    +0.000 A 
ENDBRANCH  17  18
ENDBRANCH   4  17
TORSDOF 4
ENDMDL
MODEL 2
REMARK VINA RESULT:      -7.5      0.154      1.040
REMARK  Name = 
REMARK  5 active torsions:
REMARK  status: ('A' for Active; 'I' for Inactive)
REMARK    1  A    between atoms: C_1  and  N_2
REMARK    2  A    between atoms: C_4  and  C_5
REMARK    3  A    between atoms: N_7  and  C_8
REMARK    4  A    between atoms: C_11  and  O_12
REMARK    5  A    between atoms: O_12  and  C_13
REMARK                            x       y       z     vdW  Elec       q    Type
REMARK                         _______ _______ _______ _____ _____    ______ ____
ROOT
ATOM      1  C   UNL     1       7.797   7.927  17.924  0.00  0.00    +0.000 A 
ATOM      2  C   UNL     1       8.265   7.006  18.866  0.00  0.00    +0.000 A 
ATOM      3  C   UNL     1       7.614   5.787  19.064  0.00  0.00    +0.000 A 
ATOM      4  C   UNL     1       6.484   5.471  18.317  0.00  0.00    +0.000 A 
ATOM      5  C   UNL     1       6.039   6.357  17.335  0.00  0.00    +0.000 A 
ATOM      6  C   UNL     1       6.666   7.598  17.168  0.00  0.00    +0.000 A 
ENDROOT
BRANCH   1   9
ATOM      7  C   UNL     1       8.945  10.006  18.659  0.00  0.00    +0.000 C 
ATOM      8  O   UNL     1       9.016   9.770  19.862  0.00  0.00    +0.000 OA
ATOM      9  N   UNL     1       8.410   9.173  17.696  0.00  0.00    +0.000 N 
ATOM     10  H   UNL     1       8.547   9.465  16.733  0.00  0.00    +0.000 HD
BRANCH   7  14
ATOM     11  C   UNL     1      11.928  13.509  16.828  0.00  0.00    +0.000 C 
ATOM     12  N   UNL     1      10.812  12.755  17.332  0.00  0.00    +0.000 N 
ATOM     13  C   UNL     1      10.809  11.481  17.791  0.00  0.00    +0.000 A 
ATOM     14  C   UNL     1       9.489  11.244  18.121  0.00  0.00    +0.000 A 
ATOM     15  N   UNL     1       8.756  12.374  17.853  0.00  0.00    +0.000 NA
ATOM     16  N   UNL     1       9.581  13.297  17.371  0.00  0.00    +0.000 NA
ENDBRANCH   7  14
ENDBRANCH   1   9
BRANCH   4  17
ATOM     17  O   UNL     1       5.921   4.243  18.580  0.00  0.00    +0.000 OA
BRANCH  17  18
ATOM     18  C   UNL     1       4.565   4.063  18.440  0.00  0.00    +0.000 A 
ATOM     19  C   UNL     1       3.769   4.691  19.400  0.00  0.00    +0.000 A 
ATOM     20  C   UNL     1       2.381   4.552  19.361  0.00  0.00    +0.000 A 
ATOM     21  C   UNL     1       1.786   3.784  18.360  0.00  0.00    +0.000 A 
ATOM     22  C   UNL     1       2.575   3.193  17.375  0.00  0.00    +0.000 A 
ATOM     23  C   UNL     1       3.959   3.359  17.396  0.00  0.00    +0.000 A 
ENDBRANCH  17  18
ENDBRANCH   4  17
TORSDOF 4
ENDMDL
MODEL 3
REMARK VINA RESULT:      -7.4      1.578      1.947
REMARK  Name = 
REMARK  5 active torsions:
REMARK  status: ('A' for Active; 'I' for Inactive)
REMARK    1  A    between atoms: C_1  and  N_2
REMARK    2  A    between atoms: C_4  and  C_5
REMARK    3  A    between atoms: N_7  and  C_8
REMARK    4  A    between atoms: C_11  and  O_12
REMARK    5  A    between atoms: O_12  and  C_13
REMARK                            x       y       z     vdW  Elec       q    Type
REMARK                         _______ _______ _______ _____ _____    ______ ____
ROOT
ATOM      1  C   UNL     1       7.862   7.145  18.285  0.00  0.00    +0.000 A 
ATOM      2  C   UNL     1       7.374   7.041  16.978  0.00  0.00    +0.000 A 
ATOM      3  C   UNL     1       6.601   5.948  16.585  0.00  0.00    +0.000 A 
ATOM      4  C   UNL     1       6.302   4.941  17.497  0.00  0.00    +0.000 A 
ATOM      5  C   UNL     1       6.736   5.060  18.818  0.00  0.00    +0.000 A 
ATOM      6  C   UNL     1       7.548   6.134  19.201  0.00  0.00    +0.000 A 
ENDROOT
BRANCH   1   9
ATOM      7  C   UNL     1       8.497   9.548  18.376  0.00  0.00    +0.000 C 
ATOM      8  O   UNL     1       7.609  10.007  17.663  0.00  0.00    +0.000 OA
ATOM      9  N   UNL     1       8.655   8.221  18.727  0.00  0.00    +0.000 N 
ATOM     10  H   UNL     1       9.365   8.030  19.427  0.00  0.00    +0.000 HD
BRANCH   7  14
ATOM     11  C   UNL     1      12.228  12.714  19.134  0.00  0.00    +0.000 C 
ATOM     12  N   UNL     1      11.123  11.804  19.278  0.00  0.00    +0.000 N 
ATOM     13  C   UNL     1      10.468  11.132  18.301  0.00  0.00    +0.000 A 
ATOM     14  C   UNL     1       9.488  10.429  18.973  0.00  0.00    +0.000 A 
ATOM     15  N   UNL     1       9.591  10.700  20.316  0.00  0.00    +0.000 NA
ATOM     16  N   UNL     1      10.603  11.545  20.490  0.00  0.00    +0.000 NA
ENDBRANCH   7  14
ENDBRANCH   1   9
BRANCH   4  17
ATOM     17  O   UNL     1       5.527   3.912  17.015  0.00  0.00    +0.000 OA
BRANCH  17  18
ATOM     18  C   UNL     1       4.213   3.799  17.405  0.00  0.00    +0.000 A 
ATOM     19  C   UNL     1       3.814   2.530  17.831  0.00  0.00    +0.000 A 
ATOM     20  C   UNL     1       2.495   2.304  18.225  0.00  0.00    +0.000 A 
ATOM     21  C   UNL     1       1.571   3.349  18.194  0.00  0.00    +0.000 A 
ATOM     22  C   UNL     1       1.976   4.626  17.811  0.00  0.00    +0.000 A 
ATOM     23  C   UNL     1       3.302   4.858  17.448  0.00  0.00    +0.000 A 
ENDBRANCH  17  18
ENDBRANCH   4  17
TORSDOF 4
ENDMDL
MODEL 4
REMARK VINA RESULT:      -7.4      5.821      7.841
REMARK  Name = 
REMARK  5 active torsions:
REMARK  status: ('A' for Active; 'I' for Inactive)
REMARK    1  A    between atoms: C_1  and  N_2
REMARK    2  A    between atoms: C_4  and  C_5
REMARK    3  A    between atoms: N_7  and  C_8
REMARK    4  A    between atoms: C_11  and  O_12
REMARK    5  A    between atoms: O_12  and  C_13
REMARK                            x       y       z     vdW  Elec       q    Type
REMARK                         _______ _______ _______ _____ _____    ______ ____
ROOT
ATOM      1  C   UNL     1       2.187   6.353  19.994  0.00  0.00    +0.000 A 
ATOM      2  C   UNL     1       2.463   6.587  18.643  0.00  0.00    +0.000 A 
ATOM      3  C   UNL     1       3.113   5.626  17.866  0.00  0.00    +0.000 A 
ATOM      4  C   UNL     1       3.494   4.414  18.432  0.00  0.00    +0.000 A 
ATOM      5  C   UNL     1       3.175   4.146  19.763  0.00  0.00    +0.000 A 
ATOM      6  C   UNL     1       2.563   5.127  20.554  0.00  0.00    +0.000 A 
ENDROOT
BRANCH   1   9
ATOM      7  C   UNL     1       1.247   8.602  20.490  0.00  0.00    +0.000 C 
ATOM      8  O   UNL     1       1.448   9.137  19.404  0.00  0.00    +0.000 OA
ATOM      9  N   UNL     1       1.546   7.294  20.822  0.00  0.00    +0.000 N 
ATOM     10  H   UNL     1       1.196   6.975  21.720  0.00  0.00    +0.000 HD
BRANCH   7  14
ATOM     11  C   UNL     1      -1.703  11.566  23.141  0.00  0.00    +0.000 C 
ATOM     12  N   UNL     1      -0.691  10.646  22.696  0.00  0.00    +0.000 N 
ATOM     13  C   UNL     1      -0.443  10.233  21.430  0.00  0.00    +0.000 A 
ATOM     14  C   UNL     1       0.603   9.342  21.564  0.00  0.00    +0.000 A 
ATOM     15  N   UNL     1       0.943   9.256  22.893  0.00  0.00    +0.000 NA
ATOM     16  N   UNL     1       0.142  10.065  23.577  0.00  0.00    +0.000 NA
ENDBRANCH   7  14
ENDBRANCH   1   9
BRANCH   4  17
ATOM     17  O   UNL     1       4.119   3.531  17.582  0.00  0.00    +0.000 OA
BRANCH  17  18
ATOM     18  C   UNL     1       5.146   3.962  16.775  0.00  0.00    +0.000 A 
ATOM     19  C   UNL     1       6.303   4.377  17.437  0.00  0.00    +0.000 A 
ATOM     20  C   UNL     1       7.395   4.854  16.711  0.00  0.00    +0.000 A 
ATOM     21  C   UNL     1       7.331   4.918  15.319  0.00  0.00    +0.000 A 
ATOM     22  C   UNL     1       6.194   4.464  14.653  0.00  0.00    +0.000 A 
ATOM     23  C   UNL     1       5.116   3.957  15.378  0.00  0.00    +0.000 A 
ENDBRANCH  17  18
ENDBRANCH   4  17
TORSDOF 4
ENDMDL
MODEL 5
REMARK VINA RESULT:      -7.4      1.649      2.113
REMARK  Name = 
REMARK  5 active torsions:
REMARK  status: ('A' for Active; 'I' for Inactive)
REMARK    1  A    between atoms: C_1  and  N_2
REMARK    2  A    between atoms: C_4  and  C_5
REMARK    3  A    between atoms: N_7  and  C_8
REMARK    4  A    between atoms: C_11  and  O_12
REMARK    5  A    between atoms: O_12  and  C_13
REMARK                            x       y       z     vdW  Elec       q    Type
REMARK                         _______ _______ _______ _____ _____    ______ ____
ROOT
ATOM      1  C   UNL     1       7.875   7.116  18.345  0.00  0.00    +0.000 A 
ATOM      2  C   UNL     1       7.399   7.048  17.032  0.00  0.00    +0.000 A 
ATOM      3  C   UNL     1       6.642   5.958  16.598  0.00  0.00    +0.000 A 
ATOM      4  C   UNL     1       6.349   4.919  17.475  0.00  0.00    +0.000 A 
ATOM      5  C   UNL     1       6.771   5.001  18.803  0.00  0.00    +0.000 A 
ATOM      6  C   UNL     1       7.568   6.073  19.226  0.00  0.00    +0.000 A 
ENDROOT
BRANCH   1   9
ATOM      7  C   UNL     1       8.546   9.508  18.441  0.00  0.00    +0.000 C 
ATOM      8  O   UNL     1       7.724   9.969  17.654  0.00  0.00    +0.000 OA
ATOM      9  N   UNL     1       8.652   8.186  18.827  0.00  0.00    +0.000 N 
ATOM     10  H   UNL     1       9.302   7.997  19.584  0.00  0.00    +0.000 HD
BRANCH   7  14
ATOM     11  C   UNL     1      12.284  12.600  19.432  0.00  0.00    +0.000 C 
ATOM     12  N   UNL     1      11.145  11.726  19.504  0.00  0.00    +0.000 N 
ATOM     13  C   UNL     1      10.562  11.036  18.494  0.00  0.00    +0.000 A 
ATOM     14  C   UNL     1       9.504  10.385  19.097  0.00  0.00    +0.000 A 
ATOM     15  N   UNL     1       9.493  10.701  20.434  0.00  0.00    +0.000 NA
ATOM     16  N   UNL     1      10.509  11.525  20.671  0.00  0.00    +0.000 NA
ENDBRANCH   7  14
ENDBRANCH   1   9
BRANCH   4  17
ATOM     17  O   UNL     1       5.590   3.897  16.955  0.00  0.00    +0.000 OA
BRANCH  17  18
ATOM     18  C   UNL     1       4.303   3.700  17.397  0.00  0.00    +0.000 A 
ATOM     19  C   UNL     1       3.481   4.829  17.388  0.00  0.00    +0.000 A 
ATOM     20  C   UNL     1       2.163   4.742  17.840  0.00  0.00    +0.000 A 
ATOM     21  C   UNL     1       1.665   3.524  18.302  0.00  0.00    +0.000 A 
ATOM     22  C   UNL     1       2.469   2.386  18.271  0.00  0.00    +0.000 A 
ATOM     23  C   UNL     1       3.776   2.467  17.790  0.00  0.00    +0.000 A 
ENDBRANCH  17  18
ENDBRANCH   4  17
TORSDOF 4
ENDMDL
MODEL 6
REMARK VINA RESULT:      -7.3      5.937      7.944
REMARK  Name = 
REMARK  5 active torsions:
REMARK  status: ('A' for Active; 'I' for Inactive)
REMARK    1  A    between atoms: C_1  and  N_2
REMARK    2  A    between atoms: C_4  and  C_5
REMARK    3  A    between atoms: N_7  and  C_8
REMARK    4  A    between atoms: C_11  and  O_12
REMARK    5  A    between atoms: O_12  and  C_13
REMARK                            x       y       z     vdW  Elec       q    Type
REMARK                         _______ _______ _______ _____ _____    ______ ____
ROOT
ATOM      1  C   UNL     1       1.715   7.896  20.032  0.00  0.00    +0.000 A 
ATOM      2  C   UNL     1       1.830   6.657  20.670  0.00  0.00    +0.000 A 
ATOM      3  C   UNL     1       2.396   5.562  20.014  0.00  0.00    +0.000 A 
ATOM      4  C   UNL     1       2.855   5.693  18.707  0.00  0.00    +0.000 A 
ATOM      5  C   UNL     1       2.795   6.937  18.079  0.00  0.00    +0.000 A 
ATOM      6  C   UNL     1       2.189   8.024  18.721  0.00  0.00    +0.000 A 
ENDROOT
BRANCH   1   9
ATOM      7  C   UNL     1      -0.030   9.051  21.375  0.00  0.00    +0.000 C 
ATOM      8  O   UNL     1      -0.733   8.083  21.648  0.00  0.00    +0.000 OA
ATOM      9  N   UNL     1       1.142   9.027  20.645  0.00  0.00    +0.000 N 
ATOM     10  H   UNL     1       1.667   9.895  20.622  0.00  0.00    +0.000 HD
BRANCH   7  14
ATOM     11  C   UNL     1      -1.318  13.818  21.741  0.00  0.00    +0.000 C 
ATOM     12  N   UNL     1      -0.937  12.456  21.998  0.00  0.00    +0.000 N 
ATOM     13  C   UNL     1      -0.663  11.485  21.095  0.00  0.00    +0.000 A 
ATOM     14  C   UNL     1      -0.382  10.375  21.866  0.00  0.00    +0.000 A 
ATOM     15  N   UNL     1      -0.494  10.718  23.192  0.00  0.00    +0.000 NA
ATOM     16  N   UNL     1      -0.833  12.001  23.260  0.00  0.00    +0.000 NA
ENDBRANCH   7  14
ENDBRANCH   1   9
BRANCH   4  17
ATOM     17  O   UNL     1       3.402   4.559  18.152  0.00  0.00    +0.000 OA
BRANCH  17  18
ATOM     18  C   UNL     1       4.709   4.564  17.725  0.00  0.00    +0.000 A 
ATOM     19  C   UNL     1       4.908   4.238  16.382  0.00  0.00    +0.000 A 
ATOM     20  C   UNL     1       6.199   4.192  15.854  0.00  0.00    +0.000 A 
ATOM     21  C   UNL     1       7.294   4.472  16.670  0.00  0.00    +0.000 A 
ATOM     22  C   UNL     1       7.097   4.841  18.000  0.00  0.00    +0.000 A 
ATOM     23  C   UNL     1       5.804   4.917  18.517  0.00  0.00    +0.000 A 
ENDBRANCH  17  18
ENDBRANCH   4  17
TORSDOF 4
ENDMDL
MODEL 7
REMARK VINA RESULT:      -7.3      5.871      7.879
REMARK  Name = 
REMARK  5 active torsions:
REMARK  status: ('A' for Active; 'I' for Inactive)
REMARK    1  A    between atoms: C_1  and  N_2
REMARK    2  A    between atoms: C_4  and  C_5
REMARK    3  A    between atoms: N_7  and  C_8
REMARK    4  A    between atoms: C_11  and  O_12
REMARK    5  A    between atoms: O_12  and  C_13
REMARK                            x       y       z     vdW  Elec       q    Type
REMARK                         _______ _______ _______ _____ _____    ______ ____
ROOT
ATOM      1  C   UNL     1       1.778   7.788  20.045  0.00  0.00    +0.000 A 
ATOM      2  C   UNL     1       1.854   6.549  20.688  0.00  0.00    +0.000 A 
ATOM      3  C   UNL     1       2.384   5.433  20.037  0.00  0.00    +0.000 A 
ATOM      4  C   UNL     1       2.846   5.543  18.730  0.00  0.00    +0.000 A 
ATOM      5  C   UNL     1       2.825   6.786  18.096  0.00  0.00    +0.000 A 
ATOM      6  C   UNL     1       2.255   7.895  18.734  0.00  0.00    +0.000 A 
ENDROOT
BRANCH   1   9
ATOM      7  C   UNL     1       0.085   8.999  21.406  0.00  0.00    +0.000 C 
ATOM      8  O   UNL     1      -0.633   8.050  21.706  0.00  0.00    +0.000 OA
ATOM      9  N   UNL     1       1.242   8.939  20.654  0.00  0.00    +0.000 N 
ATOM     10  H   UNL     1       1.786   9.795  20.609  0.00  0.00    +0.000 HD
BRANCH   7  14
ATOM     11  C   UNL     1      -0.774  13.863  21.757  0.00  0.00    +0.000 C 
ATOM     12  N   UNL     1      -0.590  12.460  22.013  0.00  0.00    +0.000 N 
ATOM     13  C   UNL     1      -0.233  11.494  21.134  0.00  0.00    +0.000 A 
ATOM     14  C   UNL     1      -0.228  10.336  21.886  0.00  0.00    +0.000 A 
ATOM     15  N   UNL     1      -0.576  10.647  23.178  0.00  0.00    +0.000 NA
ATOM     16  N   UNL     1      -0.794  11.956  23.244  0.00  0.00    +0.000 NA
ENDBRANCH   7  14
ENDBRANCH   1   9
BRANCH   4  17
ATOM     17  O   UNL     1       3.356   4.390  18.180  0.00  0.00    +0.000 OA
BRANCH  17  18
ATOM     18  C   UNL     1       4.594   4.402  17.581  0.00  0.00    +0.000 A 
ATOM     19  C   UNL     1       5.675   4.644  18.431  0.00  0.00    +0.000 A 
ATOM     20  C   UNL     1       6.972   4.700  17.919  0.00  0.00    +0.000 A 
ATOM     21  C   UNL     1       7.190   4.514  16.554  0.00  0.00    +0.000 A 
ATOM     22  C   UNL     1       6.118   4.229  15.710  0.00  0.00    +0.000 A 
ATOM     23  C   UNL     1       4.826   4.141  16.228  0.00  0.00    +0.000 A 
ENDBRANCH  17  18
ENDBRANCH   4  17
TORSDOF 4
ENDMDL
MODEL 8
REMARK VINA RESULT:      -7.3      5.864      7.825
REMARK  Name = 
REMARK  5 active torsions:
REMARK  status: ('A' for Active; 'I' for Inactive)
REMARK    1  A    between atoms: C_1  and  N_2
REMARK    2  A    between atoms: C_4  and  C_5
REMARK    3  A    between atoms: N_7  and  C_8
REMARK    4  A    between atoms: C_11  and  O_12
REMARK    5  A    between atoms: O_12  and  C_13
REMARK                            x       y       z     vdW  Elec       q    Type
REMARK                         _______ _______ _______ _____ _____    ______ ____
ROOT
ATOM      1  C   UNL     1       2.127   6.565  20.108  0.00  0.00    +0.000 A 
ATOM      2  C   UNL     1       2.297   5.232  20.495  0.00  0.00    +0.000 A 
ATOM      3  C   UNL     1       2.948   4.320  19.663  0.00  0.00    +0.000 A 
ATOM      4  C   UNL     1       3.439   4.730  18.428  0.00  0.00    +0.000 A 
ATOM      5  C   UNL     1       3.325   6.069  18.053  0.00  0.00    +0.000 A 
ATOM      6  C   UNL     1       2.634   6.974  18.869  0.00  0.00    +0.000 A 
ENDROOT
BRANCH   1   9
ATOM      7  C   UNL     1       1.094   8.791  20.512  0.00  0.00    +0.000 C 
ATOM      8  O   UNL     1       1.231   9.271  19.391  0.00  0.00    +0.000 OA
ATOM      9  N   UNL     1       1.468   7.520  20.905  0.00  0.00    +0.000 N 
ATOM     10  H   UNL     1       1.167   7.236  21.832  0.00  0.00    +0.000 HD
BRANCH   7  14
ATOM     11  C   UNL     1      -1.736  11.951  23.066  0.00  0.00    +0.000 C 
ATOM     12  N   UNL     1      -0.788  10.951  22.656  0.00  0.00    +0.000 N 
ATOM     13  C   UNL     1      -0.495  10.550  21.396  0.00  0.00    +0.000 A 
ATOM     14  C   UNL     1       0.451   9.559  21.567  0.00  0.00    +0.000 A 
ATOM     15  N   UNL     1       0.691   9.404  22.911  0.00  0.00    +0.000 NA
ATOM     16  N   UNL     1      -0.076  10.268  23.569  0.00  0.00    +0.000 NA
ENDBRANCH   7  14
ENDBRANCH   1   9
BRANCH   4  17
ATOM     17  O   UNL     1       4.072   3.759  17.687  0.00  0.00    +0.000 OA
BRANCH  17  18
ATOM     18  C   UNL     1       5.085   4.103  16.823  0.00  0.00    +0.000 A 
ATOM     19  C   UNL     1       6.322   4.367  17.415  0.00  0.00    +0.000 A 
ATOM     20  C   UNL     1       7.410   4.748  16.628  0.00  0.00    +0.000 A 
ATOM     21  C   UNL     1       7.262   4.864  15.246  0.00  0.00    +0.000 A 
ATOM     22  C   UNL     1       6.041   4.558  14.647  0.00  0.00    +0.000 A 
ATOM     23  C   UNL     1       4.963   4.147  15.431  0.00  0.00    +0.000 A 
ENDBRANCH  17  18
ENDBRANCH   4  17
TORSDOF 4
ENDMDL
MODEL 9
REMARK VINA RESULT:      -7.3      5.861      7.796
REMARK  Name = 
REMARK  5 active torsions:
REMARK  status: ('A' for Active; 'I' for Inactive)
REMARK    1  A    between atoms: C_1  and  N_2
REMARK    2  A    between atoms: C_4  and  C_5
REMARK    3  A    between atoms: N_7  and  C_8
REMARK    4  A    between atoms: C_11  and  O_12
REMARK    5  A    between atoms: O_12  and  C_13
REMARK                            x       y       z     vdW  Elec       q    Type
REMARK                         _______ _______ _______ _____ _____    ______ ____
ROOT
ATOM      1  C   UNL     1       2.106   6.564  20.121  0.00  0.00    +0.000 A 
ATOM      2  C   UNL     1       2.350   5.252  20.536  0.00  0.00    +0.000 A 
ATOM      3  C   UNL     1       3.001   4.344  19.699  0.00  0.00    +0.000 A 
ATOM      4  C   UNL     1       3.418   4.738  18.432  0.00  0.00    +0.000 A 
ATOM      5  C   UNL     1       3.230   6.060  18.027  0.00  0.00    +0.000 A 
ATOM      6  C   UNL     1       2.538   6.958  18.849  0.00  0.00    +0.000 A 
ENDROOT
BRANCH   1   9
ATOM      7  C   UNL     1       1.102   8.799  20.548  0.00  0.00    +0.000 C 
ATOM      8  O   UNL     1       1.275   9.301  19.441  0.00  0.00    +0.000 OA
ATOM      9  N   UNL     1       1.444   7.514  20.922  0.00  0.00    +0.000 N 
ATOM     10  H   UNL     1       1.113   7.216  21.835  0.00  0.00    +0.000 HD
BRANCH   7  14
ATOM     11  C   UNL     1      -1.778  11.916  23.100  0.00  0.00    +0.000 C 
ATOM     12  N   UNL     1      -0.816  10.929  22.691  0.00  0.00    +0.000 N 
ATOM     13  C   UNL     1      -0.513  10.536  21.431  0.00  0.00    +0.000 A 
ATOM     14  C   UNL     1       0.445   9.556  21.602  0.00  0.00    +0.000 A 
ATOM     15  N   UNL     1       0.682   9.400  22.947  0.00  0.00    +0.000 NA
ATOM     16  N   UNL     1      -0.098  10.252  23.605  0.00  0.00    +0.000 NA
ENDBRANCH   7  14
ENDBRANCH   1   9
BRANCH   4  17
ATOM     17  O   UNL     1       4.058   3.773  17.688  0.00  0.00    +0.000 OA
BRANCH  17  18
ATOM     18  C   UNL     1       5.141   4.109  16.911  0.00  0.00    +0.000 A 
ATOM     19  C   UNL     1       4.924   4.090  15.531  0.00  0.00    +0.000 A 
ATOM     20  C   UNL     1       5.966   4.393  14.653  0.00  0.00    +0.000 A 
ATOM     21  C   UNL     1       7.227   4.715  15.154  0.00  0.00    +0.000 A 
ATOM     22  C   UNL     1       7.435   4.776  16.531  0.00  0.00    +0.000 A 
ATOM     23  C   UNL     1       6.385   4.505  17.408  0.00  0.00    +0.000 A 
ENDBRANCH  17  18
ENDBRANCH   4  17
TORSDOF 4
ENDMDL
