MODEL 1
REMARK VINA RESULT:      -7.8      0.000      0.000
REMARK  Name = 
REMARK  10 active torsions:
REMARK  status: ('A' for Active; 'I' for Inactive)
REMARK    1  A    between atoms: C_1  and  C_2
REMARK    2  A    between atoms: C_2  and  C_3
REMARK    3  A    between atoms: C_2  and  N_13
REMARK    4  A    between atoms: C_3  and  C_4
REMARK    5  A    between atoms: C_7  and  N_8
REMARK    6  A    between atoms: N_13  and  C_14
REMARK    7  A    between atoms: C_14  and  C_15
REMARK    8  A    between atoms: C_15  and  O_16
REMARK    9  A    between atoms: C_15  and  C_17
REMARK   10  A    between atoms: C_21  and  C_22
REMARK                            x       y       z     vdW  Elec       q    Type
REMARK                         _______ _______ _______ _____ _____    ______ ____
ROOT
ATOM      1  N   UNL     1       1.829   3.393  19.172  0.00  0.00    +0.000 NA
ATOM      2  H   UNL     1       2.187   4.136  18.570  0.00  0.00    +0.000 HD
ENDROOT
BRANCH   1   4
ATOM      3  C   UNL     1       1.315   2.837  21.552  0.00  0.00    +0.000 C 
ATOM      4  C   UNL     1       1.356   3.921  20.463  0.00  0.00    +0.000 C 
BRANCH   4   5
ATOM      5  C   UNL     1       2.253   5.078  20.970  0.00  0.00    +0.000 C 
BRANCH   5   6
ATOM      6  C   UNL     1       2.056   6.404  20.269  0.00  0.00    +0.000 A 
ATOM      7  C   UNL     1       2.549   6.613  18.973  0.00  0.00    +0.000 A 
ATOM      8  C   UNL     1       2.347   7.836  18.326  0.00  0.00    +0.000 A 
ATOM      9  C   UNL     1       1.651   8.859  18.984  0.00  0.00    +0.000 A 
ATOM     10  C   UNL     1       1.158   8.665  20.279  0.00  0.00    +0.000 A 
ATOM     11  C   UNL     1       1.364   7.439  20.914  0.00  0.00    +0.000 A 
BRANCH   9  12
ATOM     12  N   UNL     1       1.431  10.145  18.311  0.00  0.00    +0.000 N 
ATOM     13  O   UNL     1       0.358  10.732  18.525  0.00  0.00    +0.000 OA
ATOM     14  O   UNL     1       2.328  10.574  17.572  0.00  0.00    +0.000 OA
ENDBRANCH   9  12
ENDBRANCH   5   6
ENDBRANCH   4   5
ENDBRANCH   1   4
BRANCH   1  15
ATOM     15  C   UNL     1       2.864   2.360  19.328  0.00  0.00    +0.000 C 
BRANCH  15  16
ATOM     16  C   UNL     1       4.282   2.925  19.589  0.00  0.00    +0.000 C 
BRANCH  16  17
ATOM     17  C   UNL     1       4.724   3.787  18.413  0.00  0.00    +0.000 A 
ATOM     18  C   UNL     1       4.310   3.455  17.115  0.00  0.00    +0.000 A 
ATOM     19  C   UNL     1       4.772   4.176  16.013  0.00  0.00    +0.000 A 
ATOM     20  C   UNL     1       5.657   5.240  16.188  0.00  0.00    +0.000 A 
ATOM     21  C   UNL     1       6.080   5.603  17.470  0.00  0.00    +0.000 A 
ATOM     22  C   UNL     1       5.600   4.877  18.575  0.00  0.00    +0.000 A 
BRANCH  21  23
ATOM     23  C   UNL     1       7.055   6.736  17.681  0.00  0.00    +0.000 C 
ATOM     24  F   UNL     1       7.980   6.858  16.688  0.00  0.00    +0.000 F 
ATOM     25  F   UNL     1       6.437   7.946  17.770  0.00  0.00    +0.000 F 
ATOM     26  F   UNL     1       7.764   6.598  18.834  0.00  0.00    +0.000 F 
ENDBRANCH  21  23
ENDBRANCH  16  17
BRANCH  16  27
ATOM     27  O   UNL     1       5.200   1.847  19.798  0.00  0.00    +0.000 OA
ATOM     28  H   UNL     1       4.703   1.088  20.143  0.00  0.00    +0.000 HD
ENDBRANCH  16  27
ENDBRANCH  15  16
ENDBRANCH   1  15
TORSDOF 9
ENDMDL
MODEL 2
REMARK VINA RESULT:      -7.6      1.452      2.102
REMARK  Name = 
REMARK  10 active torsions:
REMARK  status: ('A' for Active; 'I' for Inactive)
REMARK    1  A    between atoms: C_1  and  C_2
REMARK    2  A    between atoms: C_2  and  C_3
REMARK    3  A    between atoms: C_2  and  N_13
REMARK    4  A    between atoms: C_3  and  C_4
REMARK    5  A    between atoms: C_7  and  N_8
REMARK    6  A    between atoms: N_13  and  C_14
REMARK    7  A    between atoms: C_14  and  C_15
REMARK    8  A    between atoms: C_15  and  O_16
REMARK    9  A    between atoms: C_15  and  C_17
REMARK   10  A    between atoms: C_21  and  C_22
REMARK                            x       y       z     vdW  Elec       q    Type
REMARK                         _______ _______ _______ _____ _____    ______ ____
ROOT
ATOM      1  N   UNL     1       1.308   3.978  19.097  0.00  0.00    +0.000 NA
ATOM      2  H   UNL     1       1.920   4.569  18.532  0.00  0.00    +0.000 HD
ENDROOT
BRANCH   1   4
ATOM      3  C   UNL     1       1.575   3.249  21.472  0.00  0.00    +0.000 C 
ATOM      4  C   UNL     1       1.285   4.410  20.506  0.00  0.00    +0.000 C 
BRANCH   4   5
ATOM      5  C   UNL     1       2.321   5.530  20.776  0.00  0.00    +0.000 C 
BRANCH   5   6
ATOM      6  C   UNL     1       1.961   6.891  20.220  0.00  0.00    +0.000 A 
ATOM      7  C   UNL     1       1.230   7.811  20.985  0.00  0.00    +0.000 A 
ATOM      8  C   UNL     1       0.917   9.072  20.469  0.00  0.00    +0.000 A 
ATOM      9  C   UNL     1       1.336   9.412  19.175  0.00  0.00    +0.000 A 
ATOM     10  C   UNL     1       2.061   8.502  18.400  0.00  0.00    +0.000 A 
ATOM     11  C   UNL     1       2.369   7.246  18.926  0.00  0.00    +0.000 A 
BRANCH   9  12
ATOM     12  N   UNL     1       1.015  10.735  18.627  0.00  0.00    +0.000 N 
ATOM     13  O   UNL     1      -0.184  11.016  18.463  0.00  0.00    +0.000 OA
ATOM     14  O   UNL     1       1.954  11.498  18.363  0.00  0.00    +0.000 OA
ENDBRANCH   9  12
ENDBRANCH   5   6
ENDBRANCH   4   5
ENDBRANCH   1   4
BRANCH   1  15
ATOM     15  C   UNL     1       1.718   2.574  18.943  0.00  0.00    +0.000 C 
BRANCH  15  16
ATOM     16  C   UNL     1       2.824   2.355  17.880  0.00  0.00    +0.000 C 
BRANCH  16  17
ATOM     17  C   UNL     1       3.925   3.394  18.052  0.00  0.00    +0.000 A 
ATOM     18  C   UNL     1       4.689   3.408  19.227  0.00  0.00    +0.000 A 
ATOM     19  C   UNL     1       5.642   4.404  19.446  0.00  0.00    +0.000 A 
ATOM     20  C   UNL     1       5.848   5.403  18.495  0.00  0.00    +0.000 A 
ATOM     21  C   UNL     1       5.109   5.411  17.308  0.00  0.00    +0.000 A 
ATOM     22  C   UNL     1       4.158   4.397  17.092  0.00  0.00    +0.000 A 
BRANCH  21  23
ATOM     23  C   UNL     1       5.299   6.496  16.276  0.00  0.00    +0.000 C 
ATOM     24  F   UNL     1       5.484   6.026  15.011  0.00  0.00    +0.000 F 
ATOM     25  F   UNL     1       4.236   7.345  16.210  0.00  0.00    +0.000 F 
ATOM     26  F   UNL     1       6.380   7.278  16.543  0.00  0.00    +0.000 F 
ENDBRANCH  21  23
ENDBRANCH  16  17
BRANCH  16  27
ATOM     27  O   UNL     1       2.254   2.433  16.570  0.00  0.00    +0.000 OA
ATOM     28  H   UNL     1       2.966   2.308  15.922  0.00  0.00    +0.000 HD
ENDBRANCH  16  27
ENDBRANCH  15  16
ENDBRANCH   1  15
TORSDOF 9
ENDMDL
MODEL 3
REMARK VINA RESULT:      -7.4      3.249      4.832
REMARK  Name = 
REMARK  10 active torsions:
REMARK  status: ('A' for Active; 'I' for Inactive)
REMARK    1  A    between atoms: C_1  and  C_2
REMARK    2  A    between atoms: C_2  and  C_3
REMARK    3  A    between atoms: C_2  and  N_13
REMARK    4  A    between atoms: C_3  and  C_4
REMARK    5  A    between atoms: C_7  and  N_8
REMARK    6  A    between atoms: N_13  and  C_14
REMARK    7  A    between atoms: C_14  and  C_15
REMARK    8  A    between atoms: C_15  and  O_16
REMARK    9  A    between atoms: C_15  and  C_17
REMARK   10  A    between atoms: C_21  and  C_22
REMARK                            x       y       z     vdW  Elec       q    Type
REMARK                         _______ _______ _______ _____ _____    ______ ____
ROOT
ATOM      1  N   UNL     1       5.542   5.758  16.082  0.00  0.00    +0.000 NA
ATOM      2  H   UNL     1       6.545   5.575  16.155  0.00  0.00    +0.000 HD
ENDROOT
BRANCH   1   4
ATOM      3  C   UNL     1       6.091   7.707  17.544  0.00  0.00    +0.000 C 
ATOM      4  C   UNL     1       5.067   6.620  17.179  0.00  0.00    +0.000 C 
BRANCH   4   5
ATOM      5  C   UNL     1       3.732   7.317  16.819  0.00  0.00    +0.000 C 
BRANCH   5   6
ATOM      6  C   UNL     1       2.901   7.771  18.000  0.00  0.00    +0.000 A 
ATOM      7  C   UNL     1       2.254   9.015  17.989  0.00  0.00    +0.000 A 
ATOM      8  C   UNL     1       1.475   9.418  19.077  0.00  0.00    +0.000 A 
ATOM      9  C   UNL     1       1.346   8.571  20.187  0.00  0.00    +0.000 A 
ATOM     10  C   UNL     1       1.990   7.330  20.212  0.00  0.00    +0.000 A 
ATOM     11  C   UNL     1       2.765   6.937  19.119  0.00  0.00    +0.000 A 
BRANCH   9  12
ATOM     12  N   UNL     1       0.527   8.985  21.332  0.00  0.00    +0.000 N 
ATOM     13  O   UNL     1       0.904   9.973  21.984  0.00  0.00    +0.000 OA
ATOM     14  O   UNL     1      -0.495   8.331  21.582  0.00  0.00    +0.000 OA
ENDBRANCH   9  12
ENDBRANCH   5   6
ENDBRANCH   4   5
ENDBRANCH   1   4
BRANCH   1  15
ATOM     15  C   UNL     1       4.823   4.477  16.017  0.00  0.00    +0.000 C 
BRANCH  15  16
ATOM     16  C   UNL     1       4.959   3.614  17.296  0.00  0.00    +0.000 C 
BRANCH  16  17
ATOM     17  C   UNL     1       3.613   3.514  18.002  0.00  0.00    +0.000 A 
ATOM     18  C   UNL     1       2.433   3.747  17.283  0.00  0.00    +0.000 A 
ATOM     19  C   UNL     1       1.194   3.748  17.926  0.00  0.00    +0.000 A 
ATOM     20  C   UNL     1       1.113   3.517  19.299  0.00  0.00    +0.000 A 
ATOM     21  C   UNL     1       2.270   3.271  20.043  0.00  0.00    +0.000 A 
ATOM     22  C   UNL     1       3.513   3.261  19.384  0.00  0.00    +0.000 A 
BRANCH  21  23
ATOM     23  C   UNL     1       2.208   3.042  21.534  0.00  0.00    +0.000 C 
ATOM     24  F   UNL     1       1.048   2.465  21.954  0.00  0.00    +0.000 F 
ATOM     25  F   UNL     1       3.212   2.236  21.980  0.00  0.00    +0.000 F 
ATOM     26  F   UNL     1       2.324   4.200  22.238  0.00  0.00    +0.000 F 
ENDBRANCH  21  23
ENDBRANCH  16  17
BRANCH  16  27
ATOM     27  O   UNL     1       5.943   4.188  18.163  0.00  0.00    +0.000 OA
ATOM     28  H   UNL     1       5.602   5.035  18.490  0.00  0.00    +0.000 HD
ENDBRANCH  16  27
ENDBRANCH  15  16
ENDBRANCH   1  15
TORSDOF 9
ENDMDL
MODEL 4
REMARK VINA RESULT:      -7.4      2.940      3.981
REMARK  Name = 
REMARK  10 active torsions:
REMARK  status: ('A' for Active; 'I' for Inactive)
REMARK    1  A    between atoms: C_1  and  C_2
REMARK    2  A    between atoms: C_2  and  C_3
REMARK    3  A    between atoms: C_2  and  N_13
REMARK    4  A    between atoms: C_3  and  C_4
REMARK    5  A    between atoms: C_7  and  N_8
REMARK    6  A    between atoms: N_13  and  C_14
REMARK    7  A    between atoms: C_14  and  C_15
REMARK    8  A    between atoms: C_15  and  O_16
REMARK    9  A    between atoms: C_15  and  C_17
REMARK   10  A    between atoms: C_21  and  C_22
REMARK                            x       y       z     vdW  Elec       q    Type
REMARK                         _______ _______ _______ _____ _____    ______ ____
ROOT
ATOM      1  N   UNL     1       2.513   5.817  18.105  0.00  0.00    +0.000 NA
ATOM      2  H   UNL     1       2.579   5.460  17.150  0.00  0.00    +0.000 HD
ENDROOT
BRANCH   1   4
ATOM      3  C   UNL     1       4.189   7.429  17.193  0.00  0.00    +0.000 C 
ATOM      4  C   UNL     1       3.069   7.177  18.215  0.00  0.00    +0.000 C 
BRANCH   4   5
ATOM      5  C   UNL     1       1.978   8.258  18.010  0.00  0.00    +0.000 C 
BRANCH   5   6
ATOM      6  C   UNL     1       1.359   8.802  19.280  0.00  0.00    +0.000 A 
ATOM      7  C   UNL     1       0.557   9.951  19.254  0.00  0.00    +0.000 A 
ATOM      8  C   UNL     1      -0.024  10.436  20.430  0.00  0.00    +0.000 A 
ATOM      9  C   UNL     1       0.204   9.767  21.640  0.00  0.00    +0.000 A 
ATOM     10  C   UNL     1       1.007   8.623  21.680  0.00  0.00    +0.000 A 
ATOM     11  C   UNL     1       1.581   8.147  20.500  0.00  0.00    +0.000 A 
BRANCH   9  12
ATOM     12  N   UNL     1      -0.405  10.268  22.878  0.00  0.00    +0.000 N 
ATOM     13  O   UNL     1       0.080   9.884  23.956  0.00  0.00    +0.000 OA
ATOM     14  O   UNL     1      -1.365  11.045  22.781  0.00  0.00    +0.000 OA
ENDBRANCH   9  12
ENDBRANCH   5   6
ENDBRANCH   4   5
ENDBRANCH   1   4
BRANCH   1  15
ATOM     15  C   UNL     1       3.159   4.866  19.020  0.00  0.00    +0.000 C 
BRANCH  15  16
ATOM     16  C   UNL     1       3.686   3.584  18.327  0.00  0.00    +0.000 C 
BRANCH  16  17
ATOM     17  C   UNL     1       4.968   3.895  17.564  0.00  0.00    +0.000 A 
ATOM     18  C   UNL     1       6.103   4.327  18.262  0.00  0.00    +0.000 A 
ATOM     19  C   UNL     1       7.261   4.703  17.578  0.00  0.00    +0.000 A 
ATOM     20  C   UNL     1       7.304   4.652  16.185  0.00  0.00    +0.000 A 
ATOM     21  C   UNL     1       6.191   4.214  15.460  0.00  0.00    +0.000 A 
ATOM     22  C   UNL     1       5.032   3.829  16.159  0.00  0.00    +0.000 A 
BRANCH  21  23
ATOM     23  C   UNL     1       6.207   4.173  13.951  0.00  0.00    +0.000 C 
ATOM     24  F   UNL     1       4.993   4.414  13.381  0.00  0.00    +0.000 F 
ATOM     25  F   UNL     1       7.062   5.087  13.413  0.00  0.00    +0.000 F 
ATOM     26  F   UNL     1       6.608   2.965  13.472  0.00  0.00    +0.000 F 
ENDBRANCH  21  23
ENDBRANCH  16  17
BRANCH  16  27
ATOM     27  O   UNL     1       2.684   3.068  17.445  0.00  0.00    +0.000 OA
ATOM     28  H   UNL     1       1.831   3.094  17.905  0.00  0.00    +0.000 HD
ENDBRANCH  16  27
ENDBRANCH  15  16
ENDBRANCH   1  15
TORSDOF 9
ENDMDL
MODEL 5
REMARK VINA RESULT:      -7.3      1.511      1.926
REMARK  Name = 
REMARK  10 active torsions:
REMARK  status: ('A' for Active; 'I' for Inactive)
REMARK    1  A    between atoms: C_1  and  C_2
REMARK    2  A    between atoms: C_2  and  C_3
REMARK    3  A    between atoms: C_2  and  N_13
REMARK    4  A    between atoms: C_3  and  C_4
REMARK    5  A    between atoms: C_7  and  N_8
REMARK    6  A    between atoms: N_13  and  C_14
REMARK    7  A    between atoms: C_14  and  C_15
REMARK    8  A    between atoms: C_15  and  O_16
REMARK    9  A    between atoms: C_15  and  C_17
REMARK   10  A    between atoms: C_21  and  C_22
REMARK                            x       y       z     vdW  Elec       q    Type
REMARK                         _______ _______ _______ _____ _____    ______ ____
ROOT
ATOM      1  N   UNL     1       1.770   3.923  19.045  0.00  0.00    +0.000 NA
ATOM      2  H   UNL     1       1.488   4.353  18.163  0.00  0.00    +0.000 HD
ENDROOT
BRANCH   1   4
ATOM      3  C   UNL     1       2.297   4.288  21.460  0.00  0.00    +0.000 C 
ATOM      4  C   UNL     1       1.836   4.915  20.134  0.00  0.00    +0.000 C 
BRANCH   4   5
ATOM      5  C   UNL     1       2.800   6.077  19.791  0.00  0.00    +0.000 C 
BRANCH   5   6
ATOM      6  C   UNL     1       2.145   7.428  19.606  0.00  0.00    +0.000 A 
ATOM      7  C   UNL     1       2.209   8.098  18.376  0.00  0.00    +0.000 A 
ATOM      8  C   UNL     1       1.586   9.338  18.211  0.00  0.00    +0.000 A 
ATOM      9  C   UNL     1       0.898   9.915  19.287  0.00  0.00    +0.000 A 
ATOM     10  C   UNL     1       0.831   9.260  20.521  0.00  0.00    +0.000 A 
ATOM     11  C   UNL     1       1.456   8.021  20.674  0.00  0.00    +0.000 A 
BRANCH   9  12
ATOM     12  N   UNL     1       0.238  11.215  19.121  0.00  0.00    +0.000 N 
ATOM     13  O   UNL     1       0.890  12.129  18.590  0.00  0.00    +0.000 OA
ATOM     14  O   UNL     1      -0.932  11.328  19.515  0.00  0.00    +0.000 OA
ENDBRANCH   9  12
ENDBRANCH   5   6
ENDBRANCH   4   5
ENDBRANCH   1   4
BRANCH   1  15
ATOM     15  C   UNL     1       3.042   3.212  18.851  0.00  0.00    +0.000 C 
BRANCH  15  16
ATOM     16  C   UNL     1       3.423   2.999  17.365  0.00  0.00    +0.000 C 
BRANCH  16  17
ATOM     17  C   UNL     1       4.667   3.811  17.024  0.00  0.00    +0.000 A 
ATOM     18  C   UNL     1       5.081   3.918  15.690  0.00  0.00    +0.000 A 
ATOM     19  C   UNL     1       6.265   4.581  15.362  0.00  0.00    +0.000 A 
ATOM     20  C   UNL     1       7.055   5.148  16.362  0.00  0.00    +0.000 A 
ATOM     21  C   UNL     1       6.664   5.067  17.702  0.00  0.00    +0.000 A 
ATOM     22  C   UNL     1       5.464   4.406  18.021  0.00  0.00    +0.000 A 
BRANCH  21  23
ATOM     23  C   UNL     1       7.515   5.653  18.802  0.00  0.00    +0.000 C 
ATOM     24  F   UNL     1       7.914   6.933  18.567  0.00  0.00    +0.000 F 
ATOM     25  F   UNL     1       6.873   5.674  20.004  0.00  0.00    +0.000 F 
ATOM     26  F   UNL     1       8.655   4.940  19.006  0.00  0.00    +0.000 F 
ENDBRANCH  21  23
ENDBRANCH  16  17
BRANCH  16  27
ATOM     27  O   UNL     1       2.326   3.379  16.527  0.00  0.00    +0.000 OA
ATOM     28  H   UNL     1       1.765   2.600  16.391  0.00  0.00    +0.000 HD
ENDBRANCH  16  27
ENDBRANCH  15  16
ENDBRANCH   1  15
TORSDOF 9
ENDMDL
MODEL 6
REMARK VINA RESULT:      -7.3      1.537      2.085
REMARK  Name = 
REMARK  10 active torsions:
REMARK  status: ('A' for Active; 'I' for Inactive)
REMARK    1  A    between atoms: C_1  and  C_2
REMARK    2  A    between atoms: C_2  and  C_3
REMARK    3  A    between atoms: C_2  and  N_13
REMARK    4  A    between atoms: C_3  and  C_4
REMARK    5  A    between atoms: C_7  and  N_8
REMARK    6  A    between atoms: N_13  and  C_14
REMARK    7  A    between atoms: C_14  and  C_15
REMARK    8  A    between atoms: C_15  and  O_16
REMARK    9  A    between atoms: C_15  and  C_17
REMARK   10  A    between atoms: C_21  and  C_22
REMARK                            x       y       z     vdW  Elec       q    Type
REMARK                         _______ _______ _______ _____ _____    ______ ____
ROOT
ATOM      1  N   UNL     1       1.844   4.007  18.983  0.00  0.00    +0.000 NA
ATOM      2  H   UNL     1       1.699   4.462  18.080  0.00  0.00    +0.000 HD
ENDROOT
BRANCH   1   4
ATOM      3  C   UNL     1       2.328   4.353  21.409  0.00  0.00    +0.000 C 
ATOM      4  C   UNL     1       1.868   4.985  20.085  0.00  0.00    +0.000 C 
BRANCH   4   5
ATOM      5  C   UNL     1       2.805   6.178  19.770  0.00  0.00    +0.000 C 
BRANCH   5   6
ATOM      6  C   UNL     1       2.120   7.519  19.629  0.00  0.00    +0.000 A 
ATOM      7  C   UNL     1       1.463   8.110  20.718  0.00  0.00    +0.000 A 
ATOM      8  C   UNL     1       0.847   9.358  20.583  0.00  0.00    +0.000 A 
ATOM      9  C   UNL     1       0.886  10.016  19.346  0.00  0.00    +0.000 A 
ATOM     10  C   UNL     1       1.534   9.436  18.251  0.00  0.00    +0.000 A 
ATOM     11  C   UNL     1       2.146   8.190  18.398  0.00  0.00    +0.000 A 
BRANCH   9  12
ATOM     12  N   UNL     1       0.245  11.328  19.196  0.00  0.00    +0.000 N 
ATOM     13  O   UNL     1      -0.558  11.475  18.260  0.00  0.00    +0.000 OA
ATOM     14  O   UNL     1       0.537  12.214  20.012  0.00  0.00    +0.000 OA
ENDBRANCH   9  12
ENDBRANCH   5   6
ENDBRANCH   4   5
ENDBRANCH   1   4
BRANCH   1  15
ATOM     15  C   UNL     1       3.068   3.194  18.922  0.00  0.00    +0.000 C 
BRANCH  15  16
ATOM     16  C   UNL     1       3.577   2.931  17.483  0.00  0.00    +0.000 C 
BRANCH  16  17
ATOM     17  C   UNL     1       4.696   3.907  17.140  0.00  0.00    +0.000 A 
ATOM     18  C   UNL     1       4.901   4.286  15.806  0.00  0.00    +0.000 A 
ATOM     19  C   UNL     1       5.974   5.107  15.455  0.00  0.00    +0.000 A 
ATOM     20  C   UNL     1       6.860   5.565  16.431  0.00  0.00    +0.000 A 
ATOM     21  C   UNL     1       6.675   5.214  17.772  0.00  0.00    +0.000 A 
ATOM     22  C   UNL     1       5.586   4.393  18.117  0.00  0.00    +0.000 A 
BRANCH  21  23
ATOM     23  C   UNL     1       7.635   5.677  18.841  0.00  0.00    +0.000 C 
ATOM     24  F   UNL     1       8.185   6.899  18.595  0.00  0.00    +0.000 F 
ATOM     25  F   UNL     1       7.046   5.770  20.066  0.00  0.00    +0.000 F 
ATOM     26  F   UNL     1       8.682   4.824  18.999  0.00  0.00    +0.000 F 
ENDBRANCH  21  23
ENDBRANCH  16  17
BRANCH  16  27
ATOM     27  O   UNL     1       2.493   3.059  16.557  0.00  0.00    +0.000 OA
ATOM     28  H   UNL     1       1.938   3.802  16.840  0.00  0.00    +0.000 HD
ENDBRANCH  16  27
ENDBRANCH  15  16
ENDBRANCH   1  15
TORSDOF 9
ENDMDL
MODEL 7
REMARK VINA RESULT:      -7.2      3.176      4.819
REMARK  Name = 
REMARK  10 active torsions:
REMARK  status: ('A' for Active; 'I' for Inactive)
REMARK    1  A    between atoms: C_1  and  C_2
REMARK    2  A    between atoms: C_2  and  C_3
REMARK    3  A    between atoms: C_2  and  N_13
REMARK    4  A    between atoms: C_3  and  C_4
REMARK    5  A    between atoms: C_7  and  N_8
REMARK    6  A    between atoms: N_13  and  C_14
REMARK    7  A    between atoms: C_14  and  C_15
REMARK    8  A    between atoms: C_15  and  O_16
REMARK    9  A    between atoms: C_15  and  C_17
REMARK   10  A    between atoms: C_21  and  C_22
REMARK                            x       y       z     vdW  Elec       q    Type
REMARK                         _______ _______ _______ _____ _____    ______ ____
ROOT
ATOM      1  N   UNL     1       6.309   5.268  17.223  0.00  0.00    +0.000 NA
ATOM      2  H   UNL     1       7.323   5.220  17.341  0.00  0.00    +0.000 HD
ENDROOT
BRANCH   1   4
ATOM      3  C   UNL     1       6.723   7.728  17.347  0.00  0.00    +0.000 C 
ATOM      4  C   UNL     1       5.771   6.565  17.671  0.00  0.00    +0.000 C 
BRANCH   4   5
ATOM      5  C   UNL     1       4.400   6.870  17.019  0.00  0.00    +0.000 C 
BRANCH   5   6
ATOM      6  C   UNL     1       3.348   7.425  17.955  0.00  0.00    +0.000 A 
ATOM      7  C   UNL     1       3.068   6.796  19.177  0.00  0.00    +0.000 A 
ATOM      8  C   UNL     1       2.106   7.326  20.043  0.00  0.00    +0.000 A 
ATOM      9  C   UNL     1       1.418   8.492  19.680  0.00  0.00    +0.000 A 
ATOM     10  C   UNL     1       1.684   9.126  18.462  0.00  0.00    +0.000 A 
ATOM     11  C   UNL     1       2.647   8.589  17.606  0.00  0.00    +0.000 A 
BRANCH   9  12
ATOM     12  N   UNL     1       0.410   9.057  20.585  0.00  0.00    +0.000 N 
ATOM     13  O   UNL     1      -0.203  10.069  20.206  0.00  0.00    +0.000 OA
ATOM     14  O   UNL     1       0.223   8.492  21.672  0.00  0.00    +0.000 OA
ENDBRANCH   9  12
ENDBRANCH   5   6
ENDBRANCH   4   5
ENDBRANCH   1   4
BRANCH   1  15
ATOM     15  C   UNL     1       5.690   4.130  17.918  0.00  0.00    +0.000 C 
BRANCH  15  16
ATOM     16  C   UNL     1       4.547   3.453  17.121  0.00  0.00    +0.000 C 
BRANCH  16  17
ATOM     17  C   UNL     1       3.274   3.426  17.959  0.00  0.00    +0.000 A 
ATOM     18  C   UNL     1       2.044   3.738  17.363  0.00  0.00    +0.000 A 
ATOM     19  C   UNL     1       0.878   3.806  18.128  0.00  0.00    +0.000 A 
ATOM     20  C   UNL     1       0.921   3.565  19.501  0.00  0.00    +0.000 A 
ATOM     21  C   UNL     1       2.130   3.240  20.123  0.00  0.00    +0.000 A 
ATOM     22  C   UNL     1       3.298   3.164  19.342  0.00  0.00    +0.000 A 
BRANCH  21  23
ATOM     23  C   UNL     1       2.204   2.998  21.611  0.00  0.00    +0.000 C 
ATOM     24  F   UNL     1       2.452   4.121  22.340  0.00  0.00    +0.000 F 
ATOM     25  F   UNL     1       1.052   2.471  22.112  0.00  0.00    +0.000 F 
ATOM     26  F   UNL     1       3.187   2.117  21.941  0.00  0.00    +0.000 F 
ENDBRANCH  21  23
ENDBRANCH  16  17
BRANCH  16  27
ATOM     27  O   UNL     1       4.936   2.127  16.750  0.00  0.00    +0.000 OA
ATOM     28  H   UNL     1       4.467   1.501  17.324  0.00  0.00    +0.000 HD
ENDBRANCH  16  27
ENDBRANCH  15  16
ENDBRANCH   1  15
TORSDOF 9
ENDMDL
MODEL 8
REMARK VINA RESULT:      -7.2      1.630      2.395
REMARK  Name = 
REMARK  10 active torsions:
REMARK  status: ('A' for Active; 'I' for Inactive)
REMARK    1  A    between atoms: C_1  and  C_2
REMARK    2  A    between atoms: C_2  and  C_3
REMARK    3  A    between atoms: C_2  and  N_13
REMARK    4  A    between atoms: C_3  and  C_4
REMARK    5  A    between atoms: C_7  and  N_8
REMARK    6  A    between atoms: N_13  and  C_14
REMARK    7  A    between atoms: C_14  and  C_15
REMARK    8  A    between atoms: C_15  and  O_16
REMARK    9  A    between atoms: C_15  and  C_17
REMARK   10  A    between atoms: C_21  and  C_22
REMARK                            x       y       z     vdW  Elec       q    Type
REMARK                         _______ _______ _______ _____ _____    ______ ____
ROOT
ATOM      1  N   UNL     1       2.074   4.093  18.333  0.00  0.00    +0.000 NA
ATOM      2  H   UNL     1       2.948   4.489  17.986  0.00  0.00    +0.000 HD
ENDROOT
BRANCH   1   4
ATOM      3  C   UNL     1       1.232   4.013  20.684  0.00  0.00    +0.000 C 
ATOM      4  C   UNL     1       1.526   4.883  19.451  0.00  0.00    +0.000 C 
BRANCH   4   5
ATOM      5  C   UNL     1       2.494   6.013  19.879  0.00  0.00    +0.000 C 
BRANCH   5   6
ATOM      6  C   UNL     1       2.012   7.420  19.594  0.00  0.00    +0.000 A 
ATOM      7  C   UNL     1       1.382   8.180  20.590  0.00  0.00    +0.000 A 
ATOM      8  C   UNL     1       0.956   9.484  20.322  0.00  0.00    +0.000 A 
ATOM      9  C   UNL     1       1.158  10.029  19.046  0.00  0.00    +0.000 A 
ATOM     10  C   UNL     1       1.780   9.279  18.043  0.00  0.00    +0.000 A 
ATOM     11  C   UNL     1       2.203   7.978  18.322  0.00  0.00    +0.000 A 
BRANCH   9  12
ATOM     12  N   UNL     1       0.717  11.399  18.758  0.00  0.00    +0.000 N 
ATOM     13  O   UNL     1      -0.474  11.568  18.445  0.00  0.00    +0.000 OA
ATOM     14  O   UNL     1       1.552  12.309  18.846  0.00  0.00    +0.000 OA
ENDBRANCH   9  12
ENDBRANCH   5   6
ENDBRANCH   4   5
ENDBRANCH   1   4
BRANCH   1  15
ATOM     15  C   UNL     1       2.292   2.684  18.691  0.00  0.00    +0.000 C 
BRANCH  15  16
ATOM     16  C   UNL     1       3.785   2.294  18.828  0.00  0.00    +0.000 C 
BRANCH  16  17
ATOM     17  C   UNL     1       4.669   3.448  18.372  0.00  0.00    +0.000 A 
ATOM     18  C   UNL     1       5.308   4.251  19.327  0.00  0.00    +0.000 A 
ATOM     19  C   UNL     1       6.050   5.367  18.937  0.00  0.00    +0.000 A 
ATOM     20  C   UNL     1       6.167   5.700  17.588  0.00  0.00    +0.000 A 
ATOM     21  C   UNL     1       5.550   4.913  16.611  0.00  0.00    +0.000 A 
ATOM     22  C   UNL     1       4.812   3.784  17.013  0.00  0.00    +0.000 A 
BRANCH  21  23
ATOM     23  C   UNL     1       5.643   5.267  15.146  0.00  0.00    +0.000 C 
ATOM     24  F   UNL     1       6.920   5.377  14.686  0.00  0.00    +0.000 F 
ATOM     25  F   UNL     1       5.033   4.348  14.347  0.00  0.00    +0.000 F 
ATOM     26  F   UNL     1       5.044   6.456  14.865  0.00  0.00    +0.000 F 
ENDBRANCH  21  23
ENDBRANCH  16  17
BRANCH  16  27
ATOM     27  O   UNL     1       4.049   1.118  18.055  0.00  0.00    +0.000 OA
ATOM     28  H   UNL     1       4.530   1.383  17.256  0.00  0.00    +0.000 HD
ENDBRANCH  16  27
ENDBRANCH  15  16
ENDBRANCH   1  15
TORSDOF 9
ENDMDL
MODEL 9
REMARK VINA RESULT:      -7.1      2.296      2.932
REMARK  Name = 
REMARK  10 active torsions:
REMARK  status: ('A' for Active; 'I' for Inactive)
REMARK    1  A    between atoms: C_1  and  C_2
REMARK    2  A    between atoms: C_2  and  C_3
REMARK    3  A    between atoms: C_2  and  N_13
REMARK    4  A    between atoms: C_3  and  C_4
REMARK    5  A    between atoms: C_7  and  N_8
REMARK    6  A    between atoms: N_13  and  C_14
REMARK    7  A    between atoms: C_14  and  C_15
REMARK    8  A    between atoms: C_15  and  O_16
REMARK    9  A    between atoms: C_15  and  C_17
REMARK   10  A    between atoms: C_21  and  C_22
REMARK                            x       y       z     vdW  Elec       q    Type
REMARK                         _______ _______ _______ _____ _____    ______ ____
ROOT
ATOM      1  N   UNL     1       1.710   3.836  18.867  0.00  0.00    +0.000 NA
ATOM      2  H   UNL     1       0.777   3.814  18.451  0.00  0.00    +0.000 HD
ENDROOT
BRANCH   1   4
ATOM      3  C   UNL     1       2.258   4.292  21.261  0.00  0.00    +0.000 C 
ATOM      4  C   UNL     1       1.816   4.873  19.908  0.00  0.00    +0.000 C 
BRANCH   4   5
ATOM      5  C   UNL     1       2.820   5.983  19.510  0.00  0.00    +0.000 C 
BRANCH   5   6
ATOM      6  C   UNL     1       2.227   7.365  19.347  0.00  0.00    +0.000 A 
ATOM      7  C   UNL     1       2.334   8.056  18.131  0.00  0.00    +0.000 A 
ATOM      8  C   UNL     1       1.768   9.326  17.986  0.00  0.00    +0.000 A 
ATOM      9  C   UNL     1       1.093   9.910  19.066  0.00  0.00    +0.000 A 
ATOM     10  C   UNL     1       0.983   9.233  20.285  0.00  0.00    +0.000 A 
ATOM     11  C   UNL     1       1.551   7.965  20.419  0.00  0.00    +0.000 A 
BRANCH   9  12
ATOM     12  N   UNL     1       0.492  11.241  18.920  0.00  0.00    +0.000 N 
ATOM     13  O   UNL     1       1.237  12.176  18.583  0.00  0.00    +0.000 OA
ATOM     14  O   UNL     1      -0.723  11.357  19.137  0.00  0.00    +0.000 OA
ENDBRANCH   9  12
ENDBRANCH   5   6
ENDBRANCH   4   5
ENDBRANCH   1   4
BRANCH   1  15
ATOM     15  C   UNL     1       2.709   4.001  17.801  0.00  0.00    +0.000 C 
BRANCH  15  16
ATOM     16  C   UNL     1       4.034   3.241  18.057  0.00  0.00    +0.000 C 
BRANCH  16  17
ATOM     17  C   UNL     1       5.137   3.804  17.169  0.00  0.00    +0.000 A 
ATOM     18  C   UNL     1       6.112   4.645  17.722  0.00  0.00    +0.000 A 
ATOM     19  C   UNL     1       7.079   5.244  16.914  0.00  0.00    +0.000 A 
ATOM     20  C   UNL     1       7.089   5.013  15.538  0.00  0.00    +0.000 A 
ATOM     21  C   UNL     1       6.137   4.170  14.957  0.00  0.00    +0.000 A 
ATOM     22  C   UNL     1       5.172   3.563  15.782  0.00  0.00    +0.000 A 
BRANCH  21  23
ATOM     23  C   UNL     1       6.114   3.924  13.468  0.00  0.00    +0.000 C 
ATOM     24  F   UNL     1       6.470   2.658  13.113  0.00  0.00    +0.000 F 
ATOM     25  F   UNL     1       4.884   4.136  12.923  0.00  0.00    +0.000 F 
ATOM     26  F   UNL     1       6.962   4.750  12.797  0.00  0.00    +0.000 F 
ENDBRANCH  21  23
ENDBRANCH  16  17
BRANCH  16  27
ATOM     27  O   UNL     1       3.845   1.845  17.804  0.00  0.00    +0.000 OA
ATOM     28  H   UNL     1       4.696   1.396  17.928  0.00  0.00    +0.000 HD
ENDBRANCH  16  27
ENDBRANCH  15  16
ENDBRANCH   1  15
TORSDOF 9
ENDMDL
