MODEL 1
REMARK VINA RESULT:      -9.0      0.000      0.000
REMARK  Name = 
REMARK  4 active torsions:
REMARK  status: ('A' for Active; 'I' for Inactive)
REMARK    1  A    between atoms: N_1  and  C_2
REMARK    2  A    between atoms: C_5  and  C_6
REMARK    3  A    between atoms: C_8  and  C_9
REMARK    4  A    between atoms: N_14  and  C_15
REMARK                            x       y       z     vdW  Elec       q    Type
REMARK                         _______ _______ _______ _____ _____    ______ ____
ROOT
ATOM      1  C   UNL     1       2.475   6.579  19.309  0.00  0.00    +0.000 A 
ATOM      2  C   UNL     1       1.992   5.362  19.841  0.00  0.00    +0.000 A 
ATOM      3  C   UNL     1       2.814   4.365  19.362  0.00  0.00    +0.000 A 
ATOM      4  N   UNL     1       3.748   5.021  18.588  0.00  0.00    +0.000 N 
ATOM      5  N   UNL     1       3.531   6.352  18.515  0.00  0.00    +0.000 NA
ENDROOT
BRANCH   1   9
ATOM      6  C   UNL     1       0.715  10.371  19.877  0.00  0.00    +0.000 A 
ATOM      7  N   UNL     1       1.236  10.071  18.670  0.00  0.00    +0.000 NA
ATOM      8  C   UNL     1       1.829   8.852  18.530  0.00  0.00    +0.000 A 
ATOM      9  C   UNL     1       1.918   7.904  19.540  0.00  0.00    +0.000 A 
ATOM     10  C   UNL     1       1.399   8.253  20.791  0.00  0.00    +0.000 A 
ATOM     11  C   UNL     1       0.787   9.492  20.961  0.00  0.00    +0.000 A 
ATOM     12 CL   UNL     1       0.144   9.896  22.510  0.00  0.00    +0.000 Cl
BRANCH   6  13
ATOM     13  N   UNL     1       0.026  11.581  19.949  0.00  0.00    +0.000 N 
ATOM     14  H   UNL     1      -0.938  11.413  19.678  0.00  0.00    +0.000 HD
ATOM     15  H   UNL     1       0.479  12.314  19.415  0.00  0.00    +0.000 HD
ENDBRANCH   6  13
ENDBRANCH   1   9
BRANCH   4  16
ATOM     16  C   UNL     1       4.901   4.466  17.904  0.00  0.00    +0.000 C 
ATOM     17  C   UNL     1       5.003   4.848  16.425  0.00  0.00    +0.000 C 
ATOM     18  C   UNL     1       6.450   4.507  16.101  0.00  0.00    +0.000 C 
ATOM     19  C   UNL     1       7.200   4.957  17.339  0.00  0.00    +0.000 C 
ATOM     20  F   UNL     1       7.640   6.226  17.178  0.00  0.00    +0.000 F 
ATOM     21  F   UNL     1       8.284   4.181  17.547  0.00  0.00    +0.000 F 
ATOM     22  C   UNL     1       6.243   4.886  18.517  0.00  0.00    +0.000 C 
ENDBRANCH   4  16
BRANCH   3  23
ATOM     23  C   UNL     1       2.745   2.878  19.587  0.00  0.00    +0.000 C 
ATOM     24  C   UNL     1       1.379   2.455  20.098  0.00  0.00    +0.000 C 
ATOM     25  C   UNL     1       1.491   2.643  21.599  0.00  0.00    +0.000 C 
ATOM     26  O   UNL     1       2.873   2.487  21.945  0.00  0.00    +0.000 OA
ATOM     27  C   UNL     1       3.641   2.404  20.732  0.00  0.00    +0.000 C 
ENDBRANCH   3  23
TORSDOF 4
ENDMDL
MODEL 2
REMARK VINA RESULT:      -8.8      0.969      1.088
REMARK  Name = 
REMARK  4 active torsions:
REMARK  status: ('A' for Active; 'I' for Inactive)
REMARK    1  A    between atoms: N_1  and  C_2
REMARK    2  A    between atoms: C_5  and  C_6
REMARK    3  A    between atoms: C_8  and  C_9
REMARK    4  A    between atoms: N_14  and  C_15
REMARK                            x       y       z     vdW  Elec       q    Type
REMARK                         _______ _______ _______ _____ _____    ______ ____
ROOT
ATOM      1  C   UNL     1       2.334   6.953  19.759  0.00  0.00    +0.000 A 
ATOM      2  C   UNL     1       2.132   5.681  20.342  0.00  0.00    +0.000 A 
ATOM      3  C   UNL     1       3.026   4.822  19.741  0.00  0.00    +0.000 A 
ATOM      4  N   UNL     1       3.725   5.608  18.849  0.00  0.00    +0.000 N 
ATOM      5  N   UNL     1       3.289   6.887  18.822  0.00  0.00    +0.000 NA
ENDROOT
BRANCH   1   9
ATOM      6  C   UNL     1       0.097  10.433  20.588  0.00  0.00    +0.000 A 
ATOM      7  N   UNL     1       0.617  10.273  19.354  0.00  0.00    +0.000 NA
ATOM      8  C   UNL     1       1.365   9.156  19.129  0.00  0.00    +0.000 A 
ATOM      9  C   UNL     1       1.611   8.174  20.080  0.00  0.00    +0.000 A 
ATOM     10  C   UNL     1       1.088   8.380  21.360  0.00  0.00    +0.000 A 
ATOM     11  C   UNL     1       0.320   9.513  21.617  0.00  0.00    +0.000 A 
ATOM     12 CL   UNL     1      -0.324   9.740  23.202  0.00  0.00    +0.000 Cl
BRANCH   6  13
ATOM     13  N   UNL     1      -0.745  11.532  20.747  0.00  0.00    +0.000 N 
ATOM     14  H   UNL     1      -1.614  11.339  20.257  0.00  0.00    +0.000 HD
ATOM     15  H   UNL     1      -0.303  12.399  20.467  0.00  0.00    +0.000 HD
ENDBRANCH   6  13
ENDBRANCH   1   9
BRANCH   4  16
ATOM     16  C   UNL     1       4.842   5.236  18.003  0.00  0.00    +0.000 C 
ATOM     17  C   UNL     1       5.238   6.298  16.974  0.00  0.00    +0.000 C 
ATOM     18  C   UNL     1       6.627   5.841  16.553  0.00  0.00    +0.000 C 
ATOM     19  C   UNL     1       7.252   5.380  17.856  0.00  0.00    +0.000 C 
ATOM     20  F   UNL     1       7.942   6.396  18.422  0.00  0.00    +0.000 F 
ATOM     21  F   UNL     1       8.126   4.376  17.635  0.00  0.00    +0.000 F 
ATOM     22  C   UNL     1       6.131   4.936  18.780  0.00  0.00    +0.000 C 
ENDBRANCH   4  16
BRANCH   3  23
ATOM     23  C   UNL     1       3.228   3.346  19.959  0.00  0.00    +0.000 C 
ATOM     24  C   UNL     1       2.547   2.525  18.879  0.00  0.00    +0.000 C 
ATOM     25  C   UNL     1       1.128   2.373  19.393  0.00  0.00    +0.000 C 
ATOM     26  O   UNL     1       1.185   2.447  20.824  0.00  0.00    +0.000 OA
ATOM     27  C   UNL     1       2.518   2.823  21.209  0.00  0.00    +0.000 C 
ENDBRANCH   3  23
TORSDOF 4
ENDMDL
MODEL 3
REMARK VINA RESULT:      -8.8      1.050      1.199
REMARK  Name = 
REMARK  4 active torsions:
REMARK  status: ('A' for Active; 'I' for Inactive)
REMARK    1  A    between atoms: N_1  and  C_2
REMARK    2  A    between atoms: C_5  and  C_6
REMARK    3  A    between atoms: C_8  and  C_9
REMARK    4  A    between atoms: N_14  and  C_15
REMARK                            x       y       z     vdW  Elec       q    Type
REMARK                         _______ _______ _______ _____ _____    ______ ____
ROOT
ATOM      1  C   UNL     1       2.224   6.798  19.742  0.00  0.00    +0.000 A 
ATOM      2  C   UNL     1       1.840   5.517  20.201  0.00  0.00    +0.000 A 
ATOM      3  C   UNL     1       2.649   4.605  19.557  0.00  0.00    +0.000 A 
ATOM      4  N   UNL     1       3.480   5.370  18.766  0.00  0.00    +0.000 N 
ATOM      5  N   UNL     1       3.207   6.691  18.838  0.00  0.00    +0.000 NA
ENDROOT
BRANCH   1   9
ATOM      6  C   UNL     1       0.392  10.445  20.808  0.00  0.00    +0.000 A 
ATOM      7  N   UNL     1       0.893  10.309  19.564  0.00  0.00    +0.000 NA
ATOM      8  C   UNL     1       1.510   9.132  19.262  0.00  0.00    +0.000 A 
ATOM      9  C   UNL     1       1.642   8.069  20.146  0.00  0.00    +0.000 A 
ATOM     10  C   UNL     1       1.145   8.249  21.440  0.00  0.00    +0.000 A 
ATOM     11  C   UNL     1       0.509   9.441  21.774  0.00  0.00    +0.000 A 
ATOM     12 CL   UNL     1      -0.108   9.636  23.374  0.00  0.00    +0.000 Cl
BRANCH   6  13
ATOM     13  N   UNL     1      -0.322  11.619  21.043  0.00  0.00    +0.000 N 
ATOM     14  H   UNL     1      -0.684  11.953  20.154  0.00  0.00    +0.000 HD
ATOM     15  H   UNL     1       0.225  12.309  21.545  0.00  0.00    +0.000 HD
ENDBRANCH   6  13
ENDBRANCH   1   9
BRANCH   4  16
ATOM     16  C   UNL     1       4.581   4.932  17.930  0.00  0.00    +0.000 C 
ATOM     17  C   UNL     1       4.171   4.029  16.763  0.00  0.00    +0.000 C 
ATOM     18  C   UNL     1       5.397   4.084  15.864  0.00  0.00    +0.000 C 
ATOM     19  C   UNL     1       5.825   5.537  15.946  0.00  0.00    +0.000 C 
ATOM     20  F   UNL     1       5.263   6.242  14.938  0.00  0.00    +0.000 F 
ATOM     21  F   UNL     1       7.163   5.646  15.813  0.00  0.00    +0.000 F 
ATOM     22  C   UNL     1       5.362   6.086  17.284  0.00  0.00    +0.000 C 
ENDBRANCH   4  16
BRANCH   3  23
ATOM     23  C   UNL     1       2.657   3.102  19.649  0.00  0.00    +0.000 C 
ATOM     24  C   UNL     1       1.323   2.567  20.134  0.00  0.00    +0.000 C 
ATOM     25  C   UNL     1       1.448   2.625  21.645  0.00  0.00    +0.000 C 
ATOM     26  O   UNL     1       2.841   2.509  21.961  0.00  0.00    +0.000 OA
ATOM     27  C   UNL     1       3.593   2.574  20.737  0.00  0.00    +0.000 C 
ENDBRANCH   3  23
TORSDOF 4
ENDMDL
MODEL 4
REMARK VINA RESULT:      -8.6      1.392      1.582
REMARK  Name = 
REMARK  4 active torsions:
REMARK  status: ('A' for Active; 'I' for Inactive)
REMARK    1  A    between atoms: N_1  and  C_2
REMARK    2  A    between atoms: C_5  and  C_6
REMARK    3  A    between atoms: C_8  and  C_9
REMARK    4  A    between atoms: N_14  and  C_15
REMARK                            x       y       z     vdW  Elec       q    Type
REMARK                         _______ _______ _______ _____ _____    ______ ____
ROOT
ATOM      1  C   UNL     1       2.187   6.987  19.892  0.00  0.00    +0.000 A 
ATOM      2  C   UNL     1       1.777   5.684  20.257  0.00  0.00    +0.000 A 
ATOM      3  C   UNL     1       2.635   4.807  19.630  0.00  0.00    +0.000 A 
ATOM      4  N   UNL     1       3.517   5.611  18.941  0.00  0.00    +0.000 N 
ATOM      5  N   UNL     1       3.234   6.927  19.058  0.00  0.00    +0.000 NA
ENDROOT
BRANCH   1   9
ATOM      6  C   UNL     1       0.564  10.659  21.188  0.00  0.00    +0.000 A 
ATOM      7  N   UNL     1       0.871   9.723  22.109  0.00  0.00    +0.000 NA
ATOM      8  C   UNL     1       1.359   8.535  21.655  0.00  0.00    +0.000 A 
ATOM      9  C   UNL     1       1.571   8.236  20.316  0.00  0.00    +0.000 A 
ATOM     10  C   UNL     1       1.214   9.211  19.380  0.00  0.00    +0.000 A 
ATOM     11  C   UNL     1       0.713  10.434  19.817  0.00  0.00    +0.000 A 
ATOM     12 CL   UNL     1       0.290  11.627  18.644  0.00  0.00    +0.000 Cl
BRANCH   6  13
ATOM     13  N   UNL     1       0.168  11.895  21.697  0.00  0.00    +0.000 N 
ATOM     14  H   UNL     1       1.003  12.417  21.948  0.00  0.00    +0.000 HD
ATOM     15  H   UNL     1      -0.499  11.803  22.455  0.00  0.00    +0.000 HD
ENDBRANCH   6  13
ENDBRANCH   1   9
BRANCH   4  16
ATOM     16  C   UNL     1       4.679   5.218  18.167  0.00  0.00    +0.000 C 
ATOM     17  C   UNL     1       5.070   6.205  17.064  0.00  0.00    +0.000 C 
ATOM     18  C   UNL     1       6.490   5.774  16.730  0.00  0.00    +0.000 C 
ATOM     19  C   UNL     1       7.085   5.452  18.087  0.00  0.00    +0.000 C 
ATOM     20  F   UNL     1       7.713   6.541  18.587  0.00  0.00    +0.000 F 
ATOM     21  F   UNL     1       8.006   4.471  17.982  0.00  0.00    +0.000 F 
ATOM     22  C   UNL     1       5.950   5.040  19.009  0.00  0.00    +0.000 C 
ENDBRANCH   4  16
BRANCH   3  23
ATOM     23  C   UNL     1       2.644   3.301  19.647  0.00  0.00    +0.000 C 
ATOM     24  C   UNL     1       1.296   2.741  20.062  0.00  0.00    +0.000 C 
ATOM     25  C   UNL     1       1.372   2.725  21.577  0.00  0.00    +0.000 C 
ATOM     26  O   UNL     1       2.755   2.594  21.931  0.00  0.00    +0.000 OA
ATOM     27  C   UNL     1       3.546   2.720  20.737  0.00  0.00    +0.000 C 
ENDBRANCH   3  23
TORSDOF 4
ENDMDL
MODEL 5
REMARK VINA RESULT:      -8.4      1.567      1.947
REMARK  Name = 
REMARK  4 active torsions:
REMARK  status: ('A' for Active; 'I' for Inactive)
REMARK    1  A    between atoms: N_1  and  C_2
REMARK    2  A    between atoms: C_5  and  C_6
REMARK    3  A    between atoms: C_8  and  C_9
REMARK    4  A    between atoms: N_14  and  C_15
REMARK                            x       y       z     vdW  Elec       q    Type
REMARK                         _______ _______ _______ _____ _____    ______ ____
ROOT
ATOM      1  C   UNL     1       2.673   7.116  18.617  0.00  0.00    +0.000 A 
ATOM      2  C   UNL     1       2.441   5.738  18.829  0.00  0.00    +0.000 A 
ATOM      3  C   UNL     1       3.444   5.059  18.171  0.00  0.00    +0.000 A 
ATOM      4  N   UNL     1       4.229   6.047  17.614  0.00  0.00    +0.000 N 
ATOM      5  N   UNL     1       3.752   7.291  17.842  0.00  0.00    +0.000 NA
ENDROOT
BRANCH   1   9
ATOM      6  C   UNL     1       0.188  10.238  19.987  0.00  0.00    +0.000 A 
ATOM      7  N   UNL     1       0.614  10.260  18.707  0.00  0.00    +0.000 NA
ATOM      8  C   UNL     1       1.444   9.257  18.307  0.00  0.00    +0.000 A 
ATOM      9  C   UNL     1       1.864   8.215  19.123  0.00  0.00    +0.000 A 
ATOM     10  C   UNL     1       1.435   8.233  20.453  0.00  0.00    +0.000 A 
ATOM     11  C   UNL     1       0.585   9.247  20.889  0.00  0.00    +0.000 A 
ATOM     12 CL   UNL     1       0.059   9.243  22.532  0.00  0.00    +0.000 Cl
BRANCH   6  13
ATOM     13  N   UNL     1      -0.741  11.220  20.327  0.00  0.00    +0.000 N 
ATOM     14  H   UNL     1      -1.141  10.979  21.229  0.00  0.00    +0.000 HD
ATOM     15  H   UNL     1      -1.432  11.365  19.600  0.00  0.00    +0.000 HD
ENDBRANCH   6  13
ENDBRANCH   1   9
BRANCH   4  16
ATOM     16  C   UNL     1       5.468   5.903  16.874  0.00  0.00    +0.000 C 
ATOM     17  C   UNL     1       6.477   4.943  17.510  0.00  0.00    +0.000 C 
ATOM     18  C   UNL     1       7.436   4.672  16.360  0.00  0.00    +0.000 C 
ATOM     19  C   UNL     1       6.518   4.560  15.159  0.00  0.00    +0.000 C 
ATOM     20  F   UNL     1       6.177   3.267  14.956  0.00  0.00    +0.000 F 
ATOM     21  F   UNL     1       7.142   4.990  14.042  0.00  0.00    +0.000 F 
ATOM     22  C   UNL     1       5.275   5.386  15.442  0.00  0.00    +0.000 C 
ENDBRANCH   4  16
BRANCH   3  23
ATOM     23  C   UNL     1       3.670   3.576  18.042  0.00  0.00    +0.000 C 
ATOM     24  C   UNL     1       2.504   2.893  17.351  0.00  0.00    +0.000 C 
ATOM     25  C   UNL     1       1.537   2.612  18.486  0.00  0.00    +0.000 C 
ATOM     26  O   UNL     1       2.314   2.482  19.683  0.00  0.00    +0.000 OA
ATOM     27  C   UNL     1       3.672   2.852  19.389  0.00  0.00    +0.000 C 
ENDBRANCH   3  23
TORSDOF 4
ENDMDL
MODEL 6
REMARK VINA RESULT:      -8.4      2.983      4.549
REMARK  Name = 
REMARK  4 active torsions:
REMARK  status: ('A' for Active; 'I' for Inactive)
REMARK    1  A    between atoms: N_1  and  C_2
REMARK    2  A    between atoms: C_5  and  C_6
REMARK    3  A    between atoms: C_8  and  C_9
REMARK    4  A    between atoms: N_14  and  C_15
REMARK                            x       y       z     vdW  Elec       q    Type
REMARK                         _______ _______ _______ _____ _____    ______ ____
ROOT
ATOM      1  C   UNL     1       2.179   7.893  19.034  0.00  0.00    +0.000 A 
ATOM      2  C   UNL     1       3.075   7.694  17.960  0.00  0.00    +0.000 A 
ATOM      3  C   UNL     1       3.481   6.378  18.018  0.00  0.00    +0.000 A 
ATOM      4  N   UNL     1       2.808   5.851  19.100  0.00  0.00    +0.000 N 
ATOM      5  N   UNL     1       2.050   6.765  19.745  0.00  0.00    +0.000 NA
ENDROOT
BRANCH   1   9
ATOM      6  C   UNL     1       0.064  11.439  19.900  0.00  0.00    +0.000 A 
ATOM      7  N   UNL     1       0.625  11.298  18.682  0.00  0.00    +0.000 NA
ATOM      8  C   UNL     1       1.332  10.157  18.447  0.00  0.00    +0.000 A 
ATOM      9  C   UNL     1       1.497   9.134  19.371  0.00  0.00    +0.000 A 
ATOM     10  C   UNL     1       0.933   9.320  20.637  0.00  0.00    +0.000 A 
ATOM     11  C   UNL     1       0.206  10.476  20.903  0.00  0.00    +0.000 A 
ATOM     12 CL   UNL     1      -0.490  10.679  22.470  0.00  0.00    +0.000 Cl
BRANCH   6  13
ATOM     13  N   UNL     1      -0.736  12.569  20.065  0.00  0.00    +0.000 N 
ATOM     14  H   UNL     1      -1.692  12.261  20.220  0.00  0.00    +0.000 HD
ATOM     15  H   UNL     1      -0.638  13.225  19.299  0.00  0.00    +0.000 HD
ENDBRANCH   6  13
ENDBRANCH   1   9
BRANCH   4  16
ATOM     16  C   UNL     1       2.801   4.481  19.577  0.00  0.00    +0.000 C 
ATOM     17  C   UNL     1       2.135   4.289  20.942  0.00  0.00    +0.000 C 
ATOM     18  C   UNL     1       1.900   2.786  20.979  0.00  0.00    +0.000 C 
ATOM     19  C   UNL     1       1.465   2.465  19.563  0.00  0.00    +0.000 C 
ATOM     20  F   UNL     1       0.116   2.504  19.474  0.00  0.00    +0.000 F 
ATOM     21  F   UNL     1       1.854   1.221  19.217  0.00  0.00    +0.000 F 
ATOM     22  C   UNL     1       2.075   3.506  18.640  0.00  0.00    +0.000 C 
ENDBRANCH   4  16
BRANCH   3  23
ATOM     23  C   UNL     1       4.450   5.636  17.137  0.00  0.00    +0.000 C 
ATOM     24  C   UNL     1       5.698   5.231  17.900  0.00  0.00    +0.000 C 
ATOM     25  C   UNL     1       6.590   6.453  17.792  0.00  0.00    +0.000 C 
ATOM     26  O   UNL     1       6.233   7.134  16.583  0.00  0.00    +0.000 OA
ATOM     27  C   UNL     1       5.055   6.514  16.040  0.00  0.00    +0.000 C 
ENDBRANCH   3  23
TORSDOF 4
ENDMDL
MODEL 7
REMARK VINA RESULT:      -8.4      1.508      1.791
REMARK  Name = 
REMARK  4 active torsions:
REMARK  status: ('A' for Active; 'I' for Inactive)
REMARK    1  A    between atoms: N_1  and  C_2
REMARK    2  A    between atoms: C_5  and  C_6
REMARK    3  A    between atoms: C_8  and  C_9
REMARK    4  A    between atoms: N_14  and  C_15
REMARK                            x       y       z     vdW  Elec       q    Type
REMARK                         _______ _______ _______ _____ _____    ______ ____
ROOT
ATOM      1  C   UNL     1       2.169   6.848  19.777  0.00  0.00    +0.000 A 
ATOM      2  C   UNL     1       1.790   5.565  20.236  0.00  0.00    +0.000 A 
ATOM      3  C   UNL     1       2.600   4.656  19.589  0.00  0.00    +0.000 A 
ATOM      4  N   UNL     1       3.426   5.424  18.796  0.00  0.00    +0.000 N 
ATOM      5  N   UNL     1       3.150   6.745  18.870  0.00  0.00    +0.000 NA
ENDROOT
BRANCH   1   9
ATOM      6  C   UNL     1       0.632  10.566  21.045  0.00  0.00    +0.000 A 
ATOM      7  N   UNL     1       0.777   9.579  21.952  0.00  0.00    +0.000 NA
ATOM      8  C   UNL     1       1.242   8.380  21.504  0.00  0.00    +0.000 A 
ATOM      9  C   UNL     1       1.585   8.117  20.184  0.00  0.00    +0.000 A 
ATOM     10  C   UNL     1       1.393   9.146  19.257  0.00  0.00    +0.000 A 
ATOM     11  C   UNL     1       0.920  10.382  19.689  0.00  0.00    +0.000 A 
ATOM     12 CL   UNL     1       0.702  11.641  18.529  0.00  0.00    +0.000 Cl
BRANCH   6  13
ATOM     13  N   UNL     1       0.255  11.805  21.560  0.00  0.00    +0.000 N 
ATOM     14  H   UNL     1       0.681  11.910  22.476  0.00  0.00    +0.000 HD
ATOM     15  H   UNL     1      -0.751  11.932  21.560  0.00  0.00    +0.000 HD
ENDBRANCH   6  13
ENDBRANCH   1   9
BRANCH   4  16
ATOM     16  C   UNL     1       4.527   4.991  17.957  0.00  0.00    +0.000 C 
ATOM     17  C   UNL     1       4.112   4.120  16.768  0.00  0.00    +0.000 C 
ATOM     18  C   UNL     1       5.344   4.179  15.877  0.00  0.00    +0.000 C 
ATOM     19  C   UNL     1       5.790   5.623  15.993  0.00  0.00    +0.000 C 
ATOM     20  F   UNL     1       5.243   6.358  14.999  0.00  0.00    +0.000 F 
ATOM     21  F   UNL     1       7.131   5.717  15.871  0.00  0.00    +0.000 F 
ATOM     22  C   UNL     1       5.327   6.148  17.341  0.00  0.00    +0.000 C 
ENDBRANCH   4  16
BRANCH   3  23
ATOM     23  C   UNL     1       2.613   3.154  19.679  0.00  0.00    +0.000 C 
ATOM     24  C   UNL     1       1.282   2.614  20.170  0.00  0.00    +0.000 C 
ATOM     25  C   UNL     1       1.414   2.671  21.681  0.00  0.00    +0.000 C 
ATOM     26  O   UNL     1       2.809   2.559  21.990  0.00  0.00    +0.000 OA
ATOM     27  C   UNL     1       3.556   2.627  20.763  0.00  0.00    +0.000 C 
ENDBRANCH   3  23
TORSDOF 4
ENDMDL
MODEL 8
REMARK VINA RESULT:      -8.3      3.252      4.852
REMARK  Name = 
REMARK  4 active torsions:
REMARK  status: ('A' for Active; 'I' for Inactive)
REMARK    1  A    between atoms: N_1  and  C_2
REMARK    2  A    between atoms: C_5  and  C_6
REMARK    3  A    between atoms: C_8  and  C_9
REMARK    4  A    between atoms: N_14  and  C_15
REMARK                            x       y       z     vdW  Elec       q    Type
REMARK                         _______ _______ _______ _____ _____    ______ ____
ROOT
ATOM      1  C   UNL     1       2.272   8.074  18.719  0.00  0.00    +0.000 A 
ATOM      2  C   UNL     1       3.203   7.765  17.701  0.00  0.00    +0.000 A 
ATOM      3  C   UNL     1       3.578   6.452  17.889  0.00  0.00    +0.000 A 
ATOM      4  N   UNL     1       2.853   6.033  18.985  0.00  0.00    +0.000 N 
ATOM      5  N   UNL     1       2.092   7.014  19.519  0.00  0.00    +0.000 NA
ENDROOT
BRANCH   1   9
ATOM      6  C   UNL     1       0.402  11.778  19.478  0.00  0.00    +0.000 A 
ATOM      7  N   UNL     1      -0.124  10.661  20.021  0.00  0.00    +0.000 NA
ATOM      8  C   UNL     1       0.483   9.477  19.728  0.00  0.00    +0.000 A 
ATOM      9  C   UNL     1       1.606   9.351  18.921  0.00  0.00    +0.000 A 
ATOM     10  C   UNL     1       2.111  10.520  18.343  0.00  0.00    +0.000 A 
ATOM     11  C   UNL     1       1.510  11.744  18.627  0.00  0.00    +0.000 A 
ATOM     12 CL   UNL     1       2.157  13.175  17.911  0.00  0.00    +0.000 Cl
BRANCH   6  13
ATOM     13  N   UNL     1      -0.182  12.976  19.886  0.00  0.00    +0.000 N 
ATOM     14  H   UNL     1      -0.515  12.858  20.838  0.00  0.00    +0.000 HD
ATOM     15  H   UNL     1      -0.895  13.296  19.241  0.00  0.00    +0.000 HD
ENDBRANCH   6  13
ENDBRANCH   1   9
BRANCH   4  16
ATOM     16  C   UNL     1       2.798   4.711  19.577  0.00  0.00    +0.000 C 
ATOM     17  C   UNL     1       2.102   4.655  20.939  0.00  0.00    +0.000 C 
ATOM     18  C   UNL     1       1.823   3.168  21.101  0.00  0.00    +0.000 C 
ATOM     19  C   UNL     1       1.406   2.737  19.708  0.00  0.00    +0.000 C 
ATOM     20  F   UNL     1       0.060   2.804  19.587  0.00  0.00    +0.000 F 
ATOM     21  F   UNL     1       1.766   1.458  19.478  0.00  0.00    +0.000 F 
ATOM     22  C   UNL     1       2.063   3.677  18.712  0.00  0.00    +0.000 C 
ENDBRANCH   4  16
BRANCH   3  23
ATOM     23  C   UNL     1       4.562   5.618  17.113  0.00  0.00    +0.000 C 
ATOM     24  C   UNL     1       5.814   5.336  17.924  0.00  0.00    +0.000 C 
ATOM     25  C   UNL     1       6.685   6.548  17.660  0.00  0.00    +0.000 C 
ATOM     26  O   UNL     1       6.322   7.061  16.371  0.00  0.00    +0.000 OA
ATOM     27  C   UNL     1       5.156   6.356  15.912  0.00  0.00    +0.000 C 
ENDBRANCH   3  23
TORSDOF 4
ENDMDL
MODEL 9
REMARK VINA RESULT:      -8.1      1.731      2.216
REMARK  Name = 
REMARK  4 active torsions:
REMARK  status: ('A' for Active; 'I' for Inactive)
REMARK    1  A    between atoms: N_1  and  C_2
REMARK    2  A    between atoms: C_5  and  C_6
REMARK    3  A    between atoms: C_8  and  C_9
REMARK    4  A    between atoms: N_14  and  C_15
REMARK                            x       y       z     vdW  Elec       q    Type
REMARK                         _______ _______ _______ _____ _____    ______ ____
ROOT
ATOM      1  C   UNL     1       2.588   6.870  19.302  0.00  0.00    +0.000 A 
ATOM      2  C   UNL     1       2.452   5.492  19.586  0.00  0.00    +0.000 A 
ATOM      3  C   UNL     1       3.444   4.841  18.884  0.00  0.00    +0.000 A 
ATOM      4  N   UNL     1       4.129   5.845  18.232  0.00  0.00    +0.000 N 
ATOM      5  N   UNL     1       3.597   7.069  18.444  0.00  0.00    +0.000 NA
ENDROOT
BRANCH   1   9
ATOM      6  C   UNL     1       0.312  10.033  20.919  0.00  0.00    +0.000 A 
ATOM      7  N   UNL     1       0.551   8.947  21.682  0.00  0.00    +0.000 NA
ATOM      8  C   UNL     1       1.258   7.928  21.119  0.00  0.00    +0.000 A 
ATOM      9  C   UNL     1       1.755   7.944  19.822  0.00  0.00    +0.000 A 
ATOM     10  C   UNL     1       1.465   9.066  19.040  0.00  0.00    +0.000 A 
ATOM     11  C   UNL     1       0.744  10.122  19.593  0.00  0.00    +0.000 A 
ATOM     12 CL   UNL     1       0.408  11.502  18.613  0.00  0.00    +0.000 Cl
BRANCH   6  13
ATOM     13  N   UNL     1      -0.322  11.093  21.564  0.00  0.00    +0.000 N 
ATOM     14  H   UNL     1       0.393  11.715  21.930  0.00  0.00    +0.000 HD
ATOM     15  H   UNL     1      -0.985  10.778  22.263  0.00  0.00    +0.000 HD
ENDBRANCH   6  13
ENDBRANCH   1   9
BRANCH   4  16
ATOM     16  C   UNL     1       5.318   5.737  17.410  0.00  0.00    +0.000 C 
ATOM     17  C   UNL     1       6.411   4.836  17.991  0.00  0.00    +0.000 C 
ATOM     18  C   UNL     1       7.299   4.581  16.783  0.00  0.00    +0.000 C 
ATOM     19  C   UNL     1       6.305   4.402  15.651  0.00  0.00    +0.000 C 
ATOM     20  F   UNL     1       6.009   3.091  15.499  0.00  0.00    +0.000 F 
ATOM     21  F   UNL     1       6.830   4.832  14.485  0.00  0.00    +0.000 F 
ATOM     22  C   UNL     1       5.049   5.180  16.005  0.00  0.00    +0.000 C 
ENDBRANCH   4  16
BRANCH   3  23
ATOM     23  C   UNL     1       3.747   3.369  18.798  0.00  0.00    +0.000 C 
ATOM     24  C   UNL     1       2.926   2.694  17.715  0.00  0.00    +0.000 C 
ATOM     25  C   UNL     1       1.627   2.351  18.419  0.00  0.00    +0.000 C 
ATOM     26  O   UNL     1       1.928   2.186  19.810  0.00  0.00    +0.000 OA
ATOM     27  C   UNL     1       3.290   2.591  20.033  0.00  0.00    +0.000 C 
ENDBRANCH   3  23
TORSDOF 4
ENDMDL
