MODEL 1
REMARK VINA RESULT:      -8.5      0.000      0.000
REMARK  Name = 
REMARK  8 active torsions:
REMARK  status: ('A' for Active; 'I' for Inactive)
REMARK    1  A    between atoms: C_1  and  O_2
REMARK    2  A    between atoms: O_2  and  C_3
REMARK    3  A    between atoms: C_3  and  C_4
REMARK    4  A    between atoms: C_8  and  C_9
REMARK    5  A    between atoms: C_11  and  C_12
REMARK    6  A    between atoms: C_16  and  C_17
REMARK    7  A    between atoms: C_20  and  C_21
REMARK    8  A    between atoms: C_28  and  C_29
REMARK                            x       y       z     vdW  Elec       q    Type
REMARK                         _______ _______ _______ _____ _____    ______ ____
ROOT
ATOM      1  C   UNL     1       3.766   5.246  18.123  0.00  0.00    +0.000 A 
ATOM      2  C   UNL     1       3.383   6.483  18.699  0.00  0.00    +0.000 A 
ATOM      3  C   UNL     1       2.236   6.615  19.484  0.00  0.00    +0.000 A 
ATOM      4  C   UNL     1       1.434   5.488  19.688  0.00  0.00    +0.000 A 
ATOM      5  C   UNL     1       1.774   4.264  19.118  0.00  0.00    +0.000 A 
ATOM      6  C   UNL     1       2.939   4.118  18.345  0.00  0.00    +0.000 A 
ATOM      7  C   UNL     1       3.251   2.735  17.839  0.00  0.00    +0.000 C 
ENDROOT
BRANCH   1  12
ATOM      8  C   UNL     1       6.450   4.948  15.650  0.00  0.00    +0.000 A 
ATOM      9  N   UNL     1       7.219   5.122  16.700  0.00  0.00    +0.000 NA
ATOM     10  C   UNL     1       6.369   5.277  17.768  0.00  0.00    +0.000 A 
ATOM     11 CL   UNL     1       6.999   5.500  19.338  0.00  0.00    +0.000 Cl
ATOM     12  C   UNL     1       5.036   5.184  17.375  0.00  0.00    +0.000 A 
ATOM     13  N   UNL     1       5.128   5.037  16.004  0.00  0.00    +0.000 N 
ATOM     14  H   UNL     1       4.363   4.989  15.349  0.00  0.00    +0.000 HD
BRANCH   8  15
ATOM     15  C   UNL     1       6.890   4.651  14.260  0.00  0.00    +0.000 C 
BRANCH  15  17
ATOM     16  C   UNL     1       8.158   5.621  12.541  0.00  0.00    +0.000 C 
ATOM     17  O   UNL     1       7.969   5.532  13.949  0.00  0.00    +0.000 OA
ENDBRANCH  15  17
ENDBRANCH   8  15
ENDBRANCH   1  12
BRANCH   3  18
ATOM     18  C   UNL     1       1.851   7.863  20.214  0.00  0.00    +0.000 C 
ATOM     19  O   UNL     1       1.849   7.833  21.446  0.00  0.00    +0.000 OA
ATOM     20  N   UNL     1       1.495   9.004  19.546  0.00  0.00    +0.000 N 
ATOM     21  C   UNL     1       1.010  10.239  20.145  0.00  0.00    +0.000 C 
ATOM     22  C   UNL     1       0.521  10.656  18.744  0.00  0.00    +0.000 C 
ATOM     23  C   UNL     1       1.259   9.416  18.182  0.00  0.00    +0.000 C 
BRANCH  22  24
ATOM     24  C   UNL     1      -1.056  10.787  18.502  0.00  0.00    +0.000 A 
ATOM     25  C   UNL     1      -1.748   9.904  17.643  0.00  0.00    +0.000 A 
ATOM     26  C   UNL     1      -3.130   9.995  17.439  0.00  0.00    +0.000 A 
ATOM     27  C   UNL     1      -3.870  10.982  18.090  0.00  0.00    +0.000 A 
ATOM     28  C   UNL     1      -3.214  11.883  18.929  0.00  0.00    +0.000 A 
ATOM     29  C   UNL     1      -1.833  11.782  19.125  0.00  0.00    +0.000 A 
BRANCH  27  30
ATOM     30  C   UNL     1      -5.289  11.073  17.901  0.00  0.00    +0.000 C 
ATOM     31  N   UNL     1      -6.435  11.152  17.742  0.00  0.00    +0.000 NA
ENDBRANCH  27  30
ENDBRANCH  22  24
ENDBRANCH   3  18
TORSDOF 6
ENDMDL
MODEL 2
REMARK VINA RESULT:      -8.4      0.937      1.345
REMARK  Name = 
REMARK  8 active torsions:
REMARK  status: ('A' for Active; 'I' for Inactive)
REMARK    1  A    between atoms: C_1  and  O_2
REMARK    2  A    between atoms: O_2  and  C_3
REMARK    3  A    between atoms: C_3  and  C_4
REMARK    4  A    between atoms: C_8  and  C_9
REMARK    5  A    between atoms: C_11  and  C_12
REMARK    6  A    between atoms: C_16  and  C_17
REMARK    7  A    between atoms: C_20  and  C_21
REMARK    8  A    between atoms: C_28  and  C_29
REMARK                            x       y       z     vdW  Elec       q    Type
REMARK                         _______ _______ _______ _____ _____    ______ ____
ROOT
ATOM      1  C   UNL     1       3.621   4.868  17.854  0.00  0.00    +0.000 A 
ATOM      2  C   UNL     1       3.326   6.144  18.397  0.00  0.00    +0.000 A 
ATOM      3  C   UNL     1       2.234   6.360  19.240  0.00  0.00    +0.000 A 
ATOM      4  C   UNL     1       1.398   5.279  19.537  0.00  0.00    +0.000 A 
ATOM      5  C   UNL     1       1.651   4.019  19.002  0.00  0.00    +0.000 A 
ATOM      6  C   UNL     1       2.761   3.789  18.171  0.00  0.00    +0.000 A 
ATOM      7  C   UNL     1       2.983   2.374  17.707  0.00  0.00    +0.000 C 
ENDROOT
BRANCH   1  12
ATOM      8  C   UNL     1       6.142   4.294  15.261  0.00  0.00    +0.000 A 
ATOM      9  N   UNL     1       6.977   4.568  16.238  0.00  0.00    +0.000 NA
ATOM     10  C   UNL     1       6.196   4.839  17.335  0.00  0.00    +0.000 A 
ATOM     11 CL   UNL     1       6.925   5.215  18.831  0.00  0.00    +0.000 Cl
ATOM     12  C   UNL     1       4.841   4.718  17.038  0.00  0.00    +0.000 A 
ATOM     13  N   UNL     1       4.845   4.432  15.686  0.00  0.00    +0.000 N 
ATOM     14  H   UNL     1       4.040   4.324  15.089  0.00  0.00    +0.000 HD
BRANCH   8  15
ATOM     15  C   UNL     1       6.493   3.853  13.884  0.00  0.00    +0.000 C 
BRANCH  15  17
ATOM     16  C   UNL     1       5.306   3.036  12.033  0.00  0.00    +0.000 C 
ATOM     17  O   UNL     1       5.332   4.012  13.068  0.00  0.00    +0.000 OA
ENDBRANCH  15  17
ENDBRANCH   8  15
ENDBRANCH   1  12
BRANCH   3  18
ATOM     18  C   UNL     1       1.946   7.652  19.936  0.00  0.00    +0.000 C 
ATOM     19  O   UNL     1       2.030   7.676  21.165  0.00  0.00    +0.000 OA
ATOM     20  N   UNL     1       1.586   8.776  19.242  0.00  0.00    +0.000 N 
ATOM     21  C   UNL     1       1.189  10.055  19.815  0.00  0.00    +0.000 C 
ATOM     22  C   UNL     1       0.619  10.429  18.433  0.00  0.00    +0.000 C 
ATOM     23  C   UNL     1       1.270   9.137  17.880  0.00  0.00    +0.000 C 
BRANCH  22  24
ATOM     24  C   UNL     1      -0.965  10.611  18.293  0.00  0.00    +0.000 A 
ATOM     25  C   UNL     1      -1.660  11.610  19.011  0.00  0.00    +0.000 A 
ATOM     26  C   UNL     1      -3.042  11.794  18.882  0.00  0.00    +0.000 A 
ATOM     27  C   UNL     1      -3.780  10.977  18.025  0.00  0.00    +0.000 A 
ATOM     28  C   UNL     1      -3.126   9.967  17.316  0.00  0.00    +0.000 A 
ATOM     29  C   UNL     1      -1.746   9.793  17.453  0.00  0.00    +0.000 A 
BRANCH  27  30
ATOM     30  C   UNL     1      -5.193  11.168  17.873  0.00  0.00    +0.000 C 
ATOM     31  N   UNL     1      -6.337  11.316  17.749  0.00  0.00    +0.000 NA
ENDBRANCH  27  30
ENDBRANCH  22  24
ENDBRANCH   3  18
TORSDOF 6
ENDMDL
MODEL 3
REMARK VINA RESULT:      -7.9      1.737      1.971
REMARK  Name = 
REMARK  8 active torsions:
REMARK  status: ('A' for Active; 'I' for Inactive)
REMARK    1  A    between atoms: C_1  and  O_2
REMARK    2  A    between atoms: O_2  and  C_3
REMARK    3  A    between atoms: C_3  and  C_4
REMARK    4  A    between atoms: C_8  and  C_9
REMARK    5  A    between atoms: C_11  and  C_12
REMARK    6  A    between atoms: C_16  and  C_17
REMARK    7  A    between atoms: C_20  and  C_21
REMARK    8  A    between atoms: C_28  and  C_29
REMARK                            x       y       z     vdW  Elec       q    Type
REMARK                         _______ _______ _______ _____ _____    ______ ____
ROOT
ATOM      1  C   UNL     1       3.034   5.124  19.138  0.00  0.00    +0.000 A 
ATOM      2  C   UNL     1       2.752   6.500  19.324  0.00  0.00    +0.000 A 
ATOM      3  C   UNL     1       1.809   6.948  20.252  0.00  0.00    +0.000 A 
ATOM      4  C   UNL     1       1.111   5.998  21.004  0.00  0.00    +0.000 A 
ATOM      5  C   UNL     1       1.352   4.638  20.828  0.00  0.00    +0.000 A 
ATOM      6  C   UNL     1       2.315   4.181  19.912  0.00  0.00    +0.000 A 
ATOM      7  C   UNL     1       2.549   2.695  19.855  0.00  0.00    +0.000 C 
ENDROOT
BRANCH   1  12
ATOM      8  C   UNL     1       6.115   4.713  17.202  0.00  0.00    +0.000 A 
ATOM      9  N   UNL     1       5.369   3.900  16.489  0.00  0.00    +0.000 NA
ATOM     10  C   UNL     1       4.132   3.903  17.087  0.00  0.00    +0.000 A 
ATOM     11 CL   UNL     1       2.860   2.977  16.425  0.00  0.00    +0.000 Cl
ATOM     12  C   UNL     1       4.103   4.749  18.193  0.00  0.00    +0.000 A 
ATOM     13  N   UNL     1       5.407   5.199  18.272  0.00  0.00    +0.000 N 
ATOM     14  H   UNL     1       5.798   5.797  18.983  0.00  0.00    +0.000 HD
BRANCH   8  15
ATOM     15  C   UNL     1       7.518   5.119  16.917  0.00  0.00    +0.000 C 
BRANCH  15  17
ATOM     16  C   UNL     1       7.710   7.379  17.515  0.00  0.00    +0.000 C 
ATOM     17  O   UNL     1       7.493   6.465  16.445  0.00  0.00    +0.000 OA
ENDBRANCH  15  17
ENDBRANCH   8  15
ENDBRANCH   1  12
BRANCH   3  18
ATOM     18  C   UNL     1       1.560   8.386  20.576  0.00  0.00    +0.000 C 
ATOM     19  O   UNL     1       1.697   8.746  21.747  0.00  0.00    +0.000 OA
ATOM     20  N   UNL     1       1.176   9.283  19.614  0.00  0.00    +0.000 N 
ATOM     21  C   UNL     1       0.812  10.676  19.828  0.00  0.00    +0.000 C 
ATOM     22  C   UNL     1       0.184  10.665  18.420  0.00  0.00    +0.000 C 
ATOM     23  C   UNL     1       0.803   9.260  18.219  0.00  0.00    +0.000 C 
BRANCH  22  24
ATOM     24  C   UNL     1      -1.404  10.830  18.300  0.00  0.00    +0.000 A 
ATOM     25  C   UNL     1      -2.170  10.004  17.447  0.00  0.00    +0.000 A 
ATOM     26  C   UNL     1      -3.561  10.125  17.348  0.00  0.00    +0.000 A 
ATOM     27  C   UNL     1      -4.236  11.084  18.103  0.00  0.00    +0.000 A 
ATOM     28  C   UNL     1      -3.506  11.930  18.940  0.00  0.00    +0.000 A 
ATOM     29  C   UNL     1      -2.117  11.800  19.030  0.00  0.00    +0.000 A 
BRANCH  27  30
ATOM     30  C   UNL     1      -5.663  11.204  18.021  0.00  0.00    +0.000 C 
ATOM     31  N   UNL     1      -6.817  11.297  17.960  0.00  0.00    +0.000 NA
ENDBRANCH  27  30
ENDBRANCH  22  24
ENDBRANCH   3  18
TORSDOF 6
ENDMDL
MODEL 4
REMARK VINA RESULT:      -7.7      2.272      3.404
REMARK  Name = 
REMARK  8 active torsions:
REMARK  status: ('A' for Active; 'I' for Inactive)
REMARK    1  A    between atoms: C_1  and  O_2
REMARK    2  A    between atoms: O_2  and  C_3
REMARK    3  A    between atoms: C_3  and  C_4
REMARK    4  A    between atoms: C_8  and  C_9
REMARK    5  A    between atoms: C_11  and  C_12
REMARK    6  A    between atoms: C_16  and  C_17
REMARK    7  A    between atoms: C_20  and  C_21
REMARK    8  A    between atoms: C_28  and  C_29
REMARK                            x       y       z     vdW  Elec       q    Type
REMARK                         _______ _______ _______ _____ _____    ______ ____
ROOT
ATOM      1  C   UNL     1       2.308   7.109  19.123  0.00  0.00    +0.000 A 
ATOM      2  C   UNL     1       1.892   8.393  18.690  0.00  0.00    +0.000 A 
ATOM      3  C   UNL     1       1.110   9.230  19.488  0.00  0.00    +0.000 A 
ATOM      4  C   UNL     1       0.713   8.770  20.747  0.00  0.00    +0.000 A 
ATOM      5  C   UNL     1       1.089   7.505  21.191  0.00  0.00    +0.000 A 
ATOM      6  C   UNL     1       1.895   6.666  20.402  0.00  0.00    +0.000 A 
ATOM      7  C   UNL     1       2.305   5.350  21.007  0.00  0.00    +0.000 C 
ENDROOT
BRANCH   1  12
ATOM      8  C   UNL     1       5.002   5.789  17.021  0.00  0.00    +0.000 A 
ATOM      9  N   UNL     1       4.161   4.795  16.846  0.00  0.00    +0.000 NA
ATOM     10  C   UNL     1       3.051   5.104  17.595  0.00  0.00    +0.000 A 
ATOM     11 CL   UNL     1       1.706   4.055  17.604  0.00  0.00    +0.000 Cl
ATOM     12  C   UNL     1       3.200   6.328  18.244  0.00  0.00    +0.000 A 
ATOM     13  N   UNL     1       4.485   6.704  17.903  0.00  0.00    +0.000 N 
ATOM     14  H   UNL     1       4.981   7.520  18.226  0.00  0.00    +0.000 HD
BRANCH   8  15
ATOM     15  C   UNL     1       6.320   5.972  16.355  0.00  0.00    +0.000 C 
BRANCH  15  17
ATOM     16  C   UNL     1       6.950   4.823  14.410  0.00  0.00    +0.000 C 
ATOM     17  O   UNL     1       6.117   5.843  14.948  0.00  0.00    +0.000 OA
ENDBRANCH  15  17
ENDBRANCH   8  15
ENDBRANCH   1  12
BRANCH   3  18
ATOM     18  C   UNL     1       0.746  10.637  19.133  0.00  0.00    +0.000 C 
ATOM     19  O   UNL     1       1.514  11.536  19.480  0.00  0.00    +0.000 OA
ATOM     20  N   UNL     1      -0.409  10.931  18.458  0.00  0.00    +0.000 N 
ATOM     21  C   UNL     1      -0.913  12.260  18.147  0.00  0.00    +0.000 C 
ATOM     22  C   UNL     1      -2.277  11.608  17.849  0.00  0.00    +0.000 C 
ATOM     23  C   UNL     1      -1.584  10.231  17.994  0.00  0.00    +0.000 C 
BRANCH  22  24
ATOM     24  C   UNL     1      -3.508  11.955  18.812  0.00  0.00    +0.000 A 
ATOM     25  C   UNL     1      -3.314  12.580  20.063  0.00  0.00    +0.000 A 
ATOM     26  C   UNL     1      -4.383  12.907  20.906  0.00  0.00    +0.000 A 
ATOM     27  C   UNL     1      -5.692  12.615  20.521  0.00  0.00    +0.000 A 
ATOM     28  C   UNL     1      -5.917  11.979  19.299  0.00  0.00    +0.000 A 
ATOM     29  C   UNL     1      -4.840  11.657  18.466  0.00  0.00    +0.000 A 
BRANCH  27  30
ATOM     30  C   UNL     1      -6.795  12.961  21.369  0.00  0.00    +0.000 C 
ATOM     31  N   UNL     1      -7.688  13.247  22.051  0.00  0.00    +0.000 NA
ENDBRANCH  27  30
ENDBRANCH  22  24
ENDBRANCH   3  18
TORSDOF 6
ENDMDL
MODEL 5
REMARK VINA RESULT:      -7.7      2.032      2.379
REMARK  Name = 
REMARK  8 active torsions:
REMARK  status: ('A' for Active; 'I' for Inactive)
REMARK    1  A    between atoms: C_1  and  O_2
REMARK    2  A    between atoms: O_2  and  C_3
REMARK    3  A    between atoms: C_3  and  C_4
REMARK    4  A    between atoms: C_8  and  C_9
REMARK    5  A    between atoms: C_11  and  C_12
REMARK    6  A    between atoms: C_16  and  C_17
REMARK    7  A    between atoms: C_20  and  C_21
REMARK    8  A    between atoms: C_28  and  C_29
REMARK                            x       y       z     vdW  Elec       q    Type
REMARK                         _______ _______ _______ _____ _____    ______ ____
ROOT
ATOM      1  C   UNL     1       3.199   5.364  19.443  0.00  0.00    +0.000 A 
ATOM      2  C   UNL     1       2.874   6.715  19.725  0.00  0.00    +0.000 A 
ATOM      3  C   UNL     1       1.716   7.072  20.418  0.00  0.00    +0.000 A 
ATOM      4  C   UNL     1       0.845   6.059  20.827  0.00  0.00    +0.000 A 
ATOM      5  C   UNL     1       1.127   4.724  20.547  0.00  0.00    +0.000 A 
ATOM      6  C   UNL     1       2.302   4.355  19.869  0.00  0.00    +0.000 A 
ATOM      7  C   UNL     1       2.547   2.881  19.683  0.00  0.00    +0.000 C 
ENDROOT
BRANCH   1  12
ATOM      8  C   UNL     1       6.692   5.068  18.382  0.00  0.00    +0.000 A 
ATOM      9  N   UNL     1       6.161   4.432  17.363  0.00  0.00    +0.000 NA
ATOM     10  C   UNL     1       4.806   4.420  17.591  0.00  0.00    +0.000 A 
ATOM     11 CL   UNL     1       3.755   3.699  16.457  0.00  0.00    +0.000 Cl
ATOM     12  C   UNL     1       4.484   5.076  18.776  0.00  0.00    +0.000 A 
ATOM     13  N   UNL     1       5.722   5.421  19.285  0.00  0.00    +0.000 N 
ATOM     14  H   UNL     1       5.908   5.870  20.168  0.00  0.00    +0.000 HD
BRANCH   8  15
ATOM     15  C   UNL     1       8.126   5.421  18.566  0.00  0.00    +0.000 C 
BRANCH  15  17
ATOM     16  C   UNL     1       7.741   7.538  17.632  0.00  0.00    +0.000 C 
ATOM     17  O   UNL     1       8.202   6.830  18.777  0.00  0.00    +0.000 OA
ENDBRANCH  15  17
ENDBRANCH   8  15
ENDBRANCH   1  12
BRANCH   3  18
ATOM     18  C   UNL     1       1.386   8.466  20.848  0.00  0.00    +0.000 C 
ATOM     19  O   UNL     1       1.443   8.728  22.051  0.00  0.00    +0.000 OA
ATOM     20  N   UNL     1       1.014   9.427  19.945  0.00  0.00    +0.000 N 
ATOM     21  C   UNL     1       0.578  10.780  20.255  0.00  0.00    +0.000 C 
ATOM     22  C   UNL     1       0.028  10.867  18.818  0.00  0.00    +0.000 C 
ATOM     23  C   UNL     1       0.719   9.511  18.534  0.00  0.00    +0.000 C 
BRANCH  22  24
ATOM     24  C   UNL     1      -1.557  10.978  18.621  0.00  0.00    +0.000 A 
ATOM     25  C   UNL     1      -2.317  11.968  19.283  0.00  0.00    +0.000 A 
ATOM     26  C   UNL     1      -3.700  12.089  19.103  0.00  0.00    +0.000 A 
ATOM     27  C   UNL     1      -4.373  11.216  18.250  0.00  0.00    +0.000 A 
ATOM     28  C   UNL     1      -3.656  10.214  17.595  0.00  0.00    +0.000 A 
ATOM     29  C   UNL     1      -2.275  10.102  17.783  0.00  0.00    +0.000 A 
BRANCH  27  30
ATOM     30  C   UNL     1      -5.787  11.343  18.045  0.00  0.00    +0.000 C 
ATOM     31  N   UNL     1      -6.930  11.442  17.873  0.00  0.00    +0.000 NA
ENDBRANCH  27  30
ENDBRANCH  22  24
ENDBRANCH   3  18
TORSDOF 6
ENDMDL
MODEL 6
REMARK VINA RESULT:      -7.6      2.912      3.986
REMARK  Name = 
REMARK  8 active torsions:
REMARK  status: ('A' for Active; 'I' for Inactive)
REMARK    1  A    between atoms: C_1  and  O_2
REMARK    2  A    between atoms: O_2  and  C_3
REMARK    3  A    between atoms: C_3  and  C_4
REMARK    4  A    between atoms: C_8  and  C_9
REMARK    5  A    between atoms: C_11  and  C_12
REMARK    6  A    between atoms: C_16  and  C_17
REMARK    7  A    between atoms: C_20  and  C_21
REMARK    8  A    between atoms: C_28  and  C_29
REMARK                            x       y       z     vdW  Elec       q    Type
REMARK                         _______ _______ _______ _____ _____    ______ ____
ROOT
ATOM      1  C   UNL     1       2.605   6.876  18.760  0.00  0.00    +0.000 A 
ATOM      2  C   UNL     1       2.251   8.156  18.265  0.00  0.00    +0.000 A 
ATOM      3  C   UNL     1       1.492   9.059  19.013  0.00  0.00    +0.000 A 
ATOM      4  C   UNL     1       1.054   8.670  20.282  0.00  0.00    +0.000 A 
ATOM      5  C   UNL     1       1.369   7.411  20.786  0.00  0.00    +0.000 A 
ATOM      6  C   UNL     1       2.152   6.505  20.048  0.00  0.00    +0.000 A 
ATOM      7  C   UNL     1       2.495   5.201  20.717  0.00  0.00    +0.000 C 
ENDROOT
BRANCH   1  12
ATOM      8  C   UNL     1       5.258   5.373  16.731  0.00  0.00    +0.000 A 
ATOM      9  N   UNL     1       4.405   4.378  16.641  0.00  0.00    +0.000 NA
ATOM     10  C   UNL     1       3.308   4.754  17.379  0.00  0.00    +0.000 A 
ATOM     11 CL   UNL     1       1.953   3.722  17.483  0.00  0.00    +0.000 Cl
ATOM     12  C   UNL     1       3.477   6.021  17.932  0.00  0.00    +0.000 A 
ATOM     13  N   UNL     1       4.761   6.357  17.547  0.00  0.00    +0.000 N 
ATOM     14  H   UNL     1       5.270   7.190  17.802  0.00  0.00    +0.000 HD
BRANCH   8  15
ATOM     15  C   UNL     1       6.568   5.491  16.037  0.00  0.00    +0.000 C 
BRANCH  15  17
ATOM     16  C   UNL     1       7.742   4.685  17.901  0.00  0.00    +0.000 C 
ATOM     17  O   UNL     1       7.418   4.458  16.534  0.00  0.00    +0.000 OA
ENDBRANCH  15  17
ENDBRANCH   8  15
ENDBRANCH   1  12
BRANCH   3  18
ATOM     18  C   UNL     1       1.194  10.463  18.592  0.00  0.00    +0.000 C 
ATOM     19  O   UNL     1       2.143  11.187  18.285  0.00  0.00    +0.000 OA
ATOM     20  N   UNL     1      -0.088  10.945  18.560  0.00  0.00    +0.000 N 
ATOM     21  C   UNL     1      -0.488  12.313  18.265  0.00  0.00    +0.000 C 
ATOM     22  C   UNL     1      -1.867  11.975  18.863  0.00  0.00    +0.000 C 
ATOM     23  C   UNL     1      -1.409  10.498  18.935  0.00  0.00    +0.000 C 
BRANCH  22  24
ATOM     24  C   UNL     1      -2.306  12.711  20.216  0.00  0.00    +0.000 A 
ATOM     25  C   UNL     1      -1.351  13.185  21.142  0.00  0.00    +0.000 A 
ATOM     26  C   UNL     1      -1.720  13.848  22.319  0.00  0.00    +0.000 A 
ATOM     27  C   UNL     1      -3.068  14.057  22.610  0.00  0.00    +0.000 A 
ATOM     28  C   UNL     1      -4.038  13.583  21.725  0.00  0.00    +0.000 A 
ATOM     29  C   UNL     1      -3.656  12.922  20.553  0.00  0.00    +0.000 A 
BRANCH  27  30
ATOM     30  C   UNL     1      -3.456  14.750  23.804  0.00  0.00    +0.000 C 
ATOM     31  N   UNL     1      -3.766  15.315  24.769  0.00  0.00    +0.000 NA
ENDBRANCH  27  30
ENDBRANCH  22  24
ENDBRANCH   3  18
TORSDOF 6
ENDMDL
MODEL 7
REMARK VINA RESULT:      -7.5      3.040      3.940
REMARK  Name = 
REMARK  8 active torsions:
REMARK  status: ('A' for Active; 'I' for Inactive)
REMARK    1  A    between atoms: C_1  and  O_2
REMARK    2  A    between atoms: O_2  and  C_3
REMARK    3  A    between atoms: C_3  and  C_4
REMARK    4  A    between atoms: C_8  and  C_9
REMARK    5  A    between atoms: C_11  and  C_12
REMARK    6  A    between atoms: C_16  and  C_17
REMARK    7  A    between atoms: C_20  and  C_21
REMARK    8  A    between atoms: C_28  and  C_29
REMARK                            x       y       z     vdW  Elec       q    Type
REMARK                         _______ _______ _______ _____ _____    ______ ____
ROOT
ATOM      1  C   UNL     1       2.681   6.615  18.842  0.00  0.00    +0.000 A 
ATOM      2  C   UNL     1       2.335   7.902  18.359  0.00  0.00    +0.000 A 
ATOM      3  C   UNL     1       1.564   8.795  19.106  0.00  0.00    +0.000 A 
ATOM      4  C   UNL     1       1.107   8.390  20.364  0.00  0.00    +0.000 A 
ATOM      5  C   UNL     1       1.414   7.124  20.856  0.00  0.00    +0.000 A 
ATOM      6  C   UNL     1       2.208   6.228  20.119  0.00  0.00    +0.000 A 
ATOM      7  C   UNL     1       2.542   4.915  20.775  0.00  0.00    +0.000 C 
ENDROOT
BRANCH   1  12
ATOM      8  C   UNL     1       5.373   5.130  16.852  0.00  0.00    +0.000 A 
ATOM      9  N   UNL     1       4.508   4.152  16.707  0.00  0.00    +0.000 NA
ATOM     10  C   UNL     1       3.395   4.524  17.421  0.00  0.00    +0.000 A 
ATOM     11 CL   UNL     1       2.022   3.512  17.453  0.00  0.00    +0.000 Cl
ATOM     12  C   UNL     1       3.566   5.771  18.016  0.00  0.00    +0.000 A 
ATOM     13  N   UNL     1       4.867   6.098  17.682  0.00  0.00    +0.000 N 
ATOM     14  H   UNL     1       5.379   6.914  17.977  0.00  0.00    +0.000 HD
BRANCH   8  15
ATOM     15  C   UNL     1       6.707   5.247  16.203  0.00  0.00    +0.000 C 
BRANCH  15  17
ATOM     16  C   UNL     1       7.076   4.756  13.939  0.00  0.00    +0.000 C 
ATOM     17  O   UNL     1       6.499   5.677  14.858  0.00  0.00    +0.000 OA
ENDBRANCH  15  17
ENDBRANCH   8  15
ENDBRANCH   1  12
BRANCH   3  18
ATOM     18  C   UNL     1       1.273  10.204  18.700  0.00  0.00    +0.000 C 
ATOM     19  O   UNL     1       2.208  10.890  18.282  0.00  0.00    +0.000 OA
ATOM     20  N   UNL     1       0.013  10.734  18.798  0.00  0.00    +0.000 N 
ATOM     21  C   UNL     1      -0.368  12.112  18.527  0.00  0.00    +0.000 C 
ATOM     22  C   UNL     1      -1.686  11.831  19.274  0.00  0.00    +0.000 C 
ATOM     23  C   UNL     1      -1.275  10.339  19.318  0.00  0.00    +0.000 C 
BRANCH  22  24
ATOM     24  C   UNL     1      -1.951  12.597  20.655  0.00  0.00    +0.000 A 
ATOM     25  C   UNL     1      -1.183  12.326  21.809  0.00  0.00    +0.000 A 
ATOM     26  C   UNL     1      -1.390  13.002  23.017  0.00  0.00    +0.000 A 
ATOM     27  C   UNL     1      -2.381  13.979  23.111  0.00  0.00    +0.000 A 
ATOM     28  C   UNL     1      -3.172  14.257  21.994  0.00  0.00    +0.000 A 
ATOM     29  C   UNL     1      -2.955  13.574  20.793  0.00  0.00    +0.000 A 
BRANCH  27  30
ATOM     30  C   UNL     1      -2.590  14.690  24.338  0.00  0.00    +0.000 C 
ATOM     31  N   UNL     1      -2.758  15.259  25.335  0.00  0.00    +0.000 NA
ENDBRANCH  27  30
ENDBRANCH  22  24
ENDBRANCH   3  18
TORSDOF 6
ENDMDL
MODEL 8
REMARK VINA RESULT:      -7.5      2.504      3.615
REMARK  Name = 
REMARK  8 active torsions:
REMARK  status: ('A' for Active; 'I' for Inactive)
REMARK    1  A    between atoms: C_1  and  O_2
REMARK    2  A    between atoms: O_2  and  C_3
REMARK    3  A    between atoms: C_3  and  C_4
REMARK    4  A    between atoms: C_8  and  C_9
REMARK    5  A    between atoms: C_11  and  C_12
REMARK    6  A    between atoms: C_16  and  C_17
REMARK    7  A    between atoms: C_20  and  C_21
REMARK    8  A    between atoms: C_28  and  C_29
REMARK                            x       y       z     vdW  Elec       q    Type
REMARK                         _______ _______ _______ _____ _____    ______ ____
ROOT
ATOM      1  C   UNL     1       2.385   7.120  19.043  0.00  0.00    +0.000 A 
ATOM      2  C   UNL     1       1.965   8.393  18.582  0.00  0.00    +0.000 A 
ATOM      3  C   UNL     1       1.164   9.237  19.353  0.00  0.00    +0.000 A 
ATOM      4  C   UNL     1       0.751   8.795  20.614  0.00  0.00    +0.000 A 
ATOM      5  C   UNL     1       1.131   7.541  21.085  0.00  0.00    +0.000 A 
ATOM      6  C   UNL     1       1.955   6.695  20.323  0.00  0.00    +0.000 A 
ATOM      7  C   UNL     1       2.367   5.394  20.958  0.00  0.00    +0.000 C 
ENDROOT
BRANCH   1  12
ATOM      8  C   UNL     1       5.116   5.792  16.995  0.00  0.00    +0.000 A 
ATOM      9  N   UNL     1       4.293   4.779  16.842  0.00  0.00    +0.000 NA
ATOM     10  C   UNL     1       3.174   5.088  17.575  0.00  0.00    +0.000 A 
ATOM     11 CL   UNL     1       1.847   4.015  17.604  0.00  0.00    +0.000 Cl
ATOM     12  C   UNL     1       3.296   6.331  18.192  0.00  0.00    +0.000 A 
ATOM     13  N   UNL     1       4.577   6.721  17.849  0.00  0.00    +0.000 N 
ATOM     14  H   UNL     1       5.056   7.554  18.153  0.00  0.00    +0.000 HD
BRANCH   8  15
ATOM     15  C   UNL     1       6.435   5.981  16.333  0.00  0.00    +0.000 C 
BRANCH  15  17
ATOM     16  C   UNL     1       7.835   6.629  18.100  0.00  0.00    +0.000 C 
ATOM     17  O   UNL     1       7.444   5.557  17.249  0.00  0.00    +0.000 OA
ENDBRANCH  15  17
ENDBRANCH   8  15
ENDBRANCH   1  12
BRANCH   3  18
ATOM     18  C   UNL     1       0.793  10.634  18.969  0.00  0.00    +0.000 C 
ATOM     19  O   UNL     1       1.637  11.519  19.126  0.00  0.00    +0.000 OA
ATOM     20  N   UNL     1      -0.447  10.936  18.471  0.00  0.00    +0.000 N 
ATOM     21  C   UNL     1      -0.950  12.266  18.157  0.00  0.00    +0.000 C 
ATOM     22  C   UNL     1      -2.365  11.657  18.126  0.00  0.00    +0.000 C 
ATOM     23  C   UNL     1      -1.704  10.262  18.249  0.00  0.00    +0.000 C 
BRANCH  22  24
ATOM     24  C   UNL     1      -3.410  12.114  19.250  0.00  0.00    +0.000 A 
ATOM     25  C   UNL     1      -4.803  12.072  19.024  0.00  0.00    +0.000 A 
ATOM     26  C   UNL     1      -5.728  12.450  20.005  0.00  0.00    +0.000 A 
ATOM     27  C   UNL     1      -5.285  12.887  21.253  0.00  0.00    +0.000 A 
ATOM     28  C   UNL     1      -3.913  12.960  21.502  0.00  0.00    +0.000 A 
ATOM     29  C   UNL     1      -2.999  12.580  20.514  0.00  0.00    +0.000 A 
BRANCH  27  30
ATOM     30  C   UNL     1      -6.224  13.260  22.270  0.00  0.00    +0.000 C 
ATOM     31  N   UNL     1      -6.985  13.555  23.095  0.00  0.00    +0.000 NA
ENDBRANCH  27  30
ENDBRANCH  22  24
ENDBRANCH   3  18
TORSDOF 6
ENDMDL
MODEL 9
REMARK VINA RESULT:      -7.5      3.179      4.248
REMARK  Name = 
REMARK  8 active torsions:
REMARK  status: ('A' for Active; 'I' for Inactive)
REMARK    1  A    between atoms: C_1  and  O_2
REMARK    2  A    between atoms: O_2  and  C_3
REMARK    3  A    between atoms: C_3  and  C_4
REMARK    4  A    between atoms: C_8  and  C_9
REMARK    5  A    between atoms: C_11  and  C_12
REMARK    6  A    between atoms: C_16  and  C_17
REMARK    7  A    between atoms: C_20  and  C_21
REMARK    8  A    between atoms: C_28  and  C_29
REMARK                            x       y       z     vdW  Elec       q    Type
REMARK                         _______ _______ _______ _____ _____    ______ ____
ROOT
ATOM      1  C   UNL     1       2.683   6.615  18.673  0.00  0.00    +0.000 A 
ATOM      2  C   UNL     1       2.364   7.912  18.199  0.00  0.00    +0.000 A 
ATOM      3  C   UNL     1       1.667   8.838  18.978  0.00  0.00    +0.000 A 
ATOM      4  C   UNL     1       1.257   8.457  20.259  0.00  0.00    +0.000 A 
ATOM      5  C   UNL     1       1.537   7.182  20.744  0.00  0.00    +0.000 A 
ATOM      6  C   UNL     1       2.258   6.252  19.974  0.00  0.00    +0.000 A 
ATOM      7  C   UNL     1       2.571   4.930  20.622  0.00  0.00    +0.000 C 
ENDROOT
BRANCH   1  12
ATOM      8  C   UNL     1       5.184   5.040  16.510  0.00  0.00    +0.000 A 
ATOM      9  N   UNL     1       4.320   4.050  16.503  0.00  0.00    +0.000 NA
ATOM     10  C   UNL     1       3.278   4.453  17.303  0.00  0.00    +0.000 A 
ATOM     11 CL   UNL     1       1.926   3.436  17.523  0.00  0.00    +0.000 Cl
ATOM     12  C   UNL     1       3.492   5.732  17.810  0.00  0.00    +0.000 A 
ATOM     13  N   UNL     1       4.750   6.048  17.333  0.00  0.00    +0.000 N 
ATOM     14  H   UNL     1       5.279   6.883  17.532  0.00  0.00    +0.000 HD
BRANCH   8  15
ATOM     15  C   UNL     1       6.446   5.130  15.727  0.00  0.00    +0.000 C 
BRANCH  15  17
ATOM     16  C   UNL     1       7.768   4.549  17.575  0.00  0.00    +0.000 C 
ATOM     17  O   UNL     1       7.478   5.558  16.615  0.00  0.00    +0.000 OA
ENDBRANCH  15  17
ENDBRANCH   8  15
ENDBRANCH   1  12
BRANCH   3  18
ATOM     18  C   UNL     1       1.411  10.256  18.577  0.00  0.00    +0.000 C 
ATOM     19  O   UNL     1       2.335  10.884  18.055  0.00  0.00    +0.000 OA
ATOM     20  N   UNL     1       0.198  10.855  18.791  0.00  0.00    +0.000 N 
ATOM     21  C   UNL     1      -0.134  12.249  18.534  0.00  0.00    +0.000 C 
ATOM     22  C   UNL     1      -1.383  12.051  19.415  0.00  0.00    +0.000 C 
ATOM     23  C   UNL     1      -1.050  10.539  19.444  0.00  0.00    +0.000 C 
BRANCH  22  24
ATOM     24  C   UNL     1      -1.465  12.847  20.801  0.00  0.00    +0.000 A 
ATOM     25  C   UNL     1      -1.711  14.237  20.841  0.00  0.00    +0.000 A 
ATOM     26  C   UNL     1      -1.805  14.942  22.048  0.00  0.00    +0.000 A 
ATOM     27  C   UNL     1      -1.655  14.273  23.262  0.00  0.00    +0.000 A 
ATOM     28  C   UNL     1      -1.391  12.903  23.257  0.00  0.00    +0.000 A 
ATOM     29  C   UNL     1      -1.298  12.210  22.046  0.00  0.00    +0.000 A 
BRANCH  27  30
ATOM     30  C   UNL     1      -1.767  14.982  24.504  0.00  0.00    +0.000 C 
ATOM     31  N   UNL     1      -1.862  15.560  25.505  0.00  0.00    +0.000 NA
ENDBRANCH  27  30
ENDBRANCH  22  24
ENDBRANCH   3  18
TORSDOF 6
ENDMDL
