MODEL 1
REMARK VINA RESULT:      -7.6      0.000      0.000
REMARK  Name = 
REMARK  10 active torsions:
REMARK  status: ('A' for Active; 'I' for Inactive)
REMARK    1  A    between atoms: C_1  and  C_2
REMARK    2  A    between atoms: C_2  and  C_18
REMARK    3  A    between atoms: C_3  and  C_4
REMARK    4  A    between atoms: C_4  and  C_5
REMARK    5  A    between atoms: C_6  and  O_7
REMARK    6  A    between atoms: C_8  and  C_9
REMARK    7  A    between atoms: C_12  and  O_13
REMARK    8  A    between atoms: C_18  and  C_19
REMARK    9  A    between atoms: C_19  and  C_20
REMARK   10  A    between atoms: C_20  and  O_22
REMARK                            x       y       z     vdW  Elec       q    Type
REMARK                         _______ _______ _______ _____ _____    ______ ____
ROOT
ATOM      1  C   UNL     1       4.428   5.602  18.517  0.00  0.00    +0.000 A 
ATOM      2  C   UNL     1       3.238   6.219  18.991  0.00  0.00    +0.000 A 
ATOM      3  C   UNL     1       2.468   5.683  20.045  0.00  0.00    +0.000 A 
ATOM      4  C   UNL     1       1.274   6.392  20.614  0.00  0.00    +0.000 C 
ATOM      5  C   UNL     1       2.848   4.443  20.541  0.00  0.00    +0.000 A 
ATOM      6  C   UNL     1       3.941   3.792  20.018  0.00  0.00    +0.000 A 
ATOM      7  C   UNL     1       4.743   4.333  19.029  0.00  0.00    +0.000 A 
ATOM      8  C   UNL     1       4.072   2.505  20.671  0.00  0.00    +0.000 C 
ATOM      9  O   UNL     1       4.933   1.683  20.421  0.00  0.00    +0.000 OA
ATOM     10  O   UNL     1       3.061   2.410  21.580  0.00  0.00    +0.000 OA
ATOM     11  C   UNL     1       2.249   3.605  21.600  0.00  0.00    +0.000 C 
ENDROOT
BRANCH   2  12
ATOM     12  O   UNL     1       2.743   7.366  18.428  0.00  0.00    +0.000 OA
ATOM     13  H   UNL     1       2.513   7.185  17.501  0.00  0.00    +0.000 HD
ENDBRANCH   2  12
BRANCH   7  14
ATOM     14  O   UNL     1       5.822   3.650  18.538  0.00  0.00    +0.000 OA
ATOM     15  H   UNL     1       6.623   3.909  19.044  0.00  0.00    +0.000 HD
ENDBRANCH   7  14
BRANCH   1  16
ATOM     16  C   UNL     1       5.355   6.200  17.467  0.00  0.00    +0.000 C 
BRANCH  16  19
ATOM     17  C   UNL     1       7.221   4.570  15.568  0.00  0.00    +0.000 C 
ATOM     18  C   UNL     1       5.819   5.013  15.243  0.00  0.00    +0.000 C 
ATOM     19  C   UNL     1       5.053   5.776  16.051  0.00  0.00    +0.000 C 
BRANCH  18  20
ATOM     20  C   UNL     1       5.254   4.440  13.954  0.00  0.00    +0.000 C 
BRANCH  20  21
ATOM     21  C   UNL     1       6.276   3.735  13.066  0.00  0.00    +0.000 C 
BRANCH  21  22
ATOM     22  C   UNL     1       5.593   2.906  12.004  0.00  0.00    +0.000 C 
ATOM     23  O   UNL     1       4.511   3.150  11.501  0.00  0.00    +0.000 OA
BRANCH  22  24
ATOM     24  O   UNL     1       6.325   1.822  11.653  0.00  0.00    +0.000 OA
ATOM     25  H   UNL     1       6.513   1.218  12.396  0.00  0.00    +0.000 HD
ENDBRANCH  22  24
ENDBRANCH  21  22
ENDBRANCH  20  21
ENDBRANCH  18  20
ENDBRANCH  16  19
ENDBRANCH   1  16
TORSDOF 8
ENDMDL
MODEL 2
REMARK VINA RESULT:      -7.3      3.001      4.838
REMARK  Name = 
REMARK  10 active torsions:
REMARK  status: ('A' for Active; 'I' for Inactive)
REMARK    1  A    between atoms: C_1  and  C_2
REMARK    2  A    between atoms: C_2  and  C_18
REMARK    3  A    between atoms: C_3  and  C_4
REMARK    4  A    between atoms: C_4  and  C_5
REMARK    5  A    between atoms: C_6  and  O_7
REMARK    6  A    between atoms: C_8  and  C_9
REMARK    7  A    between atoms: C_12  and  O_13
REMARK    8  A    between atoms: C_18  and  C_19
REMARK    9  A    between atoms: C_19  and  C_20
REMARK   10  A    between atoms: C_20  and  O_22
REMARK                            x       y       z     vdW  Elec       q    Type
REMARK                         _______ _______ _______ _____ _____    ______ ____
ROOT
ATOM      1  C   UNL     1       4.014   5.562  17.766  0.00  0.00    +0.000 A 
ATOM      2  C   UNL     1       3.122   6.314  18.579  0.00  0.00    +0.000 A 
ATOM      3  C   UNL     1       2.329   5.726  19.587  0.00  0.00    +0.000 A 
ATOM      4  C   UNL     1       1.471   6.535  20.515  0.00  0.00    +0.000 C 
ATOM      5  C   UNL     1       2.356   4.341  19.687  0.00  0.00    +0.000 A 
ATOM      6  C   UNL     1       3.140   3.598  18.835  0.00  0.00    +0.000 A 
ATOM      7  C   UNL     1       3.972   4.164  17.886  0.00  0.00    +0.000 A 
ATOM      8  C   UNL     1       2.932   2.192  19.117  0.00  0.00    +0.000 C 
ATOM      9  O   UNL     1       3.471   1.278  18.524  0.00  0.00    +0.000 OA
ATOM     10  O   UNL     1       2.032   2.116  20.138  0.00  0.00    +0.000 OA
ATOM     11  C   UNL     1       1.632   3.427  20.594  0.00  0.00    +0.000 C 
ENDROOT
BRANCH   2  12
ATOM     12  O   UNL     1       2.953   7.664  18.413  0.00  0.00    +0.000 OA
ATOM     13  H   UNL     1       2.252   7.812  17.755  0.00  0.00    +0.000 HD
ENDBRANCH   2  12
BRANCH   7  14
ATOM     14  O   UNL     1       4.737   3.388  17.059  0.00  0.00    +0.000 OA
ATOM     15  H   UNL     1       4.299   3.323  16.183  0.00  0.00    +0.000 HD
ENDBRANCH   7  14
BRANCH   1  16
ATOM     16  C   UNL     1       4.976   6.165  16.750  0.00  0.00    +0.000 C 
BRANCH  16  19
ATOM     17  C   UNL     1       7.578   5.244  18.207  0.00  0.00    +0.000 C 
ATOM     18  C   UNL     1       7.202   6.672  17.917  0.00  0.00    +0.000 C 
ATOM     19  C   UNL     1       6.040   7.054  17.347  0.00  0.00    +0.000 C 
BRANCH  18  20
ATOM     20  C   UNL     1       8.291   7.690  18.214  0.00  0.00    +0.000 C 
BRANCH  20  21
ATOM     21  C   UNL     1       7.954   9.122  17.806  0.00  0.00    +0.000 C 
BRANCH  21  22
ATOM     22  C   UNL     1       8.839  10.113  18.527  0.00  0.00    +0.000 C 
ATOM     23  O   UNL     1       9.306   9.966  19.641  0.00  0.00    +0.000 OA
BRANCH  22  24
ATOM     24  O   UNL     1       9.067  11.224  17.787  0.00  0.00    +0.000 OA
ATOM     25  H   UNL     1       9.089  12.047  18.311  0.00  0.00    +0.000 HD
ENDBRANCH  22  24
ENDBRANCH  21  22
ENDBRANCH  20  21
ENDBRANCH  18  20
ENDBRANCH  16  19
ENDBRANCH   1  16
TORSDOF 8
ENDMDL
MODEL 3
REMARK VINA RESULT:      -7.2      3.074      5.358
REMARK  Name = 
REMARK  10 active torsions:
REMARK  status: ('A' for Active; 'I' for Inactive)
REMARK    1  A    between atoms: C_1  and  C_2
REMARK    2  A    between atoms: C_2  and  C_18
REMARK    3  A    between atoms: C_3  and  C_4
REMARK    4  A    between atoms: C_4  and  C_5
REMARK    5  A    between atoms: C_6  and  O_7
REMARK    6  A    between atoms: C_8  and  C_9
REMARK    7  A    between atoms: C_12  and  O_13
REMARK    8  A    between atoms: C_18  and  C_19
REMARK    9  A    between atoms: C_19  and  C_20
REMARK   10  A    between atoms: C_20  and  O_22
REMARK                            x       y       z     vdW  Elec       q    Type
REMARK                         _______ _______ _______ _____ _____    ______ ____
ROOT
ATOM      1  C   UNL     1       4.094   5.153  17.582  0.00  0.00    +0.000 A 
ATOM      2  C   UNL     1       4.234   3.738  17.535  0.00  0.00    +0.000 A 
ATOM      3  C   UNL     1       3.462   2.868  18.333  0.00  0.00    +0.000 A 
ATOM      4  C   UNL     1       3.534   1.375  18.203  0.00  0.00    +0.000 C 
ATOM      5  C   UNL     1       2.623   3.449  19.275  0.00  0.00    +0.000 A 
ATOM      6  C   UNL     1       2.558   4.818  19.396  0.00  0.00    +0.000 A 
ATOM      7  C   UNL     1       3.260   5.685  18.577  0.00  0.00    +0.000 A 
ATOM      8  C   UNL     1       1.661   5.147  20.486  0.00  0.00    +0.000 C 
ATOM      9  O   UNL     1       1.402   6.276  20.856  0.00  0.00    +0.000 OA
ATOM     10  O   UNL     1       1.197   3.971  20.994  0.00  0.00    +0.000 OA
ATOM     11  C   UNL     1       1.722   2.835  20.271  0.00  0.00    +0.000 C 
ENDROOT
BRANCH   2  12
ATOM     12  O   UNL     1       5.157   3.128  16.727  0.00  0.00    +0.000 OA
ATOM     13  H   UNL     1       4.917   2.190  16.632  0.00  0.00    +0.000 HD
ENDBRANCH   2  12
BRANCH   7  14
ATOM     14  O   UNL     1       3.165   7.041  18.732  0.00  0.00    +0.000 OA
ATOM     15  H   UNL     1       3.236   7.470  17.852  0.00  0.00    +0.000 HD
ENDBRANCH   7  14
BRANCH   1  16
ATOM     16  C   UNL     1       4.817   6.125  16.658  0.00  0.00    +0.000 C 
BRANCH  16  19
ATOM     17  C   UNL     1       7.568   5.115  17.733  0.00  0.00    +0.000 C 
ATOM     18  C   UNL     1       7.103   6.547  17.740  0.00  0.00    +0.000 C 
ATOM     19  C   UNL     1       5.882   6.955  17.334  0.00  0.00    +0.000 C 
BRANCH  18  20
ATOM     20  C   UNL     1       8.163   7.558  18.144  0.00  0.00    +0.000 C 
BRANCH  20  21
ATOM     21  C   UNL     1       7.907   8.981  17.653  0.00  0.00    +0.000 C 
BRANCH  21  22
ATOM     22  C   UNL     1       8.848   9.960  18.315  0.00  0.00    +0.000 C 
ATOM     23  O   UNL     1       9.308  10.962  17.799  0.00  0.00    +0.000 OA
BRANCH  22  24
ATOM     24  O   UNL     1       9.145   9.602  19.587  0.00  0.00    +0.000 OA
ATOM     25  H   UNL     1       8.454   9.837  20.234  0.00  0.00    +0.000 HD
ENDBRANCH  22  24
ENDBRANCH  21  22
ENDBRANCH  20  21
ENDBRANCH  18  20
ENDBRANCH  16  19
ENDBRANCH   1  16
TORSDOF 8
ENDMDL
MODEL 4
REMARK VINA RESULT:      -7.2      1.806      2.649
REMARK  Name = 
REMARK  10 active torsions:
REMARK  status: ('A' for Active; 'I' for Inactive)
REMARK    1  A    between atoms: C_1  and  C_2
REMARK    2  A    between atoms: C_2  and  C_18
REMARK    3  A    between atoms: C_3  and  C_4
REMARK    4  A    between atoms: C_4  and  C_5
REMARK    5  A    between atoms: C_6  and  O_7
REMARK    6  A    between atoms: C_8  and  C_9
REMARK    7  A    between atoms: C_12  and  O_13
REMARK    8  A    between atoms: C_18  and  C_19
REMARK    9  A    between atoms: C_19  and  C_20
REMARK   10  A    between atoms: C_20  and  O_22
REMARK                            x       y       z     vdW  Elec       q    Type
REMARK                         _______ _______ _______ _____ _____    ______ ____
ROOT
ATOM      1  C   UNL     1       4.976   4.560  16.579  0.00  0.00    +0.000 A 
ATOM      2  C   UNL     1       4.615   5.934  16.632  0.00  0.00    +0.000 A 
ATOM      3  C   UNL     1       3.736   6.455  17.605  0.00  0.00    +0.000 A 
ATOM      4  C   UNL     1       3.442   7.922  17.726  0.00  0.00    +0.000 C 
ATOM      5  C   UNL     1       3.125   5.546  18.459  0.00  0.00    +0.000 A 
ATOM      6  C   UNL     1       3.392   4.201  18.347  0.00  0.00    +0.000 A 
ATOM      7  C   UNL     1       4.300   3.683  17.441  0.00  0.00    +0.000 A 
ATOM      8  C   UNL     1       2.581   3.484  19.310  0.00  0.00    +0.000 C 
ATOM      9  O   UNL     1       2.576   2.276  19.451  0.00  0.00    +0.000 OA
ATOM     10  O   UNL     1       1.848   4.411  19.988  0.00  0.00    +0.000 OA
ATOM     11  C   UNL     1       2.147   5.753  19.546  0.00  0.00    +0.000 C 
ENDROOT
BRANCH   2  12
ATOM     12  O   UNL     1       5.078   6.841  15.715  0.00  0.00    +0.000 OA
ATOM     13  H   UNL     1       5.920   7.208  16.036  0.00  0.00    +0.000 HD
ENDBRANCH   2  12
BRANCH   7  14
ATOM     14  O   UNL     1       4.536   2.337  17.364  0.00  0.00    +0.000 OA
ATOM     15  H   UNL     1       4.274   1.917  18.212  0.00  0.00    +0.000 HD
ENDBRANCH   7  14
BRANCH   1  16
ATOM     16  C   UNL     1       6.009   3.973  15.626  0.00  0.00    +0.000 C 
BRANCH  16  19
ATOM     17  C   UNL     1       7.496   4.845  13.023  0.00  0.00    +0.000 C 
ATOM     18  C   UNL     1       6.185   4.107  13.072  0.00  0.00    +0.000 C 
ATOM     19  C   UNL     1       5.524   3.799  14.207  0.00  0.00    +0.000 C 
BRANCH  18  20
ATOM     20  C   UNL     1       5.683   3.614  11.724  0.00  0.00    +0.000 C 
BRANCH  20  21
ATOM     21  C   UNL     1       5.365   2.121  11.669  0.00  0.00    +0.000 C 
BRANCH  21  22
ATOM     22  C   UNL     1       6.562   1.330  11.196  0.00  0.00    +0.000 C 
ATOM     23  O   UNL     1       7.658   1.790  10.933  0.00  0.00    +0.000 OA
BRANCH  22  24
ATOM     24  O   UNL     1       6.288   0.008  11.084  0.00  0.00    +0.000 OA
ATOM     25  H   UNL     1       6.857  -0.459  10.444  0.00  0.00    +0.000 HD
ENDBRANCH  22  24
ENDBRANCH  21  22
ENDBRANCH  20  21
ENDBRANCH  18  20
ENDBRANCH  16  19
ENDBRANCH   1  16
TORSDOF 8
ENDMDL
MODEL 5
REMARK VINA RESULT:      -7.2      2.924      4.873
REMARK  Name = 
REMARK  10 active torsions:
REMARK  status: ('A' for Active; 'I' for Inactive)
REMARK    1  A    between atoms: C_1  and  C_2
REMARK    2  A    between atoms: C_2  and  C_18
REMARK    3  A    between atoms: C_3  and  C_4
REMARK    4  A    between atoms: C_4  and  C_5
REMARK    5  A    between atoms: C_6  and  O_7
REMARK    6  A    between atoms: C_8  and  C_9
REMARK    7  A    between atoms: C_12  and  O_13
REMARK    8  A    between atoms: C_18  and  C_19
REMARK    9  A    between atoms: C_19  and  C_20
REMARK   10  A    between atoms: C_20  and  O_22
REMARK                            x       y       z     vdW  Elec       q    Type
REMARK                         _______ _______ _______ _____ _____    ______ ____
ROOT
ATOM      1  C   UNL     1       4.167   5.459  18.040  0.00  0.00    +0.000 A 
ATOM      2  C   UNL     1       3.096   6.170  18.648  0.00  0.00    +0.000 A 
ATOM      3  C   UNL     1       2.478   5.744  19.842  0.00  0.00    +0.000 A 
ATOM      4  C   UNL     1       1.423   6.552  20.538  0.00  0.00    +0.000 C 
ATOM      5  C   UNL     1       2.873   4.517  20.358  0.00  0.00    +0.000 A 
ATOM      6  C   UNL     1       3.839   3.774  19.719  0.00  0.00    +0.000 A 
ATOM      7  C   UNL     1       4.500   4.208  18.583  0.00  0.00    +0.000 A 
ATOM      8  C   UNL     1       4.011   2.523  20.430  0.00  0.00    +0.000 C 
ATOM      9  O   UNL     1       4.783   1.641  20.108  0.00  0.00    +0.000 OA
ATOM     10  O   UNL     1       3.153   2.541  21.489  0.00  0.00    +0.000 OA
ATOM     11  C   UNL     1       2.410   3.779  21.551  0.00  0.00    +0.000 C 
ENDROOT
BRANCH   2  12
ATOM     12  O   UNL     1       2.574   7.307  18.091  0.00  0.00    +0.000 OA
ATOM     13  H   UNL     1       3.222   7.675  17.465  0.00  0.00    +0.000 HD
ENDBRANCH   2  12
BRANCH   7  14
ATOM     14  O   UNL     1       5.455   3.436  17.980  0.00  0.00    +0.000 OA
ATOM     15  H   UNL     1       6.275   3.460  18.520  0.00  0.00    +0.000 HD
ENDBRANCH   7  14
BRANCH   1  16
ATOM     16  C   UNL     1       4.945   5.939  16.821  0.00  0.00    +0.000 C 
BRANCH  16  19
ATOM     17  C   UNL     1       7.701   6.044  18.281  0.00  0.00    +0.000 C 
ATOM     18  C   UNL     1       7.016   7.215  17.630  0.00  0.00    +0.000 C 
ATOM     19  C   UNL     1       5.792   7.164  17.063  0.00  0.00    +0.000 C 
BRANCH  18  20
ATOM     20  C   UNL     1       7.856   8.478  17.547  0.00  0.00    +0.000 C 
BRANCH  20  21
ATOM     21  C   UNL     1       8.683   8.779  18.795  0.00  0.00    +0.000 C 
BRANCH  21  22
ATOM     22  C   UNL     1       9.055  10.242  18.859  0.00  0.00    +0.000 C 
ATOM     23  O   UNL     1       8.988  11.032  17.936  0.00  0.00    +0.000 OA
BRANCH  22  24
ATOM     24  O   UNL     1       9.492  10.603  20.089  0.00  0.00    +0.000 OA
ATOM     25  H   UNL     1      10.296  10.131  20.376  0.00  0.00    +0.000 HD
ENDBRANCH  22  24
ENDBRANCH  21  22
ENDBRANCH  20  21
ENDBRANCH  18  20
ENDBRANCH  16  19
ENDBRANCH   1  16
TORSDOF 8
ENDMDL
MODEL 6
REMARK VINA RESULT:      -7.1      1.269      1.769
REMARK  Name = 
REMARK  10 active torsions:
REMARK  status: ('A' for Active; 'I' for Inactive)
REMARK    1  A    between atoms: C_1  and  C_2
REMARK    2  A    between atoms: C_2  and  C_18
REMARK    3  A    between atoms: C_3  and  C_4
REMARK    4  A    between atoms: C_4  and  C_5
REMARK    5  A    between atoms: C_6  and  O_7
REMARK    6  A    between atoms: C_8  and  C_9
REMARK    7  A    between atoms: C_12  and  O_13
REMARK    8  A    between atoms: C_18  and  C_19
REMARK    9  A    between atoms: C_19  and  C_20
REMARK   10  A    between atoms: C_20  and  O_22
REMARK                            x       y       z     vdW  Elec       q    Type
REMARK                         _______ _______ _______ _____ _____    ______ ____
ROOT
ATOM      1  C   UNL     1       4.721   4.995  17.817  0.00  0.00    +0.000 A 
ATOM      2  C   UNL     1       3.962   6.195  17.743  0.00  0.00    +0.000 A 
ATOM      3  C   UNL     1       2.985   6.541  18.701  0.00  0.00    +0.000 A 
ATOM      4  C   UNL     1       2.264   7.856  18.680  0.00  0.00    +0.000 C 
ATOM      5  C   UNL     1       2.695   5.598  19.679  0.00  0.00    +0.000 A 
ATOM      6  C   UNL     1       3.355   4.391  19.697  0.00  0.00    +0.000 A 
ATOM      7  C   UNL     1       4.359   4.064  18.804  0.00  0.00    +0.000 A 
ATOM      8  C   UNL     1       2.817   3.583  20.774  0.00  0.00    +0.000 C 
ATOM      9  O   UNL     1       3.180   2.455  21.043  0.00  0.00    +0.000 OA
ATOM     10  O   UNL     1       1.851   4.323  21.387  0.00  0.00    +0.000 OA
ATOM     11  C   UNL     1       1.721   5.631  20.789  0.00  0.00    +0.000 C 
ENDROOT
BRANCH   2  12
ATOM     12  O   UNL     1       4.111   7.083  16.711  0.00  0.00    +0.000 OA
ATOM     13  H   UNL     1       5.061   7.215  16.547  0.00  0.00    +0.000 HD
ENDBRANCH   2  12
BRANCH   7  14
ATOM     14  O   UNL     1       4.990   2.851  18.859  0.00  0.00    +0.000 OA
ATOM     15  H   UNL     1       5.229   2.656  19.791  0.00  0.00    +0.000 HD
ENDBRANCH   7  14
BRANCH   1  16
ATOM     16  C   UNL     1       5.865   4.634  16.879  0.00  0.00    +0.000 C 
BRANCH  16  19
ATOM     17  C   UNL     1       7.379   5.055  14.181  0.00  0.00    +0.000 C 
ATOM     18  C   UNL     1       6.105   4.271  14.352  0.00  0.00    +0.000 C 
ATOM     19  C   UNL     1       5.428   4.158  15.514  0.00  0.00    +0.000 C 
BRANCH  18  20
ATOM     20  C   UNL     1       5.665   3.496  13.121  0.00  0.00    +0.000 C 
BRANCH  20  21
ATOM     21  C   UNL     1       6.652   3.530  11.958  0.00  0.00    +0.000 C 
BRANCH  21  22
ATOM     22  C   UNL     1       6.842   2.154  11.366  0.00  0.00    +0.000 C 
ATOM     23  O   UNL     1       7.855   1.746  10.829  0.00  0.00    +0.000 OA
BRANCH  22  24
ATOM     24  O   UNL     1       5.732   1.388  11.491  0.00  0.00    +0.000 OA
ATOM     25  H   UNL     1       5.259   1.515  12.335  0.00  0.00    +0.000 HD
ENDBRANCH  22  24
ENDBRANCH  21  22
ENDBRANCH  20  21
ENDBRANCH  18  20
ENDBRANCH  16  19
ENDBRANCH   1  16
TORSDOF 8
ENDMDL
MODEL 7
REMARK VINA RESULT:      -7.1      1.287      1.870
REMARK  Name = 
REMARK  10 active torsions:
REMARK  status: ('A' for Active; 'I' for Inactive)
REMARK    1  A    between atoms: C_1  and  C_2
REMARK    2  A    between atoms: C_2  and  C_18
REMARK    3  A    between atoms: C_3  and  C_4
REMARK    4  A    between atoms: C_4  and  C_5
REMARK    5  A    between atoms: C_6  and  O_7
REMARK    6  A    between atoms: C_8  and  C_9
REMARK    7  A    between atoms: C_12  and  O_13
REMARK    8  A    between atoms: C_18  and  C_19
REMARK    9  A    between atoms: C_19  and  C_20
REMARK   10  A    between atoms: C_20  and  O_22
REMARK                            x       y       z     vdW  Elec       q    Type
REMARK                         _______ _______ _______ _____ _____    ______ ____
ROOT
ATOM      1  C   UNL     1       5.005   4.936  17.846  0.00  0.00    +0.000 A 
ATOM      2  C   UNL     1       4.266   6.132  17.636  0.00  0.00    +0.000 A 
ATOM      3  C   UNL     1       3.206   6.532  18.478  0.00  0.00    +0.000 A 
ATOM      4  C   UNL     1       2.500   7.846  18.319  0.00  0.00    +0.000 C 
ATOM      5  C   UNL     1       2.818   5.644  19.473  0.00  0.00    +0.000 A 
ATOM      6  C   UNL     1       3.463   4.438  19.618  0.00  0.00    +0.000 A 
ATOM      7  C   UNL     1       4.545   4.060  18.842  0.00  0.00    +0.000 A 
ATOM      8  C   UNL     1       2.821   3.690  20.680  0.00  0.00    +0.000 C 
ATOM      9  O   UNL     1       3.148   2.577  21.043  0.00  0.00    +0.000 OA
ATOM     10  O   UNL     1       1.807   4.465  21.160  0.00  0.00    +0.000 OA
ATOM     11  C   UNL     1       1.744   5.739  20.483  0.00  0.00    +0.000 C 
ENDROOT
BRANCH   2  12
ATOM     12  O   UNL     1       4.518   6.964  16.577  0.00  0.00    +0.000 OA
ATOM     13  H   UNL     1       5.277   7.531  16.800  0.00  0.00    +0.000 HD
ENDBRANCH   2  12
BRANCH   7  14
ATOM     14  O   UNL     1       5.158   2.850  19.021  0.00  0.00    +0.000 OA
ATOM     15  H   UNL     1       5.103   2.600  19.968  0.00  0.00    +0.000 HD
ENDBRANCH   7  14
BRANCH   1  16
ATOM     16  C   UNL     1       6.230   4.522  17.039  0.00  0.00    +0.000 C 
BRANCH  16  19
ATOM     17  C   UNL     1       7.549   5.540  14.400  0.00  0.00    +0.000 C 
ATOM     18  C   UNL     1       6.536   4.431  14.496  0.00  0.00    +0.000 C 
ATOM     19  C   UNL     1       5.926   4.051  15.638  0.00  0.00    +0.000 C 
BRANCH  18  20
ATOM     20  C   UNL     1       6.311   3.662  13.204  0.00  0.00    +0.000 C 
BRANCH  20  21
ATOM     21  C   UNL     1       4.878   3.701  12.679  0.00  0.00    +0.000 C 
BRANCH  21  22
ATOM     22  C   UNL     1       4.702   2.759  11.512  0.00  0.00    +0.000 C 
ATOM     23  O   UNL     1       5.381   1.774  11.287  0.00  0.00    +0.000 OA
BRANCH  22  24
ATOM     24  O   UNL     1       3.678   3.130  10.706  0.00  0.00    +0.000 OA
ATOM     25  H   UNL     1       2.796   2.955  11.085  0.00  0.00    +0.000 HD
ENDBRANCH  22  24
ENDBRANCH  21  22
ENDBRANCH  20  21
ENDBRANCH  18  20
ENDBRANCH  16  19
ENDBRANCH   1  16
TORSDOF 8
ENDMDL
MODEL 8
REMARK VINA RESULT:      -7.0      1.203      3.118
REMARK  Name = 
REMARK  10 active torsions:
REMARK  status: ('A' for Active; 'I' for Inactive)
REMARK    1  A    between atoms: C_1  and  C_2
REMARK    2  A    between atoms: C_2  and  C_18
REMARK    3  A    between atoms: C_3  and  C_4
REMARK    4  A    between atoms: C_4  and  C_5
REMARK    5  A    between atoms: C_6  and  O_7
REMARK    6  A    between atoms: C_8  and  C_9
REMARK    7  A    between atoms: C_12  and  O_13
REMARK    8  A    between atoms: C_18  and  C_19
REMARK    9  A    between atoms: C_19  and  C_20
REMARK   10  A    between atoms: C_20  and  O_22
REMARK                            x       y       z     vdW  Elec       q    Type
REMARK                         _______ _______ _______ _____ _____    ______ ____
ROOT
ATOM      1  C   UNL     1       4.698   4.583  18.225  0.00  0.00    +0.000 A 
ATOM      2  C   UNL     1       4.338   3.617  19.204  0.00  0.00    +0.000 A 
ATOM      3  C   UNL     1       3.273   3.809  20.110  0.00  0.00    +0.000 A 
ATOM      4  C   UNL     1       2.826   2.744  21.068  0.00  0.00    +0.000 C 
ATOM      5  C   UNL     1       2.645   5.048  20.097  0.00  0.00    +0.000 A 
ATOM      6  C   UNL     1       3.056   6.025  19.220  0.00  0.00    +0.000 A 
ATOM      7  C   UNL     1       4.055   5.830  18.283  0.00  0.00    +0.000 A 
ATOM      8  C   UNL     1       2.279   7.224  19.462  0.00  0.00    +0.000 C 
ATOM      9  O   UNL     1       2.412   8.272  18.860  0.00  0.00    +0.000 OA
ATOM     10  O   UNL     1       1.411   6.943  20.474  0.00  0.00    +0.000 OA
ATOM     11  C   UNL     1       1.540   5.576  20.922  0.00  0.00    +0.000 C 
ENDROOT
BRANCH   2  12
ATOM     12  O   UNL     1       5.028   2.442  19.350  0.00  0.00    +0.000 OA
ATOM     13  H   UNL     1       4.727   2.003  20.165  0.00  0.00    +0.000 HD
ENDBRANCH   2  12
BRANCH   7  14
ATOM     14  O   UNL     1       4.431   6.830  17.428  0.00  0.00    +0.000 OA
ATOM     15  H   UNL     1       5.350   6.663  17.124  0.00  0.00    +0.000 HD
ENDBRANCH   7  14
BRANCH   1  16
ATOM     16  C   UNL     1       5.758   4.374  17.150  0.00  0.00    +0.000 C 
BRANCH  16  19
ATOM     17  C   UNL     1       7.224   5.002  14.467  0.00  0.00    +0.000 C 
ATOM     18  C   UNL     1       5.854   4.391  14.589  0.00  0.00    +0.000 C 
ATOM     19  C   UNL     1       5.208   4.190  15.757  0.00  0.00    +0.000 C 
BRANCH  18  20
ATOM     20  C   UNL     1       5.260   3.894  13.281  0.00  0.00    +0.000 C 
BRANCH  20  21
ATOM     21  C   UNL     1       6.260   3.230  12.338  0.00  0.00    +0.000 C 
BRANCH  21  22
ATOM     22  C   UNL     1       5.577   2.215  11.451  0.00  0.00    +0.000 C 
ATOM     23  O   UNL     1       6.063   1.166  11.069  0.00  0.00    +0.000 OA
BRANCH  22  24
ATOM     24  O   UNL     1       4.326   2.600  11.105  0.00  0.00    +0.000 OA
ATOM     25  H   UNL     1       4.043   2.278  10.228  0.00  0.00    +0.000 HD
ENDBRANCH  22  24
ENDBRANCH  21  22
ENDBRANCH  20  21
ENDBRANCH  18  20
ENDBRANCH  16  19
ENDBRANCH   1  16
TORSDOF 8
ENDMDL
MODEL 9
REMARK VINA RESULT:      -7.0      2.724      6.197
REMARK  Name = 
REMARK  10 active torsions:
REMARK  status: ('A' for Active; 'I' for Inactive)
REMARK    1  A    between atoms: C_1  and  C_2
REMARK    2  A    between atoms: C_2  and  C_18
REMARK    3  A    between atoms: C_3  and  C_4
REMARK    4  A    between atoms: C_4  and  C_5
REMARK    5  A    between atoms: C_6  and  O_7
REMARK    6  A    between atoms: C_8  and  C_9
REMARK    7  A    between atoms: C_12  and  O_13
REMARK    8  A    between atoms: C_18  and  C_19
REMARK    9  A    between atoms: C_19  and  C_20
REMARK   10  A    between atoms: C_20  and  O_22
REMARK                            x       y       z     vdW  Elec       q    Type
REMARK                         _______ _______ _______ _____ _____    ______ ____
ROOT
ATOM      1  C   UNL     1       3.611   4.187  17.082  0.00  0.00    +0.000 A 
ATOM      2  C   UNL     1       3.111   5.442  17.528  0.00  0.00    +0.000 A 
ATOM      3  C   UNL     1       3.888   6.620  17.518  0.00  0.00    +0.000 A 
ATOM      4  C   UNL     1       3.326   7.961  17.886  0.00  0.00    +0.000 C 
ATOM      5  C   UNL     1       5.225   6.494  17.164  0.00  0.00    +0.000 A 
ATOM      6  C   UNL     1       5.742   5.264  16.828  0.00  0.00    +0.000 A 
ATOM      7  C   UNL     1       4.978   4.112  16.771  0.00  0.00    +0.000 A 
ATOM      8  C   UNL     1       7.159   5.411  16.565  0.00  0.00    +0.000 C 
ATOM      9  O   UNL     1       7.906   4.502  16.257  0.00  0.00    +0.000 OA
ATOM     10  O   UNL     1       7.466   6.727  16.739  0.00  0.00    +0.000 OA
ATOM     11  C   UNL     1       6.300   7.505  17.086  0.00  0.00    +0.000 C 
ENDROOT
BRANCH   2  12
ATOM     12  O   UNL     1       1.843   5.581  18.027  0.00  0.00    +0.000 OA
ATOM     13  H   UNL     1       1.626   4.791  18.552  0.00  0.00    +0.000 HD
ENDBRANCH   2  12
BRANCH   7  14
ATOM     14  O   UNL     1       5.533   2.909  16.431  0.00  0.00    +0.000 OA
ATOM     15  H   UNL     1       5.824   2.943  15.494  0.00  0.00    +0.000 HD
ENDBRANCH   7  14
BRANCH   1  16
ATOM     16  C   UNL     1       2.778   2.917  16.960  0.00  0.00    +0.000 C 
BRANCH  16  19
ATOM     17  C   UNL     1       4.190   2.157  19.638  0.00  0.00    +0.000 C 
ATOM     18  C   UNL     1       2.701   2.219  19.426  0.00  0.00    +0.000 C 
ATOM     19  C   UNL     1       2.109   2.483  18.242  0.00  0.00    +0.000 C 
BRANCH  18  20
ATOM     20  C   UNL     1       1.871   2.069  20.690  0.00  0.00    +0.000 C 
BRANCH  20  21
ATOM     21  C   UNL     1       2.024   3.211  21.693  0.00  0.00    +0.000 C 
BRANCH  21  22
ATOM     22  C   UNL     1       1.804   4.549  21.028  0.00  0.00    +0.000 C 
ATOM     23  O   UNL     1       2.627   5.443  20.943  0.00  0.00    +0.000 OA
BRANCH  22  24
ATOM     24  O   UNL     1       0.554   4.667  20.518  0.00  0.00    +0.000 OA
ATOM     25  H   UNL     1       0.092   3.815  20.409  0.00  0.00    +0.000 HD
ENDBRANCH  22  24
ENDBRANCH  21  22
ENDBRANCH  20  21
ENDBRANCH  18  20
ENDBRANCH  16  19
ENDBRANCH   1  16
TORSDOF 8
ENDMDL
