MODEL 1
REMARK VINA RESULT:      -8.7      0.000      0.000
REMARK  Name = 
REMARK  3 active torsions:
REMARK  status: ('A' for Active; 'I' for Inactive)
REMARK    1  A    between atoms: C_2  and  C_3
REMARK    2  A    between atoms: C_3  and  C_4
REMARK    3  A    between atoms: C_3  and  N_10
REMARK                            x       y       z     vdW  Elec       q    Type
REMARK                         _______ _______ _______ _____ _____    ______ ____
ROOT
ATOM      1  C   UNL     1       3.098   5.813  18.608  0.00  0.00    +0.000 C 
ENDROOT
BRANCH   1   2
ATOM      2  N   UNL     1       2.719   7.086  19.313  0.00  0.00    +0.000 NA
ATOM      3  C   UNL     1       1.830   6.849  20.457  0.00  0.00    +0.000 C 
ATOM      4  C   UNL     1       1.459   8.127  21.211  0.00  0.00    +0.000 C 
ATOM      5  C   UNL     1       0.889   9.140  20.280  0.00  0.00    +0.000 A 
ATOM      6  C   UNL     1      -0.042  10.079  20.679  0.00  0.00    +0.000 A 
ATOM      7  N   UNL     1      -0.545  11.019  19.861  0.00  0.00    +0.000 NA
ATOM      8  C   UNL     1      -0.070  11.001  18.606  0.00  0.00    +0.000 A 
ATOM      9  N   UNL     1       0.832  10.140  18.109  0.00  0.00    +0.000 NA
ATOM     10  C   UNL     1       1.305   9.202  18.966  0.00  0.00    +0.000 A 
ATOM     11  C   UNL     1       2.255   8.153  18.399  0.00  0.00    +0.000 C 
ENDBRANCH   1   2
BRANCH   1  13
ATOM     12  O   UNL     1       5.265   5.503  19.733  0.00  0.00    +0.000 OA
ATOM     13  C   UNL     1       4.682   5.666  18.649  0.00  0.00    +0.000 C 
ATOM     14  N   UNL     1       5.452   5.798  17.505  0.00  0.00    +0.000 N 
ATOM     15  C   UNL     1       4.997   6.102  16.154  0.00  0.00    +0.000 C 
ATOM     16  C   UNL     1       5.533   5.069  15.156  0.00  0.00    +0.000 C 
ATOM     17  C   UNL     1       7.035   4.794  15.308  0.00  0.00    +0.000 C 
ATOM     18  C   UNL     1       7.446   4.589  16.762  0.00  0.00    +0.000 C 
ATOM     19  C   UNL     1       6.905   5.709  17.640  0.00  0.00    +0.000 C 
ENDBRANCH   1  13
BRANCH   1  20
ATOM     20  C   UNL     1       2.352   4.529  19.072  0.00  0.00    +0.000 A 
ATOM     21  C   UNL     1       2.524   3.949  20.343  0.00  0.00    +0.000 A 
ATOM     22  C   UNL     1       1.907   2.745  20.697  0.00  0.00    +0.000 A 
ATOM     23  C   UNL     1       1.051   2.113  19.806  0.00  0.00    +0.000 A 
ATOM     24  C   UNL     1       0.810   2.689  18.565  0.00  0.00    +0.000 A 
ATOM     25  C   UNL     1       1.465   3.873  18.196  0.00  0.00    +0.000 A 
ENDBRANCH   1  20
TORSDOF 3
ENDMDL
MODEL 2
REMARK VINA RESULT:      -8.2      1.431      4.707
REMARK  Name = 
REMARK  3 active torsions:
REMARK  status: ('A' for Active; 'I' for Inactive)
REMARK    1  A    between atoms: C_2  and  C_3
REMARK    2  A    between atoms: C_3  and  C_4
REMARK    3  A    between atoms: C_3  and  N_10
REMARK                            x       y       z     vdW  Elec       q    Type
REMARK                         _______ _______ _______ _____ _____    ______ ____
ROOT
ATOM      1  C   UNL     1       4.812   5.362  18.167  0.00  0.00    +0.000 C 
ENDROOT
BRANCH   1   2
ATOM      2  N   UNL     1       3.566   6.203  18.166  0.00  0.00    +0.000 NA
ATOM      3  C   UNL     1       3.766   7.501  17.510  0.00  0.00    +0.000 C 
ATOM      4  C   UNL     1       2.500   8.359  17.467  0.00  0.00    +0.000 C 
ATOM      5  C   UNL     1       1.930   8.523  18.833  0.00  0.00    +0.000 A 
ATOM      6  C   UNL     1       1.217   9.643  19.213  0.00  0.00    +0.000 A 
ATOM      7  N   UNL     1       0.669   9.795  20.430  0.00  0.00    +0.000 NA
ATOM      8  C   UNL     1       0.847   8.766  21.272  0.00  0.00    +0.000 A 
ATOM      9  N   UNL     1       1.518   7.632  21.012  0.00  0.00    +0.000 NA
ATOM     10  C   UNL     1       2.062   7.525  19.776  0.00  0.00    +0.000 A 
ATOM     11  C   UNL     1       2.911   6.291  19.491  0.00  0.00    +0.000 C 
ENDBRANCH   1   2
BRANCH   1  13
ATOM     12  O   UNL     1       5.279   3.522  19.733  0.00  0.00    +0.000 OA
ATOM     13  C   UNL     1       4.490   3.984  18.893  0.00  0.00    +0.000 C 
ATOM     14  N   UNL     1       3.380   3.228  18.554  0.00  0.00    +0.000 N 
ATOM     15  C   UNL     1       2.386   3.515  17.526  0.00  0.00    +0.000 C 
ATOM     16  C   UNL     1       0.969   3.456  18.111  0.00  0.00    +0.000 C 
ATOM     17  C   UNL     1       0.709   2.205  18.960  0.00  0.00    +0.000 C 
ATOM     18  C   UNL     1       1.844   1.917  19.938  0.00  0.00    +0.000 C 
ATOM     19  C   UNL     1       3.189   1.944  19.227  0.00  0.00    +0.000 C 
ENDBRANCH   1  13
BRANCH   1  20
ATOM     20  C   UNL     1       5.511   5.180  16.789  0.00  0.00    +0.000 A 
ATOM     21  C   UNL     1       4.870   4.636  15.660  0.00  0.00    +0.000 A 
ATOM     22  C   UNL     1       5.552   4.402  14.462  0.00  0.00    +0.000 A 
ATOM     23  C   UNL     1       6.888   4.760  14.339  0.00  0.00    +0.000 A 
ATOM     24  C   UNL     1       7.536   5.355  15.414  0.00  0.00    +0.000 A 
ATOM     25  C   UNL     1       6.862   5.548  16.629  0.00  0.00    +0.000 A 
ENDBRANCH   1  20
TORSDOF 3
ENDMDL
MODEL 3
REMARK VINA RESULT:      -7.7      1.437      4.483
REMARK  Name = 
REMARK  3 active torsions:
REMARK  status: ('A' for Active; 'I' for Inactive)
REMARK    1  A    between atoms: C_2  and  C_3
REMARK    2  A    between atoms: C_3  and  C_4
REMARK    3  A    between atoms: C_3  and  N_10
REMARK                            x       y       z     vdW  Elec       q    Type
REMARK                         _______ _______ _______ _____ _____    ______ ____
ROOT
ATOM      1  C   UNL     1       4.581   5.779  18.309  0.00  0.00    +0.000 C 
ENDROOT
BRANCH   1   2
ATOM      2  N   UNL     1       3.280   6.528  18.379  0.00  0.00    +0.000 NA
ATOM      3  C   UNL     1       3.308   7.773  17.600  0.00  0.00    +0.000 C 
ATOM      4  C   UNL     1       1.982   8.534  17.628  0.00  0.00    +0.000 C 
ATOM      5  C   UNL     1       1.547   8.781  19.031  0.00  0.00    +0.000 A 
ATOM      6  C   UNL     1       0.793   9.879  19.396  0.00  0.00    +0.000 A 
ATOM      7  N   UNL     1       0.366  10.102  20.650  0.00  0.00    +0.000 NA
ATOM      8  C   UNL     1       0.710   9.166  21.548  0.00  0.00    +0.000 A 
ATOM      9  N   UNL     1       1.436   8.062  21.308  0.00  0.00    +0.000 NA
ATOM     10  C   UNL     1       1.855   7.883  20.033  0.00  0.00    +0.000 A 
ATOM     11  C   UNL     1       2.763   6.690  19.756  0.00  0.00    +0.000 C 
ENDBRANCH   1   2
BRANCH   1  13
ATOM     12  O   UNL     1       5.534   4.466  20.160  0.00  0.00    +0.000 OA
ATOM     13  C   UNL     1       4.560   4.628  19.408  0.00  0.00    +0.000 C 
ATOM     14  N   UNL     1       3.505   3.735  19.501  0.00  0.00    +0.000 N 
ATOM     15  C   UNL     1       2.318   3.665  18.658  0.00  0.00    +0.000 C 
ATOM     16  C   UNL     1       1.044   3.670  19.512  0.00  0.00    +0.000 C 
ATOM     17  C   UNL     1       1.089   2.680  20.684  0.00  0.00    +0.000 C 
ATOM     18  C   UNL     1       2.406   2.745  21.452  0.00  0.00    +0.000 C 
ATOM     19  C   UNL     1       3.591   2.670  20.500  0.00  0.00    +0.000 C 
ENDBRANCH   1  13
BRANCH   1  20
ATOM     20  C   UNL     1       5.000   5.270  16.900  0.00  0.00    +0.000 A 
ATOM     21  C   UNL     1       5.225   3.914  16.599  0.00  0.00    +0.000 A 
ATOM     22  C   UNL     1       5.688   3.500  15.346  0.00  0.00    +0.000 A 
ATOM     23  C   UNL     1       5.885   4.429  14.334  0.00  0.00    +0.000 A 
ATOM     24  C   UNL     1       5.613   5.770  14.577  0.00  0.00    +0.000 A 
ATOM     25  C   UNL     1       5.193   6.188  15.848  0.00  0.00    +0.000 A 
ENDBRANCH   1  20
TORSDOF 3
ENDMDL
MODEL 4
REMARK VINA RESULT:      -7.3      2.938      7.074
REMARK  Name = 
REMARK  3 active torsions:
REMARK  status: ('A' for Active; 'I' for Inactive)
REMARK    1  A    between atoms: C_2  and  C_3
REMARK    2  A    between atoms: C_3  and  C_4
REMARK    3  A    between atoms: C_3  and  N_10
REMARK                            x       y       z     vdW  Elec       q    Type
REMARK                         _______ _______ _______ _____ _____    ______ ____
ROOT
ATOM      1  C   UNL     1       4.011   4.544  17.681  0.00  0.00    +0.000 C 
ENDROOT
BRANCH   1   2
ATOM      2  N   UNL     1       5.275   4.458  16.873  0.00  0.00    +0.000 NA
ATOM      3  C   UNL     1       5.956   5.754  16.758  0.00  0.00    +0.000 C 
ATOM      4  C   UNL     1       7.264   5.683  15.968  0.00  0.00    +0.000 C 
ATOM      5  C   UNL     1       7.038   5.067  14.630  0.00  0.00    +0.000 A 
ATOM      6  C   UNL     1       7.798   5.388  13.523  0.00  0.00    +0.000 A 
ATOM      7  N   UNL     1       7.629   4.822  12.317  0.00  0.00    +0.000 NA
ATOM      8  C   UNL     1       6.663   3.893  12.251  0.00  0.00    +0.000 A 
ATOM      9  N   UNL     1       5.865   3.501  13.257  0.00  0.00    +0.000 NA
ATOM     10  C   UNL     1       6.064   4.106  14.453  0.00  0.00    +0.000 A 
ATOM     11  C   UNL     1       5.107   3.749  15.585  0.00  0.00    +0.000 C 
ENDBRANCH   1   2
BRANCH   1  13
ATOM     12  O   UNL     1       5.325   3.541  19.504  0.00  0.00    +0.000 OA
ATOM     13  C   UNL     1       4.198   3.680  19.004  0.00  0.00    +0.000 C 
ATOM     14  N   UNL     1       3.138   2.999  19.580  0.00  0.00    +0.000 N 
ATOM     15  C   UNL     1       1.761   2.926  19.106  0.00  0.00    +0.000 C 
ATOM     16  C   UNL     1       0.783   3.309  20.222  0.00  0.00    +0.000 C 
ATOM     17  C   UNL     1       1.068   2.605  21.555  0.00  0.00    +0.000 C 
ATOM     18  C   UNL     1       2.546   2.637  21.928  0.00  0.00    +0.000 C 
ATOM     19  C   UNL     1       3.408   2.178  20.760  0.00  0.00    +0.000 C 
ENDBRANCH   1  13
BRANCH   1  20
ATOM     20  C   UNL     1       3.477   5.979  17.959  0.00  0.00    +0.000 A 
ATOM     21  C   UNL     1       2.809   6.343  19.144  0.00  0.00    +0.000 A 
ATOM     22  C   UNL     1       2.262   7.617  19.324  0.00  0.00    +0.000 A 
ATOM     23  C   UNL     1       2.417   8.587  18.344  0.00  0.00    +0.000 A 
ATOM     24  C   UNL     1       3.124   8.281  17.187  0.00  0.00    +0.000 A 
ATOM     25  C   UNL     1       3.633   6.989  16.989  0.00  0.00    +0.000 A 
ENDBRANCH   1  20
TORSDOF 3
ENDMDL
MODEL 5
REMARK VINA RESULT:      -7.2      1.690      6.564
REMARK  Name = 
REMARK  3 active torsions:
REMARK  status: ('A' for Active; 'I' for Inactive)
REMARK    1  A    between atoms: C_2  and  C_3
REMARK    2  A    between atoms: C_3  and  C_4
REMARK    3  A    between atoms: C_3  and  N_10
REMARK                            x       y       z     vdW  Elec       q    Type
REMARK                         _______ _______ _______ _____ _____    ______ ____
ROOT
ATOM      1  C   UNL     1       2.737   6.820  19.482  0.00  0.00    +0.000 C 
ENDROOT
BRANCH   1   2
ATOM      2  N   UNL     1       3.979   6.893  18.639  0.00  0.00    +0.000 NA
ATOM      3  C   UNL     1       3.693   6.752  17.206  0.00  0.00    +0.000 C 
ATOM      4  C   UNL     1       4.940   6.859  16.327  0.00  0.00    +0.000 C 
ATOM      5  C   UNL     1       5.981   5.891  16.771  0.00  0.00    +0.000 A 
ATOM      6  C   UNL     1       6.897   5.331  15.902  0.00  0.00    +0.000 A 
ATOM      7  N   UNL     1       7.862   4.480  16.289  0.00  0.00    +0.000 NA
ATOM      8  C   UNL     1       7.894   4.208  17.603  0.00  0.00    +0.000 A 
ATOM      9  N   UNL     1       7.059   4.693  18.536  0.00  0.00    +0.000 NA
ATOM     10  C   UNL     1       6.095   5.539  18.100  0.00  0.00    +0.000 A 
ATOM     11  C   UNL     1       5.075   6.024  19.124  0.00  0.00    +0.000 C 
ENDBRANCH   1   2
BRANCH   1  13
ATOM     12  O   UNL     1       1.488   8.234  17.902  0.00  0.00    +0.000 OA
ATOM     13  C   UNL     1       1.788   8.035  19.089  0.00  0.00    +0.000 C 
ATOM     14  N   UNL     1       1.343   8.942  20.037  0.00  0.00    +0.000 N 
ATOM     15  C   UNL     1       1.657   8.972  21.460  0.00  0.00    +0.000 C 
ATOM     16  C   UNL     1       0.375   9.032  22.298  0.00  0.00    +0.000 C 
ATOM     17  C   UNL     1      -0.624  10.091  21.813  0.00  0.00    +0.000 C 
ATOM     18  C   UNL     1      -0.819  10.060  20.300  0.00  0.00    +0.000 C 
ATOM     19  C   UNL     1       0.523  10.065  19.583  0.00  0.00    +0.000 C 
ENDBRANCH   1  13
BRANCH   1  20
ATOM     20  C   UNL     1       2.002   5.449  19.494  0.00  0.00    +0.000 A 
ATOM     21  C   UNL     1       1.567   4.811  20.671  0.00  0.00    +0.000 A 
ATOM     22  C   UNL     1       0.989   3.537  20.654  0.00  0.00    +0.000 A 
ATOM     23  C   UNL     1       0.778   2.885  19.447  0.00  0.00    +0.000 A 
ATOM     24  C   UNL     1       1.139   3.510  18.260  0.00  0.00    +0.000 A 
ATOM     25  C   UNL     1       1.759   4.769  18.284  0.00  0.00    +0.000 A 
ENDBRANCH   1  20
TORSDOF 3
ENDMDL
MODEL 6
REMARK VINA RESULT:      -7.1      1.290      1.868
REMARK  Name = 
REMARK  3 active torsions:
REMARK  status: ('A' for Active; 'I' for Inactive)
REMARK    1  A    between atoms: C_2  and  C_3
REMARK    2  A    between atoms: C_3  and  C_4
REMARK    3  A    between atoms: C_3  and  N_10
REMARK                            x       y       z     vdW  Elec       q    Type
REMARK                         _______ _______ _______ _____ _____    ______ ____
ROOT
ATOM      1  C   UNL     1       2.680   5.749  17.865  0.00  0.00    +0.000 C 
ENDROOT
BRANCH   1   2
ATOM      2  N   UNL     1       1.838   6.913  18.309  0.00  0.00    +0.000 NA
ATOM      3  C   UNL     1       2.253   8.175  17.684  0.00  0.00    +0.000 C 
ATOM      4  C   UNL     1       1.387   9.367  18.095  0.00  0.00    +0.000 C 
ATOM      5  C   UNL     1       1.330   9.488  19.579  0.00  0.00    +0.000 A 
ATOM      6  C   UNL     1       1.170  10.700  20.222  0.00  0.00    +0.000 A 
ATOM      7  N   UNL     1       1.086  10.825  21.557  0.00  0.00    +0.000 NA
ATOM      8  C   UNL     1       1.152   9.676  22.246  0.00  0.00    +0.000 A 
ATOM      9  N   UNL     1       1.305   8.446  21.729  0.00  0.00    +0.000 NA
ATOM     10  C   UNL     1       1.396   8.367  20.380  0.00  0.00    +0.000 A 
ATOM     11  C   UNL     1       1.668   6.994  19.776  0.00  0.00    +0.000 C 
ENDBRANCH   1   2
BRANCH   1  13
ATOM     12  O   UNL     1       4.447   6.304  19.485  0.00  0.00    +0.000 OA
ATOM     13  C   UNL     1       4.185   6.018  18.306  0.00  0.00    +0.000 C 
ATOM     14  N   UNL     1       5.220   6.021  17.386  0.00  0.00    +0.000 N 
ATOM     15  C   UNL     1       5.133   5.823  15.944  0.00  0.00    +0.000 C 
ATOM     16  C   UNL     1       6.102   4.726  15.488  0.00  0.00    +0.000 C 
ATOM     17  C   UNL     1       7.519   4.885  16.055  0.00  0.00    +0.000 C 
ATOM     18  C   UNL     1       7.518   5.191  17.549  0.00  0.00    +0.000 C 
ATOM     19  C   UNL     1       6.566   6.336  17.865  0.00  0.00    +0.000 C 
ENDBRANCH   1  13
BRANCH   1  20
ATOM     20  C   UNL     1       2.164   4.340  18.274  0.00  0.00    +0.000 A 
ATOM     21  C   UNL     1       1.247   4.123  19.320  0.00  0.00    +0.000 A 
ATOM     22  C   UNL     1       0.872   2.837  19.722  0.00  0.00    +0.000 A 
ATOM     23  C   UNL     1       1.362   1.727  19.049  0.00  0.00    +0.000 A 
ATOM     24  C   UNL     1       2.222   1.905  17.973  0.00  0.00    +0.000 A 
ATOM     25  C   UNL     1       2.632   3.194  17.600  0.00  0.00    +0.000 A 
ENDBRANCH   1  20
TORSDOF 3
ENDMDL
MODEL 7
REMARK VINA RESULT:      -7.1      1.064      1.105
REMARK  Name = 
REMARK  3 active torsions:
REMARK  status: ('A' for Active; 'I' for Inactive)
REMARK    1  A    between atoms: C_2  and  C_3
REMARK    2  A    between atoms: C_3  and  C_4
REMARK    3  A    between atoms: C_3  and  N_10
REMARK                            x       y       z     vdW  Elec       q    Type
REMARK                         _______ _______ _______ _____ _____    ______ ____
ROOT
ATOM      1  C   UNL     1       2.992   6.392  18.012  0.00  0.00    +0.000 C 
ENDROOT
BRANCH   1   2
ATOM      2  N   UNL     1       2.594   7.514  18.931  0.00  0.00    +0.000 NA
ATOM      3  C   UNL     1       1.871   7.037  20.117  0.00  0.00    +0.000 C 
ATOM      4  C   UNL     1       1.487   8.159  21.084  0.00  0.00    +0.000 C 
ATOM      5  C   UNL     1       0.727   9.226  20.375  0.00  0.00    +0.000 A 
ATOM      6  C   UNL     1      -0.225  10.005  21.004  0.00  0.00    +0.000 A 
ATOM      7  N   UNL     1      -0.899  10.991  20.389  0.00  0.00    +0.000 NA
ATOM      8  C   UNL     1      -0.577  11.191  19.102  0.00  0.00    +0.000 A 
ATOM      9  N   UNL     1       0.328  10.498  18.392  0.00  0.00    +0.000 NA
ATOM     10  C   UNL     1       0.976   9.506  19.048  0.00  0.00    +0.000 A 
ATOM     11  C   UNL     1       1.936   8.643  18.237  0.00  0.00    +0.000 C 
ENDBRANCH   1   2
BRANCH   1  13
ATOM     12  O   UNL     1       5.158   7.559  18.036  0.00  0.00    +0.000 OA
ATOM     13  C   UNL     1       4.501   6.620  17.562  0.00  0.00    +0.000 C 
ATOM     14  N   UNL     1       5.089   5.839  16.581  0.00  0.00    +0.000 N 
ATOM     15  C   UNL     1       4.478   4.762  15.812  0.00  0.00    +0.000 C 
ATOM     16  C   UNL     1       5.330   3.489  15.889  0.00  0.00    +0.000 C 
ATOM     17  C   UNL     1       6.821   3.734  15.625  0.00  0.00    +0.000 C 
ATOM     18  C   UNL     1       7.358   4.941  16.388  0.00  0.00    +0.000 C 
ATOM     19  C   UNL     1       6.461   6.153  16.182  0.00  0.00    +0.000 C 
ENDBRANCH   1  13
BRANCH   1  20
ATOM     20  C   UNL     1       2.721   4.953  18.538  0.00  0.00    +0.000 A 
ATOM     21  C   UNL     1       3.563   4.288  19.448  0.00  0.00    +0.000 A 
ATOM     22  C   UNL     1       3.339   2.961  19.831  0.00  0.00    +0.000 A 
ATOM     23  C   UNL     1       2.229   2.277  19.357  0.00  0.00    +0.000 A 
ATOM     24  C   UNL     1       1.342   2.924  18.504  0.00  0.00    +0.000 A 
ATOM     25  C   UNL     1       1.593   4.239  18.087  0.00  0.00    +0.000 A 
ENDBRANCH   1  20
TORSDOF 3
ENDMDL
MODEL 8
REMARK VINA RESULT:      -6.9      3.146      8.542
REMARK  Name = 
REMARK  3 active torsions:
REMARK  status: ('A' for Active; 'I' for Inactive)
REMARK    1  A    between atoms: C_2  and  C_3
REMARK    2  A    between atoms: C_3  and  C_4
REMARK    3  A    between atoms: C_3  and  N_10
REMARK                            x       y       z     vdW  Elec       q    Type
REMARK                         _______ _______ _______ _____ _____    ______ ____
ROOT
ATOM      1  C   UNL     1      -0.485  10.595  19.832  0.00  0.00    +0.000 C 
ENDROOT
BRANCH   1   2
ATOM      2  N   UNL     1       0.816   9.910  19.519  0.00  0.00    +0.000 NA
ATOM      3  C   UNL     1       1.023   9.732  18.076  0.00  0.00    +0.000 C 
ATOM      4  C   UNL     1       2.358   9.068  17.734  0.00  0.00    +0.000 C 
ATOM      5  C   UNL     1       2.508   7.780  18.467  0.00  0.00    +0.000 A 
ATOM      6  C   UNL     1       3.235   6.718  17.967  0.00  0.00    +0.000 A 
ATOM      7  N   UNL     1       3.406   5.561  18.627  0.00  0.00    +0.000 NA
ATOM      8  C   UNL     1       2.829   5.499  19.837  0.00  0.00    +0.000 A 
ATOM      9  N   UNL     1       2.104   6.466  20.422  0.00  0.00    +0.000 NA
ATOM     10  C   UNL     1       1.947   7.612  19.716  0.00  0.00    +0.000 A 
ATOM     11  C   UNL     1       1.047   8.685  20.317  0.00  0.00    +0.000 C 
ENDBRANCH   1   2
BRANCH   1  13
ATOM     12  O   UNL     1       0.500  12.849  19.757  0.00  0.00    +0.000 OA
ATOM     13  C   UNL     1      -0.167  12.038  20.420  0.00  0.00    +0.000 C 
ATOM     14  N   UNL     1      -0.548  12.398  21.702  0.00  0.00    +0.000 N 
ATOM     15  C   UNL     1      -1.235  11.578  22.692  0.00  0.00    +0.000 C 
ATOM     16  C   UNL     1      -2.477  12.299  23.227  0.00  0.00    +0.000 C 
ATOM     17  C   UNL     1      -2.212  13.755  23.635  0.00  0.00    +0.000 C 
ATOM     18  C   UNL     1      -1.400  14.514  22.591  0.00  0.00    +0.000 C 
ATOM     19  C   UNL     1      -0.164  13.724  22.188  0.00  0.00    +0.000 C 
ENDBRANCH   1  13
BRANCH   1  20
ATOM     20  C   UNL     1      -1.535  10.620  18.683  0.00  0.00    +0.000 A 
ATOM     21  C   UNL     1      -1.455   9.801  17.541  0.00  0.00    +0.000 A 
ATOM     22  C   UNL     1      -2.365   9.912  16.485  0.00  0.00    +0.000 A 
ATOM     23  C   UNL     1      -3.421  10.809  16.566  0.00  0.00    +0.000 A 
ATOM     24  C   UNL     1      -3.566  11.590  17.707  0.00  0.00    +0.000 A 
ATOM     25  C   UNL     1      -2.626  11.509  18.745  0.00  0.00    +0.000 A 
ENDBRANCH   1  20
TORSDOF 3
ENDMDL
MODEL 9
REMARK VINA RESULT:      -6.9      1.430      1.917
REMARK  Name = 
REMARK  3 active torsions:
REMARK  status: ('A' for Active; 'I' for Inactive)
REMARK    1  A    between atoms: C_2  and  C_3
REMARK    2  A    between atoms: C_3  and  C_4
REMARK    3  A    between atoms: C_3  and  N_10
REMARK                            x       y       z     vdW  Elec       q    Type
REMARK                         _______ _______ _______ _____ _____    ______ ____
ROOT
ATOM      1  C   UNL     1       2.975   6.037  17.780  0.00  0.00    +0.000 C 
ENDROOT
BRANCH   1   2
ATOM      2  N   UNL     1       2.703   7.076  18.832  0.00  0.00    +0.000 NA
ATOM      3  C   UNL     1       1.854   6.566  19.916  0.00  0.00    +0.000 C 
ATOM      4  C   UNL     1       1.593   7.596  21.016  0.00  0.00    +0.000 C 
ATOM      5  C   UNL     1       1.041   8.853  20.438  0.00  0.00    +0.000 A 
ATOM      6  C   UNL     1       0.186   9.682  21.137  0.00  0.00    +0.000 A 
ATOM      7  N   UNL     1      -0.298  10.834  20.644  0.00  0.00    +0.000 NA
ATOM      8  C   UNL     1       0.118  11.149  19.408  0.00  0.00    +0.000 A 
ATOM      9  N   UNL     1       0.945  10.423  18.638  0.00  0.00    +0.000 NA
ATOM     10  C   UNL     1       1.400   9.264  19.171  0.00  0.00    +0.000 A 
ATOM     11  C   UNL     1       2.261   8.375  18.280  0.00  0.00    +0.000 C 
ENDBRANCH   1   2
BRANCH   1  13
ATOM     12  O   UNL     1       4.405   7.043  16.048  0.00  0.00    +0.000 OA
ATOM     13  C   UNL     1       4.370   6.371  17.090  0.00  0.00    +0.000 C 
ATOM     14  N   UNL     1       5.560   5.858  17.579  0.00  0.00    +0.000 N 
ATOM     15  C   UNL     1       5.747   4.962  18.713  0.00  0.00    +0.000 C 
ATOM     16  C   UNL     1       6.783   5.531  19.690  0.00  0.00    +0.000 C 
ATOM     17  C   UNL     1       8.067   6.017  19.006  0.00  0.00    +0.000 C 
ATOM     18  C   UNL     1       7.785   6.863  17.769  0.00  0.00    +0.000 C 
ATOM     19  C   UNL     1       6.792   6.165  16.851  0.00  0.00    +0.000 C 
ENDBRANCH   1  13
BRANCH   1  20
ATOM     20  C   UNL     1       2.859   4.555  18.240  0.00  0.00    +0.000 A 
ATOM     21  C   UNL     1       2.918   4.154  19.587  0.00  0.00    +0.000 A 
ATOM     22  C   UNL     1       2.901   2.806  19.961  0.00  0.00    +0.000 A 
ATOM     23  C   UNL     1       2.766   1.818  18.996  0.00  0.00    +0.000 A 
ATOM     24  C   UNL     1       2.644   2.180  17.660  0.00  0.00    +0.000 A 
ATOM     25  C   UNL     1       2.707   3.530  17.285  0.00  0.00    +0.000 A 
ENDBRANCH   1  20
TORSDOF 3
ENDMDL
