MODEL 1
REMARK VINA RESULT:      -7.5      0.000      0.000
REMARK  Name = 
REMARK  7 active torsions:
REMARK  status: ('A' for Active; 'I' for Inactive)
REMARK    1  A    between atoms: C_1  and  O_2
REMARK    2  A    between atoms: O_2  and  C_3
REMARK    3  A    between atoms: C_6  and  N_7
REMARK    4  A    between atoms: C_11  and  C_12
REMARK    5  A    between atoms: C_12  and  C_13
REMARK    6  A    between atoms: C_12  and  N_16
REMARK    7  A    between atoms: N_26  and  C_27
REMARK                            x       y       z     vdW  Elec       q    Type
REMARK                         _______ _______ _______ _____ _____    ______ ____
ROOT
ATOM      1  N   UNL     1      -2.309  12.143  20.247  0.00  0.00    +0.000 NA
ATOM      2  C   UNL     1      -1.503  11.864  21.441  0.00  0.00    +0.000 C 
ATOM      3  C   UNL     1      -0.852  13.068  22.130  0.00  0.00    +0.000 C 
ATOM      4  C   UNL     1      -1.790  14.289  22.278  0.00  0.00    +0.000 C 
ATOM      5  C   UNL     1      -2.543  14.542  20.987  0.00  0.00    +0.000 C 
ATOM      6  C   UNL     1      -3.210  13.270  20.453  0.00  0.00    +0.000 C 
ATOM      7  C   UNL     1      -0.884  15.500  22.592  0.00  0.00    +0.000 C 
ATOM      8  O   UNL     1      -0.188  16.153  21.834  0.00  0.00    +0.000 OA
ATOM      9  N   UNL     1      -0.962  15.738  23.947  0.00  0.00    +0.000 N 
ATOM     10  C   UNL     1      -1.797  14.811  24.632  0.00  0.00    +0.000 C 
ATOM     11  N   UNL     1      -2.587  14.191  23.557  0.00  0.00    +0.000 N 
ATOM     12  H   UNL     1      -0.398  16.454  24.383  0.00  0.00    +0.000 HD
ENDROOT
BRANCH  11  13
ATOM     13  C   UNL     1      -3.948  14.053  23.766  0.00  0.00    +0.000 A 
ATOM     14  C   UNL     1      -4.900  15.080  23.652  0.00  0.00    +0.000 A 
ATOM     15  C   UNL     1      -6.291  14.904  23.730  0.00  0.00    +0.000 A 
ATOM     16  C   UNL     1      -6.794  13.643  23.994  0.00  0.00    +0.000 A 
ATOM     17  C   UNL     1      -5.900  12.596  24.193  0.00  0.00    +0.000 A 
ATOM     18  C   UNL     1      -4.508  12.811  24.082  0.00  0.00    +0.000 A 
ENDBRANCH  11  13
BRANCH   1  19
ATOM     19  C   UNL     1      -1.782  11.941  18.863  0.00  0.00    +0.000 C 
BRANCH  19  24
ATOM     20  N   UNL     1       0.830  11.584  18.888  0.00  0.00    +0.000 N 
ATOM     21  N   UNL     1       1.866  12.472  18.914  0.00  0.00    +0.000 NA
ATOM     22  N   UNL     1       1.388  13.632  18.528  0.00  0.00    +0.000 NA
ATOM     23  N   UNL     1       0.048  13.564  18.402  0.00  0.00    +0.000 NA
ATOM     24  C   UNL     1      -0.336  12.329  18.673  0.00  0.00    +0.000 A 
BRANCH  20  28
ATOM     25  C   UNL     1       2.066   7.554  19.540  0.00  0.00    +0.000 A 
ATOM     26  C   UNL     1       1.456   8.295  20.541  0.00  0.00    +0.000 A 
ATOM     27  C   UNL     1       1.040   9.608  20.281  0.00  0.00    +0.000 A 
ATOM     28  C   UNL     1       1.178  10.206  19.007  0.00  0.00    +0.000 A 
ATOM     29  C   UNL     1       1.779   9.461  17.994  0.00  0.00    +0.000 A 
ATOM     30  C   UNL     1       2.231   8.150  18.276  0.00  0.00    +0.000 A 
BRANCH  25  32
ATOM     31  C   UNL     1       1.912   5.381  20.554  0.00  0.00    +0.000 C 
ATOM     32  O   UNL     1       2.568   6.291  19.671  0.00  0.00    +0.000 OA
ENDBRANCH  25  32
ENDBRANCH  20  28
ENDBRANCH  19  24
BRANCH  19  33
ATOM     33  C   UNL     1      -2.107  10.499  18.503  0.00  0.00    +0.000 C 
ATOM     34  C   UNL     1      -3.310  10.179  17.635  0.00  0.00    +0.000 C 
ATOM     35  C   UNL     1      -1.924   9.940  17.114  0.00  0.00    +0.000 C 
ENDBRANCH  19  33
ENDBRANCH   1  19
TORSDOF 6
ENDMDL
MODEL 2
REMARK VINA RESULT:      -7.4      3.819      6.899
REMARK  Name = 
REMARK  7 active torsions:
REMARK  status: ('A' for Active; 'I' for Inactive)
REMARK    1  A    between atoms: C_1  and  O_2
REMARK    2  A    between atoms: O_2  and  C_3
REMARK    3  A    between atoms: C_6  and  N_7
REMARK    4  A    between atoms: C_11  and  C_12
REMARK    5  A    between atoms: C_12  and  C_13
REMARK    6  A    between atoms: C_12  and  N_16
REMARK    7  A    between atoms: N_26  and  C_27
REMARK                            x       y       z     vdW  Elec       q    Type
REMARK                         _______ _______ _______ _____ _____    ______ ____
ROOT
ATOM      1  N   UNL     1       1.108  12.956  19.957  0.00  0.00    +0.000 NA
ATOM      2  C   UNL     1       1.916  13.750  20.889  0.00  0.00    +0.000 C 
ATOM      3  C   UNL     1       3.256  14.278  20.363  0.00  0.00    +0.000 C 
ATOM      4  C   UNL     1       3.180  14.870  18.936  0.00  0.00    +0.000 C 
ATOM      5  C   UNL     1       2.377  13.964  18.025  0.00  0.00    +0.000 C 
ATOM      6  C   UNL     1       1.027  13.580  18.643  0.00  0.00    +0.000 C 
ATOM      7  C   UNL     1       4.634  14.958  18.424  0.00  0.00    +0.000 C 
ATOM      8  O   UNL     1       5.351  14.071  17.994  0.00  0.00    +0.000 OA
ATOM      9  N   UNL     1       5.041  16.269  18.550  0.00  0.00    +0.000 N 
ATOM     10  C   UNL     1       4.049  17.111  19.125  0.00  0.00    +0.000 C 
ATOM     11  N   UNL     1       2.808  16.333  18.991  0.00  0.00    +0.000 N 
ATOM     12  H   UNL     1       5.987  16.543  18.327  0.00  0.00    +0.000 HD
ENDROOT
BRANCH  11  13
ATOM     13  C   UNL     1       1.686  16.998  18.528  0.00  0.00    +0.000 A 
ATOM     14  C   UNL     1       1.610  17.737  17.335  0.00  0.00    +0.000 A 
ATOM     15  C   UNL     1       0.434  18.293  16.804  0.00  0.00    +0.000 A 
ATOM     16  C   UNL     1      -0.746  18.169  17.514  0.00  0.00    +0.000 A 
ATOM     17  C   UNL     1      -0.723  17.514  18.740  0.00  0.00    +0.000 A 
ATOM     18  C   UNL     1       0.476  16.948  19.227  0.00  0.00    +0.000 A 
ENDBRANCH  11  13
BRANCH   1  19
ATOM     19  C   UNL     1       1.076  11.462  20.002  0.00  0.00    +0.000 C 
BRANCH  19  24
ATOM     20  N   UNL     1      -0.553  11.272  22.066  0.00  0.00    +0.000 N 
ATOM     21  N   UNL     1      -0.410  10.668  23.281  0.00  0.00    +0.000 NA
ATOM     22  N   UNL     1       0.575   9.808  23.169  0.00  0.00    +0.000 NA
ATOM     23  N   UNL     1       1.178   9.943  21.971  0.00  0.00    +0.000 NA
ATOM     24  C   UNL     1       0.542  10.878  21.287  0.00  0.00    +0.000 A 
BRANCH  20  28
ATOM     25  C   UNL     1      -4.272  13.331  21.721  0.00  0.00    +0.000 A 
ATOM     26  C   UNL     1      -3.741  13.001  22.958  0.00  0.00    +0.000 A 
ATOM     27  C   UNL     1      -2.502  12.347  23.032  0.00  0.00    +0.000 A 
ATOM     28  C   UNL     1      -1.738  12.043  21.881  0.00  0.00    +0.000 A 
ATOM     29  C   UNL     1      -2.264  12.384  20.636  0.00  0.00    +0.000 A 
ATOM     30  C   UNL     1      -3.531  13.010  20.569  0.00  0.00    +0.000 A 
BRANCH  25  32
ATOM     31  C   UNL     1      -6.467  13.199  20.751  0.00  0.00    +0.000 C 
ATOM     32  O   UNL     1      -5.487  13.915  21.501  0.00  0.00    +0.000 OA
ENDBRANCH  25  32
ENDBRANCH  20  28
ENDBRANCH  19  24
BRANCH  19  33
ATOM     33  C   UNL     1       0.336  11.026  18.746  0.00  0.00    +0.000 C 
ATOM     34  C   UNL     1       0.741   9.757  18.020  0.00  0.00    +0.000 C 
ATOM     35  C   UNL     1      -0.588   9.833  18.712  0.00  0.00    +0.000 C 
ENDBRANCH  19  33
ENDBRANCH   1  19
TORSDOF 6
ENDMDL
MODEL 3
REMARK VINA RESULT:      -7.1      3.797      7.097
REMARK  Name = 
REMARK  7 active torsions:
REMARK  status: ('A' for Active; 'I' for Inactive)
REMARK    1  A    between atoms: C_1  and  O_2
REMARK    2  A    between atoms: O_2  and  C_3
REMARK    3  A    between atoms: C_6  and  N_7
REMARK    4  A    between atoms: C_11  and  C_12
REMARK    5  A    between atoms: C_12  and  C_13
REMARK    6  A    between atoms: C_12  and  N_16
REMARK    7  A    between atoms: N_26  and  C_27
REMARK                            x       y       z     vdW  Elec       q    Type
REMARK                         _______ _______ _______ _____ _____    ______ ____
ROOT
ATOM      1  N   UNL     1       1.195  12.969  19.930  0.00  0.00    +0.000 NA
ATOM      2  C   UNL     1       1.937  13.840  20.849  0.00  0.00    +0.000 C 
ATOM      3  C   UNL     1       3.275  14.392  20.346  0.00  0.00    +0.000 C 
ATOM      4  C   UNL     1       3.232  14.910  18.888  0.00  0.00    +0.000 C 
ATOM      5  C   UNL     1       2.499  13.928  17.996  0.00  0.00    +0.000 C 
ATOM      6  C   UNL     1       1.142  13.522  18.583  0.00  0.00    +0.000 C 
ATOM      7  C   UNL     1       4.701  15.029  18.425  0.00  0.00    +0.000 C 
ATOM      8  O   UNL     1       5.466  14.150  18.068  0.00  0.00    +0.000 OA
ATOM      9  N   UNL     1       5.053  16.360  18.499  0.00  0.00    +0.000 N 
ATOM     10  C   UNL     1       4.009  17.190  18.994  0.00  0.00    +0.000 C 
ATOM     11  N   UNL     1       2.803  16.357  18.854  0.00  0.00    +0.000 N 
ATOM     12  H   UNL     1       5.996  16.659  18.297  0.00  0.00    +0.000 HD
ENDROOT
BRANCH  11  13
ATOM     13  C   UNL     1       1.676  16.954  18.318  0.00  0.00    +0.000 A 
ATOM     14  C   UNL     1       0.386  16.908  18.871  0.00  0.00    +0.000 A 
ATOM     15  C   UNL     1      -0.722  17.629  18.397  0.00  0.00    +0.000 A 
ATOM     16  C   UNL     1      -0.580  18.411  17.266  0.00  0.00    +0.000 A 
ATOM     17  C   UNL     1       0.655  18.440  16.626  0.00  0.00    +0.000 A 
ATOM     18  C   UNL     1       1.751  17.719  17.150  0.00  0.00    +0.000 A 
ENDBRANCH  11  13
BRANCH   1  19
ATOM     19  C   UNL     1       1.218  11.479  20.050  0.00  0.00    +0.000 C 
BRANCH  19  24
ATOM     20  N   UNL     1      -0.491  11.415  22.057  0.00  0.00    +0.000 N 
ATOM     21  N   UNL     1      -0.439  10.796  23.272  0.00  0.00    +0.000 NA
ATOM     22  N   UNL     1       0.475   9.858  23.186  0.00  0.00    +0.000 NA
ATOM     23  N   UNL     1       1.126   9.947  22.010  0.00  0.00    +0.000 NA
ATOM     24  C   UNL     1       0.594  10.935  21.312  0.00  0.00    +0.000 A 
BRANCH  20  28
ATOM     25  C   UNL     1      -3.669  14.083  21.073  0.00  0.00    +0.000 A 
ATOM     26  C   UNL     1      -3.333  13.023  20.245  0.00  0.00    +0.000 A 
ATOM     27  C   UNL     1      -2.299  12.151  20.616  0.00  0.00    +0.000 A 
ATOM     28  C   UNL     1      -1.601  12.283  21.838  0.00  0.00    +0.000 A 
ATOM     29  C   UNL     1      -1.944  13.341  22.679  0.00  0.00    +0.000 A 
ATOM     30  C   UNL     1      -2.963  14.238  22.280  0.00  0.00    +0.000 A 
BRANCH  25  32
ATOM     31  C   UNL     1      -5.869  14.959  21.481  0.00  0.00    +0.000 C 
ATOM     32  O   UNL     1      -4.612  15.036  20.810  0.00  0.00    +0.000 OA
ENDBRANCH  25  32
ENDBRANCH  20  28
ENDBRANCH  19  24
BRANCH  19  33
ATOM     33  C   UNL     1       0.611  10.950  18.759  0.00  0.00    +0.000 C 
ATOM     34  C   UNL     1       1.181   9.709  18.097  0.00  0.00    +0.000 C 
ATOM     35  C   UNL     1      -0.195   9.676  18.694  0.00  0.00    +0.000 C 
ENDBRANCH  19  33
ENDBRANCH   1  19
TORSDOF 6
ENDMDL
MODEL 4
REMARK VINA RESULT:      -7.0      3.663      9.812
REMARK  Name = 
REMARK  7 active torsions:
REMARK  status: ('A' for Active; 'I' for Inactive)
REMARK    1  A    between atoms: C_1  and  O_2
REMARK    2  A    between atoms: O_2  and  C_3
REMARK    3  A    between atoms: C_6  and  N_7
REMARK    4  A    between atoms: C_11  and  C_12
REMARK    5  A    between atoms: C_12  and  C_13
REMARK    6  A    between atoms: C_12  and  N_16
REMARK    7  A    between atoms: N_26  and  C_27
REMARK                            x       y       z     vdW  Elec       q    Type
REMARK                         _______ _______ _______ _____ _____    ______ ____
ROOT
ATOM      1  N   UNL     1       1.812   7.940  19.907  0.00  0.00    +0.000 NA
ATOM      2  C   UNL     1       1.987   6.737  20.730  0.00  0.00    +0.000 C 
ATOM      3  C   UNL     1       1.850   5.388  20.016  0.00  0.00    +0.000 C 
ATOM      4  C   UNL     1       2.574   5.325  18.650  0.00  0.00    +0.000 C 
ATOM      5  C   UNL     1       2.298   6.577  17.842  0.00  0.00    +0.000 C 
ATOM      6  C   UNL     1       2.551   7.852  18.655  0.00  0.00    +0.000 C 
ATOM      7  C   UNL     1       2.001   4.097  17.909  0.00  0.00    +0.000 C 
ATOM      8  O   UNL     1       0.936   3.981  17.327  0.00  0.00    +0.000 OA
ATOM      9  N   UNL     1       2.917   3.074  18.028  0.00  0.00    +0.000 N 
ATOM     10  C   UNL     1       4.059   3.431  18.798  0.00  0.00    +0.000 C 
ATOM     11  N   UNL     1       4.012   4.901  18.834  0.00  0.00    +0.000 N 
ATOM     12  H   UNL     1       2.718   2.153  17.666  0.00  0.00    +0.000 HD
ENDROOT
BRANCH  11  13
ATOM     13  C   UNL     1       5.193   5.582  18.594  0.00  0.00    +0.000 A 
ATOM     14  C   UNL     1       6.367   5.474  19.358  0.00  0.00    +0.000 A 
ATOM     15  C   UNL     1       7.601   6.059  19.030  0.00  0.00    +0.000 A 
ATOM     16  C   UNL     1       7.686   6.856  17.903  0.00  0.00    +0.000 A 
ATOM     17  C   UNL     1       6.539   7.065  17.144  0.00  0.00    +0.000 A 
ATOM     18  C   UNL     1       5.323   6.437  17.496  0.00  0.00    +0.000 A 
ENDBRANCH  11  13
BRANCH   1  19
ATOM     19  C   UNL     1       0.533   8.713  19.887  0.00  0.00    +0.000 C 
BRANCH  19  24
ATOM     20  N   UNL     1       0.312  10.689  21.618  0.00  0.00    +0.000 N 
ATOM     21  N   UNL     1       0.160  10.693  22.974  0.00  0.00    +0.000 NA
ATOM     22  N   UNL     1      -0.263   9.499  23.317  0.00  0.00    +0.000 NA
ATOM     23  N   UNL     1      -0.243   8.673  22.252  0.00  0.00    +0.000 NA
ATOM     24  C   UNL     1       0.162   9.361  21.199  0.00  0.00    +0.000 A 
BRANCH  20  28
ATOM     25  C   UNL     1       0.613  14.399  19.537  0.00  0.00    +0.000 A 
ATOM     26  C   UNL     1      -0.598  13.947  20.037  0.00  0.00    +0.000 A 
ATOM     27  C   UNL     1      -0.653  12.734  20.739  0.00  0.00    +0.000 A 
ATOM     28  C   UNL     1       0.502  11.960  21.001  0.00  0.00    +0.000 A 
ATOM     29  C   UNL     1       1.723  12.418  20.511  0.00  0.00    +0.000 A 
ATOM     30  C   UNL     1       1.763  13.623  19.771  0.00  0.00    +0.000 A 
BRANCH  25  32
ATOM     31  C   UNL     1      -0.269  16.468  18.689  0.00  0.00    +0.000 C 
ATOM     32  O   UNL     1       0.800  15.528  18.791  0.00  0.00    +0.000 OA
ENDBRANCH  25  32
ENDBRANCH  20  28
ENDBRANCH  19  24
BRANCH  19  33
ATOM     33  C   UNL     1       0.648   9.672  18.712  0.00  0.00    +0.000 C 
ATOM     34  C   UNL     1      -0.015   9.343  17.387  0.00  0.00    +0.000 C 
ATOM     35  C   UNL     1      -0.512  10.496  18.209  0.00  0.00    +0.000 C 
ENDBRANCH  19  33
ENDBRANCH   1  19
TORSDOF 6
ENDMDL
MODEL 5
REMARK VINA RESULT:      -7.0      3.747      6.874
REMARK  Name = 
REMARK  7 active torsions:
REMARK  status: ('A' for Active; 'I' for Inactive)
REMARK    1  A    between atoms: C_1  and  O_2
REMARK    2  A    between atoms: O_2  and  C_3
REMARK    3  A    between atoms: C_6  and  N_7
REMARK    4  A    between atoms: C_11  and  C_12
REMARK    5  A    between atoms: C_12  and  C_13
REMARK    6  A    between atoms: C_12  and  N_16
REMARK    7  A    between atoms: N_26  and  C_27
REMARK                            x       y       z     vdW  Elec       q    Type
REMARK                         _______ _______ _______ _____ _____    ______ ____
ROOT
ATOM      1  N   UNL     1       0.985  13.216  20.137  0.00  0.00    +0.000 NA
ATOM      2  C   UNL     1       1.335  14.081  21.270  0.00  0.00    +0.000 C 
ATOM      3  C   UNL     1       2.691  14.793  21.201  0.00  0.00    +0.000 C 
ATOM      4  C   UNL     1       3.004  15.413  19.818  0.00  0.00    +0.000 C 
ATOM      5  C   UNL     1       2.667  14.437  18.709  0.00  0.00    +0.000 C 
ATOM      6  C   UNL     1       1.253  13.862  18.859  0.00  0.00    +0.000 C 
ATOM      7  C   UNL     1       4.520  15.704  19.805  0.00  0.00    +0.000 C 
ATOM      8  O   UNL     1       5.448  14.930  19.645  0.00  0.00    +0.000 OA
ATOM      9  N   UNL     1       4.687  17.053  20.037  0.00  0.00    +0.000 N 
ATOM     10  C   UNL     1       3.459  17.741  20.247  0.00  0.00    +0.000 C 
ATOM     11  N   UNL     1       2.443  16.812  19.727  0.00  0.00    +0.000 N 
ATOM     12  H   UNL     1       5.609  17.454  20.130  0.00  0.00    +0.000 HD
ENDROOT
BRANCH  11  13
ATOM     13  C   UNL     1       1.454  17.340  18.915  0.00  0.00    +0.000 A 
ATOM     14  C   UNL     1       1.654  17.887  17.637  0.00  0.00    +0.000 A 
ATOM     15  C   UNL     1       0.631  18.293  16.764  0.00  0.00    +0.000 A 
ATOM     16  C   UNL     1      -0.683  18.213  17.187  0.00  0.00    +0.000 A 
ATOM     17  C   UNL     1      -0.943  17.750  18.473  0.00  0.00    +0.000 A 
ATOM     18  C   UNL     1       0.113  17.328  19.310  0.00  0.00    +0.000 A 
ENDBRANCH  11  13
BRANCH   1  19
ATOM     19  C   UNL     1       1.139  11.730  20.191  0.00  0.00    +0.000 C 
BRANCH  19  24
ATOM     20  N   UNL     1      -0.615  11.442  22.138  0.00  0.00    +0.000 N 
ATOM     21  N   UNL     1      -0.561  10.748  23.311  0.00  0.00    +0.000 NA
ATOM     22  N   UNL     1       0.405   9.867  23.192  0.00  0.00    +0.000 NA
ATOM     23  N   UNL     1       1.081  10.069  22.044  0.00  0.00    +0.000 NA
ATOM     24  C   UNL     1       0.513  11.071  21.396  0.00  0.00    +0.000 A 
BRANCH  20  28
ATOM     25  C   UNL     1      -3.905  14.003  21.239  0.00  0.00    +0.000 A 
ATOM     26  C   UNL     1      -3.474  13.038  20.342  0.00  0.00    +0.000 A 
ATOM     27  C   UNL     1      -2.405  12.197  20.684  0.00  0.00    +0.000 A 
ATOM     28  C   UNL     1      -1.765  12.262  21.943  0.00  0.00    +0.000 A 
ATOM     29  C   UNL     1      -2.204  13.223  22.853  0.00  0.00    +0.000 A 
ATOM     30  C   UNL     1      -3.258  14.092  22.485  0.00  0.00    +0.000 A 
BRANCH  25  32
ATOM     31  C   UNL     1      -5.862  14.651  20.003  0.00  0.00    +0.000 C 
ATOM     32  O   UNL     1      -4.892  14.920  21.015  0.00  0.00    +0.000 OA
ENDBRANCH  25  32
ENDBRANCH  20  28
ENDBRANCH  19  24
BRANCH  19  33
ATOM     33  C   UNL     1       0.640  11.214  18.850  0.00  0.00    +0.000 C 
ATOM     34  C   UNL     1       1.250   9.969  18.233  0.00  0.00    +0.000 C 
ATOM     35  C   UNL     1      -0.172   9.949  18.710  0.00  0.00    +0.000 C 
ENDBRANCH  19  33
ENDBRANCH   1  19
TORSDOF 6
ENDMDL
MODEL 6
REMARK VINA RESULT:      -6.9      3.061      4.966
REMARK  Name = 
REMARK  7 active torsions:
REMARK  status: ('A' for Active; 'I' for Inactive)
REMARK    1  A    between atoms: C_1  and  O_2
REMARK    2  A    between atoms: O_2  and  C_3
REMARK    3  A    between atoms: C_6  and  N_7
REMARK    4  A    between atoms: C_11  and  C_12
REMARK    5  A    between atoms: C_12  and  C_13
REMARK    6  A    between atoms: C_12  and  N_16
REMARK    7  A    between atoms: N_26  and  C_27
REMARK                            x       y       z     vdW  Elec       q    Type
REMARK                         _______ _______ _______ _____ _____    ______ ____
ROOT
ATOM      1  N   UNL     1      -0.874  13.198  18.963  0.00  0.00    +0.000 NA
ATOM      2  C   UNL     1      -1.433  13.978  20.074  0.00  0.00    +0.000 C 
ATOM      3  C   UNL     1      -0.438  14.515  21.109  0.00  0.00    +0.000 C 
ATOM      4  C   UNL     1       0.840  15.130  20.490  0.00  0.00    +0.000 C 
ATOM      5  C   UNL     1       1.383  14.237  19.392  0.00  0.00    +0.000 C 
ATOM      6  C   UNL     1       0.297  13.842  18.385  0.00  0.00    +0.000 C 
ATOM      7  C   UNL     1       1.874  15.228  21.633  0.00  0.00    +0.000 C 
ATOM      8  O   UNL     1       2.560  14.348  22.123  0.00  0.00    +0.000 OA
ATOM      9  N   UNL     1       1.895  16.537  22.065  0.00  0.00    +0.000 N 
ATOM     10  C   UNL     1       0.967  17.369  21.377  0.00  0.00    +0.000 C 
ATOM     11  N   UNL     1       0.623  16.591  20.176  0.00  0.00    +0.000 N 
ATOM     12  H   UNL     1       2.462  16.815  22.853  0.00  0.00    +0.000 HD
ENDROOT
BRANCH  11  13
ATOM     13  C   UNL     1       0.606  17.263  18.966  0.00  0.00    +0.000 A 
ATOM     14  C   UNL     1       1.709  17.440  18.115  0.00  0.00    +0.000 A 
ATOM     15  C   UNL     1       1.655  18.001  16.829  0.00  0.00    +0.000 A 
ATOM     16  C   UNL     1       0.446  18.477  16.355  0.00  0.00    +0.000 A 
ATOM     17  C   UNL     1      -0.671  18.400  17.180  0.00  0.00    +0.000 A 
ATOM     18  C   UNL     1      -0.579  17.806  18.459  0.00  0.00    +0.000 A 
ENDBRANCH  11  13
BRANCH   1  19
ATOM     19  C   UNL     1      -0.905  11.703  18.944  0.00  0.00    +0.000 C 
BRANCH  19  24
ATOM     20  N   UNL     1       0.093   9.872  20.557  0.00  0.00    +0.000 N 
ATOM     21  N   UNL     1      -0.226   9.520  21.836  0.00  0.00    +0.000 NA
ATOM     22  N   UNL     1      -0.903  10.519  22.352  0.00  0.00    +0.000 NA
ATOM     23  N   UNL     1      -1.169  11.441  21.405  0.00  0.00    +0.000 NA
ATOM     24  C   UNL     1      -0.617  11.045  20.271  0.00  0.00    +0.000 A 
BRANCH  20  28
ATOM     25  C   UNL     1       2.743   7.394  18.315  0.00  0.00    +0.000 A 
ATOM     26  C   UNL     1       2.199   8.548  17.771  0.00  0.00    +0.000 A 
ATOM     27  C   UNL     1       1.352   9.351  18.549  0.00  0.00    +0.000 A 
ATOM     28  C   UNL     1       1.059   9.054  19.900  0.00  0.00    +0.000 A 
ATOM     29  C   UNL     1       1.614   7.902  20.453  0.00  0.00    +0.000 A 
ATOM     30  C   UNL     1       2.437   7.077  19.651  0.00  0.00    +0.000 A 
BRANCH  25  32
ATOM     31  C   UNL     1       3.191   5.111  17.713  0.00  0.00    +0.000 C 
ATOM     32  O   UNL     1       3.534   6.496  17.657  0.00  0.00    +0.000 OA
ENDBRANCH  25  32
ENDBRANCH  20  28
ENDBRANCH  19  24
BRANCH  19  33
ATOM     33  C   UNL     1      -2.241  11.326  18.321  0.00  0.00    +0.000 C 
ATOM     34  C   UNL     1      -2.310  10.868  16.876  0.00  0.00    +0.000 C 
ATOM     35  C   UNL     1      -2.615   9.903  17.984  0.00  0.00    +0.000 C 
ENDBRANCH  19  33
ENDBRANCH   1  19
TORSDOF 6
ENDMDL
MODEL 7
REMARK VINA RESULT:      -6.9      3.966      5.452
REMARK  Name = 
REMARK  7 active torsions:
REMARK  status: ('A' for Active; 'I' for Inactive)
REMARK    1  A    between atoms: C_1  and  O_2
REMARK    2  A    between atoms: O_2  and  C_3
REMARK    3  A    between atoms: C_6  and  N_7
REMARK    4  A    between atoms: C_11  and  C_12
REMARK    5  A    between atoms: C_12  and  C_13
REMARK    6  A    between atoms: C_12  and  N_16
REMARK    7  A    between atoms: N_26  and  C_27
REMARK                            x       y       z     vdW  Elec       q    Type
REMARK                         _______ _______ _______ _____ _____    ______ ____
ROOT
ATOM      1  N   UNL     1       0.497  12.894  19.547  0.00  0.00    +0.000 NA
ATOM      2  C   UNL     1       1.267  13.534  20.619  0.00  0.00    +0.000 C 
ATOM      3  C   UNL     1       2.665  14.045  20.254  0.00  0.00    +0.000 C 
ATOM      4  C   UNL     1       2.724  14.797  18.903  0.00  0.00    +0.000 C 
ATOM      5  C   UNL     1       1.953  14.043  17.839  0.00  0.00    +0.000 C 
ATOM      6  C   UNL     1       0.544  13.664  18.312  0.00  0.00    +0.000 C 
ATOM      7  C   UNL     1       4.216  14.865  18.508  0.00  0.00    +0.000 C 
ATOM      8  O   UNL     1       4.922  13.994  18.029  0.00  0.00    +0.000 OA
ATOM      9  N   UNL     1       4.671  16.129  18.813  0.00  0.00    +0.000 N 
ATOM     10  C   UNL     1       3.677  16.953  19.412  0.00  0.00    +0.000 C 
ATOM     11  N   UNL     1       2.415  16.262  19.101  0.00  0.00    +0.000 N 
ATOM     12  H   UNL     1       5.642  16.376  18.691  0.00  0.00    +0.000 HD
ENDROOT
BRANCH  11  13
ATOM     13  C   UNL     1       1.363  17.034  18.641  0.00  0.00    +0.000 A 
ATOM     14  C   UNL     1       1.361  17.789  17.456  0.00  0.00    +0.000 A 
ATOM     15  C   UNL     1       0.245  18.457  16.927  0.00  0.00    +0.000 A 
ATOM     16  C   UNL     1      -0.945  18.438  17.631  0.00  0.00    +0.000 A 
ATOM     17  C   UNL     1      -0.988  17.772  18.851  0.00  0.00    +0.000 A 
ATOM     18  C   UNL     1       0.151  17.091  19.336  0.00  0.00    +0.000 A 
ENDBRANCH  11  13
BRANCH   1  19
ATOM     19  C   UNL     1       0.395  11.408  19.416  0.00  0.00    +0.000 C 
BRANCH  19  24
ATOM     20  N   UNL     1       0.998   9.291  20.867  0.00  0.00    +0.000 N 
ATOM     21  N   UNL     1       0.789   9.006  22.185  0.00  0.00    +0.000 NA
ATOM     22  N   UNL     1       0.556  10.147  22.792  0.00  0.00    +0.000 NA
ATOM     23  N   UNL     1       0.453  11.143  21.890  0.00  0.00    +0.000 NA
ATOM     24  C   UNL     1       0.663  10.639  20.687  0.00  0.00    +0.000 A 
BRANCH  20  28
ATOM     25  C   UNL     1       2.838   6.067  18.767  0.00  0.00    +0.000 A 
ATOM     26  C   UNL     1       2.316   5.897  20.040  0.00  0.00    +0.000 A 
ATOM     27  C   UNL     1       1.695   6.974  20.688  0.00  0.00    +0.000 A 
ATOM     28  C   UNL     1       1.537   8.237  20.072  0.00  0.00    +0.000 A 
ATOM     29  C   UNL     1       2.050   8.409  18.788  0.00  0.00    +0.000 A 
ATOM     30  C   UNL     1       2.708   7.328  18.156  0.00  0.00    +0.000 A 
BRANCH  25  32
ATOM     31  C   UNL     1       3.462   3.765  18.476  0.00  0.00    +0.000 C 
ATOM     32  O   UNL     1       3.514   5.125  18.046  0.00  0.00    +0.000 OA
ENDBRANCH  25  32
ENDBRANCH  20  28
ENDBRANCH  19  24
BRANCH  19  33
ATOM     33  C   UNL     1      -0.963  11.141  18.784  0.00  0.00    +0.000 C 
ATOM     34  C   UNL     1      -1.080  10.230  17.576  0.00  0.00    +0.000 C 
ATOM     35  C   UNL     1      -1.669   9.811  18.890  0.00  0.00    +0.000 C 
ENDBRANCH  19  33
ENDBRANCH   1  19
TORSDOF 6
ENDMDL
MODEL 8
REMARK VINA RESULT:      -6.9      3.693      9.743
REMARK  Name = 
REMARK  7 active torsions:
REMARK  status: ('A' for Active; 'I' for Inactive)
REMARK    1  A    between atoms: C_1  and  O_2
REMARK    2  A    between atoms: O_2  and  C_3
REMARK    3  A    between atoms: C_6  and  N_7
REMARK    4  A    between atoms: C_11  and  C_12
REMARK    5  A    between atoms: C_12  and  C_13
REMARK    6  A    between atoms: C_12  and  N_16
REMARK    7  A    between atoms: N_26  and  C_27
REMARK                            x       y       z     vdW  Elec       q    Type
REMARK                         _______ _______ _______ _____ _____    ______ ____
ROOT
ATOM      1  N   UNL     1       1.881   7.967  19.830  0.00  0.00    +0.000 NA
ATOM      2  C   UNL     1       2.152   6.883  20.781  0.00  0.00    +0.000 C 
ATOM      3  C   UNL     1       2.009   5.451  20.253  0.00  0.00    +0.000 C 
ATOM      4  C   UNL     1       2.637   5.232  18.856  0.00  0.00    +0.000 C 
ATOM      5  C   UNL     1       2.264   6.365  17.921  0.00  0.00    +0.000 C 
ATOM      6  C   UNL     1       2.533   7.738  18.547  0.00  0.00    +0.000 C 
ATOM      7  C   UNL     1       2.054   3.907  18.319  0.00  0.00    +0.000 C 
ATOM      8  O   UNL     1       0.955   3.693  17.835  0.00  0.00    +0.000 OA
ATOM      9  N   UNL     1       3.009   2.929  18.496  0.00  0.00    +0.000 N 
ATOM     10  C   UNL     1       4.190   3.407  19.129  0.00  0.00    +0.000 C 
ATOM     11  N   UNL     1       4.098   4.869  18.985  0.00  0.00    +0.000 N 
ATOM     12  H   UNL     1       2.814   1.965  18.268  0.00  0.00    +0.000 HD
ENDROOT
BRANCH  11  13
ATOM     13  C   UNL     1       5.236   5.541  18.575  0.00  0.00    +0.000 A 
ATOM     14  C   UNL     1       5.312   6.435  17.493  0.00  0.00    +0.000 A 
ATOM     15  C   UNL     1       6.432   7.216  17.170  0.00  0.00    +0.000 A 
ATOM     16  C   UNL     1       7.586   7.078  17.919  0.00  0.00    +0.000 A 
ATOM     17  C   UNL     1       7.600   6.154  18.958  0.00  0.00    +0.000 A 
ATOM     18  C   UNL     1       6.443   5.404  19.267  0.00  0.00    +0.000 A 
ENDBRANCH  11  13
BRANCH   1  19
ATOM     19  C   UNL     1       0.579   8.701  19.807  0.00  0.00    +0.000 C 
BRANCH  19  24
ATOM     20  N   UNL     1       0.432  10.676  21.547  0.00  0.00    +0.000 N 
ATOM     21  N   UNL     1       0.225  10.683  22.896  0.00  0.00    +0.000 NA
ATOM     22  N   UNL     1      -0.298   9.520  23.210  0.00  0.00    +0.000 NA
ATOM     23  N   UNL     1      -0.294   8.703  22.138  0.00  0.00    +0.000 NA
ATOM     24  C   UNL     1       0.203   9.366  21.109  0.00  0.00    +0.000 A 
BRANCH  20  28
ATOM     25  C   UNL     1       1.061  14.386  19.540  0.00  0.00    +0.000 A 
ATOM     26  C   UNL     1      -0.167  14.065  20.097  0.00  0.00    +0.000 A 
ATOM     27  C   UNL     1      -0.328  12.846  20.772  0.00  0.00    +0.000 A 
ATOM     28  C   UNL     1       0.738  11.935  20.950  0.00  0.00    +0.000 A 
ATOM     29  C   UNL     1       1.978  12.260  20.403  0.00  0.00    +0.000 A 
ATOM     30  C   UNL     1       2.122  13.474  19.691  0.00  0.00    +0.000 A 
BRANCH  25  32
ATOM     31  C   UNL     1       2.686  15.731  18.388  0.00  0.00    +0.000 C 
ATOM     32  O   UNL     1       1.342  15.507  18.812  0.00  0.00    +0.000 OA
ENDBRANCH  25  32
ENDBRANCH  20  28
ENDBRANCH  19  24
BRANCH  19  33
ATOM     33  C   UNL     1       0.653   9.638  18.611  0.00  0.00    +0.000 C 
ATOM     34  C   UNL     1      -0.101   9.311  17.335  0.00  0.00    +0.000 C 
ATOM     35  C   UNL     1      -0.509  10.492  18.165  0.00  0.00    +0.000 C 
ENDBRANCH  19  33
ENDBRANCH   1  19
TORSDOF 6
ENDMDL
MODEL 9
REMARK VINA RESULT:      -6.9      3.099      4.914
REMARK  Name = 
REMARK  7 active torsions:
REMARK  status: ('A' for Active; 'I' for Inactive)
REMARK    1  A    between atoms: C_1  and  O_2
REMARK    2  A    between atoms: O_2  and  C_3
REMARK    3  A    between atoms: C_6  and  N_7
REMARK    4  A    between atoms: C_11  and  C_12
REMARK    5  A    between atoms: C_12  and  C_13
REMARK    6  A    between atoms: C_12  and  N_16
REMARK    7  A    between atoms: N_26  and  C_27
REMARK                            x       y       z     vdW  Elec       q    Type
REMARK                         _______ _______ _______ _____ _____    ______ ____
ROOT
ATOM      1  N   UNL     1      -0.947  12.990  18.950  0.00  0.00    +0.000 NA
ATOM      2  C   UNL     1      -1.499  13.799  20.043  0.00  0.00    +0.000 C 
ATOM      3  C   UNL     1      -0.497  14.364  21.056  0.00  0.00    +0.000 C 
ATOM      4  C   UNL     1       0.777  14.962  20.413  0.00  0.00    +0.000 C 
ATOM      5  C   UNL     1       1.312  14.040  19.336  0.00  0.00    +0.000 C 
ATOM      6  C   UNL     1       0.220  13.618  18.347  0.00  0.00    +0.000 C 
ATOM      7  C   UNL     1       1.818  15.090  21.546  0.00  0.00    +0.000 C 
ATOM      8  O   UNL     1       2.508  14.223  22.055  0.00  0.00    +0.000 OA
ATOM      9  N   UNL     1       1.842  16.410  21.942  0.00  0.00    +0.000 N 
ATOM     10  C   UNL     1       0.911  17.223  21.238  0.00  0.00    +0.000 C 
ATOM     11  N   UNL     1       0.558  16.414  20.061  0.00  0.00    +0.000 N 
ATOM     12  H   UNL     1       2.414  16.709  22.718  0.00  0.00    +0.000 HD
ENDROOT
BRANCH  11  13
ATOM     13  C   UNL     1       0.533  17.053  18.834  0.00  0.00    +0.000 A 
ATOM     14  C   UNL     1      -0.608  17.597  18.220  0.00  0.00    +0.000 A 
ATOM     15  C   UNL     1      -0.603  18.363  17.043  0.00  0.00    +0.000 A 
ATOM     16  C   UNL     1       0.593  18.570  16.382  0.00  0.00    +0.000 A 
ATOM     17  C   UNL     1       1.749  17.994  16.898  0.00  0.00    +0.000 A 
ATOM     18  C   UNL     1       1.705  17.250  18.098  0.00  0.00    +0.000 A 
ENDBRANCH  11  13
BRANCH   1  19
ATOM     19  C   UNL     1      -0.979  11.495  18.971  0.00  0.00    +0.000 C 
BRANCH  19  24
ATOM     20  N   UNL     1       0.320   9.701  20.401  0.00  0.00    +0.000 N 
ATOM     21  N   UNL     1       0.255   9.377  21.724  0.00  0.00    +0.000 NA
ATOM     22  N   UNL     1      -0.316  10.386  22.340  0.00  0.00    +0.000 NA
ATOM     23  N   UNL     1      -0.764  11.286  21.442  0.00  0.00    +0.000 NA
ATOM     24  C   UNL     1      -0.438  10.867  20.232  0.00  0.00    +0.000 A 
BRANCH  20  28
ATOM     25  C   UNL     1       3.035   7.217  18.245  0.00  0.00    +0.000 A 
ATOM     26  C   UNL     1       2.608   6.884  19.521  0.00  0.00    +0.000 A 
ATOM     27  C   UNL     1       1.694   7.713  20.188  0.00  0.00    +0.000 A 
ATOM     28  C   UNL     1       1.147   8.870  19.588  0.00  0.00    +0.000 A 
ATOM     29  C   UNL     1       1.564   9.202  18.301  0.00  0.00    +0.000 A 
ATOM     30  C   UNL     1       2.515   8.381  17.650  0.00  0.00    +0.000 A 
BRANCH  25  32
ATOM     31  C   UNL     1       4.151   5.144  17.763  0.00  0.00    +0.000 C 
ATOM     32  O   UNL     1       3.959   6.534  17.506  0.00  0.00    +0.000 OA
ENDBRANCH  25  32
ENDBRANCH  20  28
ENDBRANCH  19  24
BRANCH  19  33
ATOM     33  C   UNL     1      -2.410  11.107  18.628  0.00  0.00    +0.000 C 
ATOM     34  C   UNL     1      -2.905  11.195  17.197  0.00  0.00    +0.000 C 
ATOM     35  C   UNL     1      -2.758   9.857  17.858  0.00  0.00    +0.000 C 
ENDBRANCH  19  33
ENDBRANCH   1  19
TORSDOF 6
ENDMDL
