MODEL 1
REMARK VINA RESULT:      -9.3      0.000      0.000
REMARK  Name = 
REMARK  4 active torsions:
REMARK  status: ('A' for Active; 'I' for Inactive)
REMARK    1  A    between atoms: C_1  and  C_2
REMARK    2  A    between atoms: C_7  and  N_8
REMARK    3  A    between atoms: N_18  and  C_19
REMARK    4  A    between atoms: C_24  and  C_25
REMARK                            x       y       z     vdW  Elec       q    Type
REMARK                         _______ _______ _______ _____ _____    ______ ____
ROOT
ATOM      1  N   UNL     1       4.545   6.097  18.205  0.00  0.00    +0.000 N 
ATOM      2  C   UNL     1       3.754   5.375  19.154  0.00  0.00    +0.000 A 
ATOM      3  N   UNL     1       4.140   4.108  19.462  0.00  0.00    +0.000 NA
ATOM      4  C   UNL     1       3.352   3.542  20.412  0.00  0.00    +0.000 A 
ATOM      5  N   UNL     1       3.482   2.319  20.921  0.00  0.00    +0.000 NA
ATOM      6  O   UNL     1       2.448   2.215  21.851  0.00  0.00    +0.000 OA
ATOM      7  N   UNL     1       1.678   3.376  21.913  0.00  0.00    +0.000 NA
ATOM      8  C   UNL     1       2.236   4.197  21.025  0.00  0.00    +0.000 A 
ATOM      9  N   UNL     1       1.836   5.461  20.724  0.00  0.00    +0.000 NA
ATOM     10  C   UNL     1       2.617   6.035  19.766  0.00  0.00    +0.000 A 
ATOM     11  N   UNL     1       2.279   7.350  19.337  0.00  0.00    +0.000 N 
ATOM     12  H   UNL     1       4.971   6.890  18.673  0.00  0.00    +0.000 HD
ATOM     13  H   UNL     1       2.152   7.380  18.332  0.00  0.00    +0.000 HD
ENDROOT
BRANCH   1  20
ATOM     14  C   UNL     1       7.505   5.740  18.638  0.00  0.00    +0.000 C 
ATOM     15  C   UNL     1       6.774   5.355  17.381  0.00  0.00    +0.000 A 
ATOM     16  C   UNL     1       7.542   4.848  16.312  0.00  0.00    +0.000 A 
ATOM     17  C   UNL     1       6.948   4.456  15.114  0.00  0.00    +0.000 A 
ATOM     18  C   UNL     1       5.574   4.571  14.960  0.00  0.00    +0.000 A 
ATOM     19  C   UNL     1       4.806   5.092  16.000  0.00  0.00    +0.000 A 
ATOM     20  C   UNL     1       5.377   5.495  17.224  0.00  0.00    +0.000 A 
ENDBRANCH   1  20
BRANCH  11  21
ATOM     21  C   UNL     1       1.556   8.322  20.069  0.00  0.00    +0.000 A 
ATOM     22  C   UNL     1       1.440   8.192  21.465  0.00  0.00    +0.000 A 
ATOM     23  C   UNL     1       0.869   9.193  22.250  0.00  0.00    +0.000 A 
ATOM     24  C   UNL     1       0.396  10.352  21.653  0.00  0.00    +0.000 A 
ATOM     25  C   UNL     1       0.441  10.479  20.267  0.00  0.00    +0.000 A 
ATOM     26  C   UNL     1       0.992   9.466  19.460  0.00  0.00    +0.000 A 
ATOM     27  C   UNL     1       0.892   9.621  17.972  0.00  0.00    +0.000 C 
ENDBRANCH  11  21
TORSDOF 2
ENDMDL
MODEL 2
REMARK VINA RESULT:      -9.2      0.133      6.549
REMARK  Name = 
REMARK  4 active torsions:
REMARK  status: ('A' for Active; 'I' for Inactive)
REMARK    1  A    between atoms: C_1  and  C_2
REMARK    2  A    between atoms: C_7  and  N_8
REMARK    3  A    between atoms: N_18  and  C_19
REMARK    4  A    between atoms: C_24  and  C_25
REMARK                            x       y       z     vdW  Elec       q    Type
REMARK                         _______ _______ _______ _____ _____    ______ ____
ROOT
ATOM      1  N   UNL     1       2.327   7.322  19.286  0.00  0.00    +0.000 N 
ATOM      2  C   UNL     1       2.661   6.008  19.744  0.00  0.00    +0.000 A 
ATOM      3  N   UNL     1       1.876   5.461  20.711  0.00  0.00    +0.000 NA
ATOM      4  C   UNL     1       2.251   4.195  21.028  0.00  0.00    +0.000 A 
ATOM      5  N   UNL     1       1.675   3.401  21.929  0.00  0.00    +0.000 NA
ATOM      6  O   UNL     1       2.414   2.220  21.879  0.00  0.00    +0.000 OA
ATOM      7  N   UNL     1       3.449   2.287  20.947  0.00  0.00    +0.000 NA
ATOM      8  C   UNL     1       3.349   3.506  20.419  0.00  0.00    +0.000 A 
ATOM      9  N   UNL     1       4.144   4.042  19.456  0.00  0.00    +0.000 NA
ATOM     10  C   UNL     1       3.780   5.317  19.137  0.00  0.00    +0.000 A 
ATOM     11  N   UNL     1       4.559   6.002  18.162  0.00  0.00    +0.000 N 
ATOM     12  H   UNL     1       2.053   7.266  18.310  0.00  0.00    +0.000 HD
ATOM     13  H   UNL     1       4.900   6.884  18.528  0.00  0.00    +0.000 HD
ENDROOT
BRANCH   1  20
ATOM     14  C   UNL     1       0.887   9.612  17.959  0.00  0.00    +0.000 C 
ATOM     15  C   UNL     1       0.940   9.383  19.445  0.00  0.00    +0.000 A 
ATOM     16  C   UNL     1       0.322  10.344  20.272  0.00  0.00    +0.000 A 
ATOM     17  C   UNL     1       0.313  10.208  21.660  0.00  0.00    +0.000 A 
ATOM     18  C   UNL     1       0.928   9.112  22.245  0.00  0.00    +0.000 A 
ATOM     19  C   UNL     1       1.563   8.167  21.440  0.00  0.00    +0.000 A 
ATOM     20  C   UNL     1       1.588   8.275  20.035  0.00  0.00    +0.000 A 
ENDBRANCH   1  20
BRANCH  11  21
ATOM     21  C   UNL     1       5.354   5.419  17.147  0.00  0.00    +0.000 A 
ATOM     22  C   UNL     1       4.731   4.875  16.007  0.00  0.00    +0.000 A 
ATOM     23  C   UNL     1       5.469   4.424  14.914  0.00  0.00    +0.000 A 
ATOM     24  C   UNL     1       6.854   4.504  14.935  0.00  0.00    +0.000 A 
ATOM     25  C   UNL     1       7.497   4.979  16.075  0.00  0.00    +0.000 A 
ATOM     26  C   UNL     1       6.766   5.415  17.197  0.00  0.00    +0.000 A 
ATOM     27  C   UNL     1       7.530   5.795  18.429  0.00  0.00    +0.000 C 
ENDBRANCH  11  21
TORSDOF 2
ENDMDL
MODEL 3
REMARK VINA RESULT:      -8.2      0.710      6.430
REMARK  Name = 
REMARK  4 active torsions:
REMARK  status: ('A' for Active; 'I' for Inactive)
REMARK    1  A    between atoms: C_1  and  C_2
REMARK    2  A    between atoms: C_7  and  N_8
REMARK    3  A    between atoms: N_18  and  C_19
REMARK    4  A    between atoms: C_24  and  C_25
REMARK                            x       y       z     vdW  Elec       q    Type
REMARK                         _______ _______ _______ _____ _____    ______ ____
ROOT
ATOM      1  N   UNL     1       2.302   7.596  19.470  0.00  0.00    +0.000 N 
ATOM      2  C   UNL     1       2.509   6.220  19.800  0.00  0.00    +0.000 A 
ATOM      3  N   UNL     1       1.530   5.586  20.500  0.00  0.00    +0.000 NA
ATOM      4  C   UNL     1       1.808   4.274  20.707  0.00  0.00    +0.000 A 
ATOM      5  N   UNL     1       1.044   3.395  21.353  0.00  0.00    +0.000 NA
ATOM      6  O   UNL     1       1.756   2.198  21.292  0.00  0.00    +0.000 OA
ATOM      7  N   UNL     1       2.963   2.340  20.608  0.00  0.00    +0.000 NA
ATOM      8  C   UNL     1       2.997   3.622  20.246  0.00  0.00    +0.000 A 
ATOM      9  N   UNL     1       3.985   4.243  19.550  0.00  0.00    +0.000 NA
ATOM     10  C   UNL     1       3.718   5.564  19.343  0.00  0.00    +0.000 A 
ATOM     11  N   UNL     1       4.695   6.335  18.653  0.00  0.00    +0.000 N 
ATOM     12  H   UNL     1       2.237   7.683  18.460  0.00  0.00    +0.000 HD
ATOM     13  H   UNL     1       4.968   7.144  19.200  0.00  0.00    +0.000 HD
ENDROOT
BRANCH   1  20
ATOM     14  C   UNL     1       0.695   9.721  18.060  0.00  0.00    +0.000 C 
ATOM     15  C   UNL     1       0.709   9.508  19.549  0.00  0.00    +0.000 A 
ATOM     16  C   UNL     1      -0.037  10.408  20.340  0.00  0.00    +0.000 A 
ATOM     17  C   UNL     1      -0.090  10.281  21.727  0.00  0.00    +0.000 A 
ATOM     18  C   UNL     1       0.607   9.256  22.349  0.00  0.00    +0.000 A 
ATOM     19  C   UNL     1       1.367   8.375  21.582  0.00  0.00    +0.000 A 
ATOM     20  C   UNL     1       1.439   8.475  20.177  0.00  0.00    +0.000 A 
ENDBRANCH   1  20
BRANCH  11  21
ATOM     21  C   UNL     1       5.673   5.856  17.750  0.00  0.00    +0.000 A 
ATOM     22  C   UNL     1       6.756   5.101  18.239  0.00  0.00    +0.000 A 
ATOM     23  C   UNL     1       7.664   4.480  17.383  0.00  0.00    +0.000 A 
ATOM     24  C   UNL     1       7.512   4.604  16.009  0.00  0.00    +0.000 A 
ATOM     25  C   UNL     1       6.487   5.396  15.500  0.00  0.00    +0.000 A 
ATOM     26  C   UNL     1       5.577   6.049  16.353  0.00  0.00    +0.000 A 
ATOM     27  C   UNL     1       4.580   6.982  15.736  0.00  0.00    +0.000 C 
ENDBRANCH  11  21
TORSDOF 2
ENDMDL
MODEL 4
REMARK VINA RESULT:      -8.1      0.715      1.398
REMARK  Name = 
REMARK  4 active torsions:
REMARK  status: ('A' for Active; 'I' for Inactive)
REMARK    1  A    between atoms: C_1  and  C_2
REMARK    2  A    between atoms: C_7  and  N_8
REMARK    3  A    between atoms: N_18  and  C_19
REMARK    4  A    between atoms: C_24  and  C_25
REMARK                            x       y       z     vdW  Elec       q    Type
REMARK                         _______ _______ _______ _____ _____    ______ ____
ROOT
ATOM      1  N   UNL     1       4.670   6.387  18.692  0.00  0.00    +0.000 N 
ATOM      2  C   UNL     1       3.687   5.589  19.359  0.00  0.00    +0.000 A 
ATOM      3  N   UNL     1       3.971   4.273  19.554  0.00  0.00    +0.000 NA
ATOM      4  C   UNL     1       2.996   3.630  20.244  0.00  0.00    +0.000 A 
ATOM      5  N   UNL     1       2.989   2.344  20.592  0.00  0.00    +0.000 NA
ATOM      6  O   UNL     1       1.789   2.173  21.280  0.00  0.00    +0.000 OA
ATOM      7  N   UNL     1       1.053   3.355  21.356  0.00  0.00    +0.000 NA
ATOM      8  C   UNL     1       1.798   4.256  20.716  0.00  0.00    +0.000 A 
ATOM      9  N   UNL     1       1.499   5.568  20.525  0.00  0.00    +0.000 NA
ATOM     10  C   UNL     1       2.470   6.222  19.826  0.00  0.00    +0.000 A 
ATOM     11  N   UNL     1       2.259   7.598  19.530  0.00  0.00    +0.000 N 
ATOM     12  H   UNL     1       5.015   7.088  19.340  0.00  0.00    +0.000 HD
ATOM     13  H   UNL     1       2.335   7.769  18.534  0.00  0.00    +0.000 HD
ENDROOT
BRANCH   1  20
ATOM     14  C   UNL     1       4.582   6.896  15.723  0.00  0.00    +0.000 C 
ATOM     15  C   UNL     1       5.625   6.062  16.416  0.00  0.00    +0.000 A 
ATOM     16  C   UNL     1       6.591   5.427  15.607  0.00  0.00    +0.000 A 
ATOM     17  C   UNL     1       7.601   4.644  16.163  0.00  0.00    +0.000 A 
ATOM     18  C   UNL     1       7.659   4.475  17.539  0.00  0.00    +0.000 A 
ATOM     19  C   UNL     1       6.697   5.077  18.348  0.00  0.00    +0.000 A 
ATOM     20  C   UNL     1       5.665   5.877  17.816  0.00  0.00    +0.000 A 
ENDBRANCH   1  20
BRANCH  11  21
ATOM     21  C   UNL     1       1.431   8.501  20.238  0.00  0.00    +0.000 A 
ATOM     22  C   UNL     1       1.312   8.382  21.635  0.00  0.00    +0.000 A 
ATOM     23  C   UNL     1       0.631   9.331  22.397  0.00  0.00    +0.000 A 
ATOM     24  C   UNL     1       0.048  10.426  21.776  0.00  0.00    +0.000 A 
ATOM     25  C   UNL     1       0.097  10.535  20.389  0.00  0.00    +0.000 A 
ATOM     26  C   UNL     1       0.759   9.572  19.604  0.00  0.00    +0.000 A 
ATOM     27  C   UNL     1       0.662   9.692  18.113  0.00  0.00    +0.000 C 
ENDBRANCH  11  21
TORSDOF 2
ENDMDL
MODEL 5
REMARK VINA RESULT:      -7.8      0.534      1.361
REMARK  Name = 
REMARK  4 active torsions:
REMARK  status: ('A' for Active; 'I' for Inactive)
REMARK    1  A    between atoms: C_1  and  C_2
REMARK    2  A    between atoms: C_7  and  N_8
REMARK    3  A    between atoms: N_18  and  C_19
REMARK    4  A    between atoms: C_24  and  C_25
REMARK                            x       y       z     vdW  Elec       q    Type
REMARK                         _______ _______ _______ _____ _____    ______ ____
ROOT
ATOM      1  N   UNL     1       4.411   6.184  18.167  0.00  0.00    +0.000 N 
ATOM      2  C   UNL     1       3.710   5.453  19.176  0.00  0.00    +0.000 A 
ATOM      3  N   UNL     1       4.171   4.212  19.491  0.00  0.00    +0.000 NA
ATOM      4  C   UNL     1       3.466   3.637  20.497  0.00  0.00    +0.000 A 
ATOM      5  N   UNL     1       3.681   2.434  21.027  0.00  0.00    +0.000 NA
ATOM      6  O   UNL     1       2.708   2.307  22.017  0.00  0.00    +0.000 OA
ATOM      7  N   UNL     1       1.890   3.434  22.096  0.00  0.00    +0.000 NA
ATOM      8  C   UNL     1       2.357   4.257  21.158  0.00  0.00    +0.000 A 
ATOM      9  N   UNL     1       1.882   5.493  20.852  0.00  0.00    +0.000 NA
ATOM     10  C   UNL     1       2.580   6.077  19.837  0.00  0.00    +0.000 A 
ATOM     11  N   UNL     1       2.158   7.363  19.398  0.00  0.00    +0.000 N 
ATOM     12  H   UNL     1       4.826   7.009  18.590  0.00  0.00    +0.000 HD
ATOM     13  H   UNL     1       1.973   7.362  18.401  0.00  0.00    +0.000 HD
ENDROOT
BRANCH   1  20
ATOM     14  C   UNL     1       3.419   3.883  16.493  0.00  0.00    +0.000 C 
ATOM     15  C   UNL     1       4.793   4.488  16.385  0.00  0.00    +0.000 A 
ATOM     16  C   UNL     1       5.694   3.893  15.477  0.00  0.00    +0.000 A 
ATOM     17  C   UNL     1       6.983   4.394  15.303  0.00  0.00    +0.000 A 
ATOM     18  C   UNL     1       7.397   5.494  16.039  0.00  0.00    +0.000 A 
ATOM     19  C   UNL     1       6.524   6.077  16.956  0.00  0.00    +0.000 A 
ATOM     20  C   UNL     1       5.214   5.595  17.153  0.00  0.00    +0.000 A 
ENDBRANCH   1  20
BRANCH  11  21
ATOM     21  C   UNL     1       1.433   8.320  20.148  0.00  0.00    +0.000 A 
ATOM     22  C   UNL     1       1.342   8.180  21.545  0.00  0.00    +0.000 A 
ATOM     23  C   UNL     1       0.770   9.168  22.346  0.00  0.00    +0.000 A 
ATOM     24  C   UNL     1       0.270  10.324  21.764  0.00  0.00    +0.000 A 
ATOM     25  C   UNL     1       0.290  10.460  20.378  0.00  0.00    +0.000 A 
ATOM     26  C   UNL     1       0.842   9.460  19.555  0.00  0.00    +0.000 A 
ATOM     27  C   UNL     1       0.716   9.622  18.071  0.00  0.00    +0.000 C 
ENDBRANCH  11  21
TORSDOF 2
ENDMDL
MODEL 6
REMARK VINA RESULT:      -7.7      0.551      6.510
REMARK  Name = 
REMARK  4 active torsions:
REMARK  status: ('A' for Active; 'I' for Inactive)
REMARK    1  A    between atoms: C_1  and  C_2
REMARK    2  A    between atoms: C_7  and  N_8
REMARK    3  A    between atoms: N_18  and  C_19
REMARK    4  A    between atoms: C_24  and  C_25
REMARK                            x       y       z     vdW  Elec       q    Type
REMARK                         _______ _______ _______ _____ _____    ______ ____
ROOT
ATOM      1  N   UNL     1       2.200   7.428  19.381  0.00  0.00    +0.000 N 
ATOM      2  C   UNL     1       2.562   6.115  19.822  0.00  0.00    +0.000 A 
ATOM      3  N   UNL     1       1.799   5.544  20.793  0.00  0.00    +0.000 NA
ATOM      4  C   UNL     1       2.199   4.282  21.090  0.00  0.00    +0.000 A 
ATOM      5  N   UNL     1       1.649   3.469  21.991  0.00  0.00    +0.000 NA
ATOM      6  O   UNL     1       2.407   2.301  21.919  0.00  0.00    +0.000 OA
ATOM      7  N   UNL     1       3.428   2.395  20.973  0.00  0.00    +0.000 NA
ATOM      8  C   UNL     1       3.301   3.618  20.460  0.00  0.00    +0.000 A 
ATOM      9  N   UNL     1       4.074   4.178  19.493  0.00  0.00    +0.000 NA
ATOM     10  C   UNL     1       3.685   5.449  19.192  0.00  0.00    +0.000 A 
ATOM     11  N   UNL     1       4.439   6.158  18.215  0.00  0.00    +0.000 N 
ATOM     12  H   UNL     1       1.915   7.377  18.409  0.00  0.00    +0.000 HD
ATOM     13  H   UNL     1       4.770   7.041  18.586  0.00  0.00    +0.000 HD
ENDROOT
BRANCH   1  20
ATOM     14  C   UNL     1       0.677   9.688  18.095  0.00  0.00    +0.000 C 
ATOM     15  C   UNL     1       0.769   9.455  19.579  0.00  0.00    +0.000 A 
ATOM     16  C   UNL     1       0.146  10.398  20.424  0.00  0.00    +0.000 A 
ATOM     17  C   UNL     1       0.170  10.257  21.810  0.00  0.00    +0.000 A 
ATOM     18  C   UNL     1       0.824   9.173  22.378  0.00  0.00    +0.000 A 
ATOM     19  C   UNL     1       1.463   8.247  21.556  0.00  0.00    +0.000 A 
ATOM     20  C   UNL     1       1.455   8.360  20.150  0.00  0.00    +0.000 A 
ENDBRANCH   1  20
BRANCH  11  21
ATOM     21  C   UNL     1       5.230   5.599  17.183  0.00  0.00    +0.000 A 
ATOM     22  C   UNL     1       6.507   6.131  16.925  0.00  0.00    +0.000 A 
ATOM     23  C   UNL     1       7.385   5.527  16.025  0.00  0.00    +0.000 A 
ATOM     24  C   UNL     1       7.002   4.374  15.356  0.00  0.00    +0.000 A 
ATOM     25  C   UNL     1       5.721   3.862  15.546  0.00  0.00    +0.000 A 
ATOM     26  C   UNL     1       4.815   4.475  16.433  0.00  0.00    +0.000 A 
ATOM     27  C   UNL     1       3.416   3.941  16.489  0.00  0.00    +0.000 C 
ENDBRANCH  11  21
TORSDOF 2
ENDMDL
MODEL 7
REMARK VINA RESULT:      -7.4      6.377     10.211
REMARK  Name = 
REMARK  4 active torsions:
REMARK  status: ('A' for Active; 'I' for Inactive)
REMARK    1  A    between atoms: C_1  and  C_2
REMARK    2  A    between atoms: C_7  and  N_8
REMARK    3  A    between atoms: N_18  and  C_19
REMARK    4  A    between atoms: C_24  and  C_25
REMARK                            x       y       z     vdW  Elec       q    Type
REMARK                         _______ _______ _______ _____ _____    ______ ____
ROOT
ATOM      1  N   UNL     1      -2.345  13.121  22.334  0.00  0.00    +0.000 N 
ATOM      2  C   UNL     1      -1.487  12.044  21.946  0.00  0.00    +0.000 A 
ATOM      3  N   UNL     1      -0.729  11.463  22.915  0.00  0.00    +0.000 NA
ATOM      4  C   UNL     1       0.001  10.420  22.445  0.00  0.00    +0.000 A 
ATOM      5  N   UNL     1       0.831   9.653  23.150  0.00  0.00    +0.000 NA
ATOM      6  O   UNL     1       1.327   8.733  22.228  0.00  0.00    +0.000 OA
ATOM      7  N   UNL     1       0.803   8.933  20.951  0.00  0.00    +0.000 NA
ATOM      8  C   UNL     1      -0.017   9.975  21.083  0.00  0.00    +0.000 A 
ATOM      9  N   UNL     1      -0.765  10.549  20.105  0.00  0.00    +0.000 NA
ATOM     10  C   UNL     1      -1.497  11.603  20.566  0.00  0.00    +0.000 A 
ATOM     11  N   UNL     1      -2.299  12.312  19.627  0.00  0.00    +0.000 N 
ATOM     12  H   UNL     1      -3.309  12.835  22.197  0.00  0.00    +0.000 HD
ATOM     13  H   UNL     1      -2.075  13.301  19.636  0.00  0.00    +0.000 HD
ENDROOT
BRANCH   1  20
ATOM     14  C   UNL     1      -4.182  12.985  24.719  0.00  0.00    +0.000 C 
ATOM     15  C   UNL     1      -3.017  13.929  24.592  0.00  0.00    +0.000 A 
ATOM     16  C   UNL     1      -2.813  14.852  25.638  0.00  0.00    +0.000 A 
ATOM     17  C   UNL     1      -1.753  15.757  25.610  0.00  0.00    +0.000 A 
ATOM     18  C   UNL     1      -0.882  15.759  24.530  0.00  0.00    +0.000 A 
ATOM     19  C   UNL     1      -1.086  14.867  23.479  0.00  0.00    +0.000 A 
ATOM     20  C   UNL     1      -2.148  13.939  23.479  0.00  0.00    +0.000 A 
ENDBRANCH   1  20
BRANCH  11  21
ATOM     21  C   UNL     1      -2.813  11.818  18.406  0.00  0.00    +0.000 A 
ATOM     22  C   UNL     1      -1.924  11.426  17.388  0.00  0.00    +0.000 A 
ATOM     23  C   UNL     1      -2.369  10.795  16.227  0.00  0.00    +0.000 A 
ATOM     24  C   UNL     1      -3.722  10.544  16.054  0.00  0.00    +0.000 A 
ATOM     25  C   UNL     1      -4.631  10.979  17.016  0.00  0.00    +0.000 A 
ATOM     26  C   UNL     1      -4.198  11.638  18.182  0.00  0.00    +0.000 A 
ATOM     27  C   UNL     1      -5.241  12.184  19.109  0.00  0.00    +0.000 C 
ENDBRANCH  11  21
TORSDOF 2
ENDMDL
MODEL 8
REMARK VINA RESULT:      -7.3      6.352      9.013
REMARK  Name = 
REMARK  4 active torsions:
REMARK  status: ('A' for Active; 'I' for Inactive)
REMARK    1  A    between atoms: C_1  and  C_2
REMARK    2  A    between atoms: C_7  and  N_8
REMARK    3  A    between atoms: N_18  and  C_19
REMARK    4  A    between atoms: C_24  and  C_25
REMARK                            x       y       z     vdW  Elec       q    Type
REMARK                         _______ _______ _______ _____ _____    ______ ____
ROOT
ATOM      1  N   UNL     1      -2.349  12.261  19.670  0.00  0.00    +0.000 N 
ATOM      2  C   UNL     1      -1.527  11.547  20.598  0.00  0.00    +0.000 A 
ATOM      3  N   UNL     1      -0.782  10.516  20.115  0.00  0.00    +0.000 NA
ATOM      4  C   UNL     1      -0.001   9.950  21.070  0.00  0.00    +0.000 A 
ATOM      5  N   UNL     1       0.838   8.929  20.903  0.00  0.00    +0.000 NA
ATOM      6  O   UNL     1       1.400   8.727  22.163  0.00  0.00    +0.000 OA
ATOM      7  N   UNL     1       0.905   9.624  23.109  0.00  0.00    +0.000 NA
ATOM      8  C   UNL     1       0.039  10.380  22.435  0.00  0.00    +0.000 A 
ATOM      9  N   UNL     1      -0.703  11.405  22.933  0.00  0.00    +0.000 NA
ATOM     10  C   UNL     1      -1.496  11.976  21.982  0.00  0.00    +0.000 A 
ATOM     11  N   UNL     1      -2.349  13.042  22.386  0.00  0.00    +0.000 N 
ATOM     12  H   UNL     1      -2.010  13.215  19.602  0.00  0.00    +0.000 HD
ATOM     13  H   UNL     1      -3.314  12.843  22.144  0.00  0.00    +0.000 HD
ENDROOT
BRANCH   1  20
ATOM     14  C   UNL     1      -5.293  12.100  19.047  0.00  0.00    +0.000 C 
ATOM     15  C   UNL     1      -4.199  11.604  18.140  0.00  0.00    +0.000 A 
ATOM     16  C   UNL     1      -4.589  10.966  16.943  0.00  0.00    +0.000 A 
ATOM     17  C   UNL     1      -3.644  10.484  16.039  0.00  0.00    +0.000 A 
ATOM     18  C   UNL     1      -2.293  10.626  16.317  0.00  0.00    +0.000 A 
ATOM     19  C   UNL     1      -1.895  11.234  17.507  0.00  0.00    +0.000 A 
ATOM     20  C   UNL     1      -2.826  11.733  18.441  0.00  0.00    +0.000 A 
ENDBRANCH   1  20
BRANCH  11  21
ATOM     21  C   UNL     1      -2.168  13.901  23.495  0.00  0.00    +0.000 A 
ATOM     22  C   UNL     1      -1.075  14.787  23.513  0.00  0.00    +0.000 A 
ATOM     23  C   UNL     1      -0.932  15.756  24.506  0.00  0.00    +0.000 A 
ATOM     24  C   UNL     1      -1.881  15.858  25.512  0.00  0.00    +0.000 A 
ATOM     25  C   UNL     1      -2.938  14.952  25.555  0.00  0.00    +0.000 A 
ATOM     26  C   UNL     1      -3.082  13.953  24.573  0.00  0.00    +0.000 A 
ATOM     27  C   UNL     1      -4.172  12.941  24.755  0.00  0.00    +0.000 C 
ENDBRANCH  11  21
TORSDOF 2
ENDMDL
MODEL 9
REMARK VINA RESULT:      -7.2      5.983     11.001
REMARK  Name = 
REMARK  4 active torsions:
REMARK  status: ('A' for Active; 'I' for Inactive)
REMARK    1  A    between atoms: C_1  and  C_2
REMARK    2  A    between atoms: C_7  and  N_8
REMARK    3  A    between atoms: N_18  and  C_19
REMARK    4  A    between atoms: C_24  and  C_25
REMARK                            x       y       z     vdW  Elec       q    Type
REMARK                         _______ _______ _______ _____ _____    ______ ____
ROOT
ATOM      1  N   UNL     1      -3.014  12.373  21.810  0.00  0.00    +0.000 N 
ATOM      2  C   UNL     1      -1.709  12.958  21.827  0.00  0.00    +0.000 A 
ATOM      3  N   UNL     1      -1.537  14.093  22.558  0.00  0.00    +0.000 NA
ATOM      4  C   UNL     1      -0.251  14.527  22.547  0.00  0.00    +0.000 A 
ATOM      5  N   UNL     1       0.227  15.602  23.170  0.00  0.00    +0.000 NA
ATOM      6  O   UNL     1       1.585  15.614  22.859  0.00  0.00    +0.000 OA
ATOM      7  N   UNL     1       1.946  14.544  22.039  0.00  0.00    +0.000 NA
ATOM      8  C   UNL     1       0.812  13.872  21.846  0.00  0.00    +0.000 A 
ATOM      9  N   UNL     1       0.655  12.741  21.108  0.00  0.00    +0.000 NA
ATOM     10  C   UNL     1      -0.636  12.301  21.107  0.00  0.00    +0.000 A 
ATOM     11  N   UNL     1      -0.938  11.140  20.341  0.00  0.00    +0.000 N 
ATOM     12  H   UNL     1      -2.968  11.463  22.257  0.00  0.00    +0.000 HD
ATOM     13  H   UNL     1      -1.685  11.328  19.681  0.00  0.00    +0.000 HD
ENDROOT
BRANCH   1  20
ATOM     14  C   UNL     1      -4.240  12.467  24.561  0.00  0.00    +0.000 C 
ATOM     15  C   UNL     1      -4.840  13.103  23.336  0.00  0.00    +0.000 A 
ATOM     16  C   UNL     1      -6.093  13.734  23.481  0.00  0.00    +0.000 A 
ATOM     17  C   UNL     1      -6.719  14.358  22.403  0.00  0.00    +0.000 A 
ATOM     18  C   UNL     1      -6.106  14.357  21.159  0.00  0.00    +0.000 A 
ATOM     19  C   UNL     1      -4.878  13.717  20.998  0.00  0.00    +0.000 A 
ATOM     20  C   UNL     1      -4.219  13.079  22.068  0.00  0.00    +0.000 A 
ENDBRANCH   1  20
BRANCH  11  21
ATOM     21  C   UNL     1      -0.040  10.115  19.963  0.00  0.00    +0.000 A 
ATOM     22  C   UNL     1       0.476  10.094  18.653  0.00  0.00    +0.000 A 
ATOM     23  C   UNL     1       1.474   9.198  18.272  0.00  0.00    +0.000 A 
ATOM     24  C   UNL     1       1.980   8.295  19.196  0.00  0.00    +0.000 A 
ATOM     25  C   UNL     1       1.443   8.252  20.480  0.00  0.00    +0.000 A 
ATOM     26  C   UNL     1       0.418   9.134  20.872  0.00  0.00    +0.000 A 
ATOM     27  C   UNL     1      -0.193   8.944  22.227  0.00  0.00    +0.000 C 
ENDBRANCH  11  21
TORSDOF 2
ENDMDL
