MODEL 1
REMARK VINA RESULT:      -8.7      0.000      0.000
REMARK  Name = 
REMARK  5 active torsions:
REMARK  status: ('A' for Active; 'I' for Inactive)
REMARK    1  A    between atoms: N_2  and  C_4
REMARK    2  A    between atoms: C_11  and  O_12
REMARK    3  A    between atoms: O_12  and  C_13
REMARK    4  A    between atoms: C_13  and  C_14
REMARK    5  A    between atoms: C_17  and  C_18
REMARK                            x       y       z     vdW  Elec       q    Type
REMARK                         _______ _______ _______ _____ _____    ______ ____
ROOT
ATOM      1  C   UNL     1       3.091   5.594  19.637  0.00  0.00    +0.000 C 
ENDROOT
BRANCH   1   2
ATOM      2  C   UNL     1       2.454   6.937  19.388  0.00  0.00    +0.000 A 
ATOM      3  C   UNL     1       2.435   7.484  18.112  0.00  0.00    +0.000 A 
ATOM      4  C   UNL     1       1.822   8.721  17.914  0.00  0.00    +0.000 A 
ATOM      5  C   UNL     1       1.224   9.410  18.980  0.00  0.00    +0.000 A 
ATOM      6  C   UNL     1       1.308   8.775  20.221  0.00  0.00    +0.000 A 
ATOM      7  N   UNL     1       1.892   7.570  20.446  0.00  0.00    +0.000 NA
BRANCH   5   8
ATOM      8  C   UNL     1       0.546  10.711  18.789  0.00  0.00    +0.000 A 
ATOM      9  C   UNL     1       1.226  11.922  19.003  0.00  0.00    +0.000 A 
ATOM     10  C   UNL     1       0.559  13.134  18.829  0.00  0.00    +0.000 A 
ATOM     11  N   UNL     1      -0.728  13.234  18.439  0.00  0.00    +0.000 NA
ATOM     12  C   UNL     1      -1.373  12.064  18.222  0.00  0.00    +0.000 A 
ATOM     13  C   UNL     1      -0.793  10.814  18.384  0.00  0.00    +0.000 A 
ATOM     14  F   UNL     1      -1.537   9.723  18.157  0.00  0.00    +0.000 F 
ENDBRANCH   5   8
ENDBRANCH   1   2
BRANCH   1  15
ATOM     15  O   UNL     1       3.238   4.890  18.398  0.00  0.00    +0.000 OA
BRANCH  15  23
ATOM     16  C   UNL     1       7.000   4.974  14.312  0.00  0.00    +0.000 A 
ATOM     17  C   UNL     1       5.830   4.279  14.563  0.00  0.00    +0.000 A 
ATOM     18  N   UNL     1       5.617   4.461  15.898  0.00  0.00    +0.000 N 
ATOM     19  C   UNL     1       6.649   5.195  16.399  0.00  0.00    +0.000 A 
ATOM     20  N   UNL     1       7.502   5.542  15.467  0.00  0.00    +0.000 NA
ATOM     21  O   UNL     1       6.830   5.399  17.694  0.00  0.00    +0.000 OA
ATOM     22  C   UNL     1       5.632   5.461  18.461  0.00  0.00    +0.000 C 
ATOM     23  C   UNL     1       4.566   4.386  18.159  0.00  0.00    +0.000 C 
ATOM     24  C   UNL     1       4.599   3.854  16.718  0.00  0.00    +0.000 C 
BRANCH  16  26
ATOM     25  O   UNL     1       8.659   5.873  13.019  0.00  0.00    +0.000 OA
ATOM     26  N   UNL     1       7.708   5.076  13.054  0.00  0.00    +0.000 N 
ATOM     27  O   UNL     1       7.319   4.377  12.111  0.00  0.00    +0.000 OA
ENDBRANCH  16  26
ENDBRANCH  15  23
ENDBRANCH   1  15
TORSDOF 5
ENDMDL
MODEL 2
REMARK VINA RESULT:      -8.6      1.248      1.506
REMARK  Name = 
REMARK  5 active torsions:
REMARK  status: ('A' for Active; 'I' for Inactive)
REMARK    1  A    between atoms: N_2  and  C_4
REMARK    2  A    between atoms: C_11  and  O_12
REMARK    3  A    between atoms: O_12  and  C_13
REMARK    4  A    between atoms: C_13  and  C_14
REMARK    5  A    between atoms: C_17  and  C_18
REMARK                            x       y       z     vdW  Elec       q    Type
REMARK                         _______ _______ _______ _____ _____    ______ ____
ROOT
ATOM      1  C   UNL     1       2.806   5.619  19.138  0.00  0.00    +0.000 C 
ENDROOT
BRANCH   1   2
ATOM      2  C   UNL     1       2.294   7.036  19.075  0.00  0.00    +0.000 A 
ATOM      3  C   UNL     1       2.329   7.747  17.882  0.00  0.00    +0.000 A 
ATOM      4  C   UNL     1       1.831   9.049  17.855  0.00  0.00    +0.000 A 
ATOM      5  C   UNL     1       1.296   9.642  19.008  0.00  0.00    +0.000 A 
ATOM      6  C   UNL     1       1.317   8.843  20.154  0.00  0.00    +0.000 A 
ATOM      7  N   UNL     1       1.789   7.571  20.212  0.00  0.00    +0.000 NA
BRANCH   5   8
ATOM      8  C   UNL     1       0.739  11.013  18.997  0.00  0.00    +0.000 A 
ATOM      9  C   UNL     1      -0.586  11.261  19.394  0.00  0.00    +0.000 A 
ATOM     10  C   UNL     1      -1.089  12.560  19.362  0.00  0.00    +0.000 A 
ATOM     11  N   UNL     1      -0.369  13.636  18.985  0.00  0.00    +0.000 NA
ATOM     12  C   UNL     1       0.910  13.392  18.617  0.00  0.00    +0.000 A 
ATOM     13  C   UNL     1       1.489  12.131  18.604  0.00  0.00    +0.000 A 
ATOM     14  F   UNL     1       2.762  12.009  18.202  0.00  0.00    +0.000 F 
ENDBRANCH   5   8
ENDBRANCH   1   2
BRANCH   1  15
ATOM     15  O   UNL     1       4.086   5.593  19.779  0.00  0.00    +0.000 OA
BRANCH  15  23
ATOM     16  C   UNL     1       6.757   4.783  14.977  0.00  0.00    +0.000 A 
ATOM     17  C   UNL     1       5.466   4.589  15.433  0.00  0.00    +0.000 A 
ATOM     18  N   UNL     1       5.585   4.633  16.791  0.00  0.00    +0.000 N 
ATOM     19  C   UNL     1       6.900   4.801  17.100  0.00  0.00    +0.000 A 
ATOM     20  N   UNL     1       7.645   4.915  16.028  0.00  0.00    +0.000 NA
ATOM     21  O   UNL     1       7.371   4.713  18.334  0.00  0.00    +0.000 OA
ATOM     22  C   UNL     1       6.466   5.134  19.349  0.00  0.00    +0.000 C 
ATOM     23  C   UNL     1       5.009   4.641  19.218  0.00  0.00    +0.000 C 
ATOM     24  C   UNL     1       4.563   4.369  17.773  0.00  0.00    +0.000 C 
BRANCH  16  26
ATOM     25  O   UNL     1       8.096   5.606  13.315  0.00  0.00    +0.000 OA
ATOM     26  N   UNL     1       7.213   4.783  13.603  0.00  0.00    +0.000 N 
ATOM     27  O   UNL     1       6.695   3.979  12.820  0.00  0.00    +0.000 OA
ENDBRANCH  16  26
ENDBRANCH  15  23
ENDBRANCH   1  15
TORSDOF 5
ENDMDL
MODEL 3
REMARK VINA RESULT:      -8.5      1.814      2.277
REMARK  Name = 
REMARK  5 active torsions:
REMARK  status: ('A' for Active; 'I' for Inactive)
REMARK    1  A    between atoms: N_2  and  C_4
REMARK    2  A    between atoms: C_11  and  O_12
REMARK    3  A    between atoms: O_12  and  C_13
REMARK    4  A    between atoms: C_13  and  C_14
REMARK    5  A    between atoms: C_17  and  C_18
REMARK                            x       y       z     vdW  Elec       q    Type
REMARK                         _______ _______ _______ _____ _____    ______ ____
ROOT
ATOM      1  C   UNL     1       3.088   6.372  17.741  0.00  0.00    +0.000 C 
ENDROOT
BRANCH   1   2
ATOM      2  C   UNL     1       2.385   7.360  18.637  0.00  0.00    +0.000 A 
ATOM      3  C   UNL     1       1.867   8.540  18.116  0.00  0.00    +0.000 A 
ATOM      4  C   UNL     1       1.207   9.424  18.970  0.00  0.00    +0.000 A 
ATOM      5  C   UNL     1       1.057   9.135  20.334  0.00  0.00    +0.000 A 
ATOM      6  C   UNL     1       1.622   7.928  20.753  0.00  0.00    +0.000 A 
ATOM      7  N   UNL     1       2.265   7.044  19.948  0.00  0.00    +0.000 NA
BRANCH   5   8
ATOM      8  C   UNL     1       0.339  10.046  21.253  0.00  0.00    +0.000 A 
ATOM      9  C   UNL     1      -0.377   9.548  22.354  0.00  0.00    +0.000 A 
ATOM     10  C   UNL     1      -1.055  10.427  23.197  0.00  0.00    +0.000 A 
ATOM     11  N   UNL     1      -1.059  11.767  23.039  0.00  0.00    +0.000 NA
ATOM     12  C   UNL     1      -0.357  12.240  21.984  0.00  0.00    +0.000 A 
ATOM     13  C   UNL     1       0.335  11.439  21.088  0.00  0.00    +0.000 A 
ATOM     14  F   UNL     1       0.982  12.020  20.067  0.00  0.00    +0.000 F 
ENDBRANCH   5   8
ENDBRANCH   1   2
BRANCH   1  15
ATOM     15  O   UNL     1       3.248   5.124  18.427  0.00  0.00    +0.000 OA
BRANCH  15  23
ATOM     16  C   UNL     1       6.983   4.971  14.318  0.00  0.00    +0.000 A 
ATOM     17  C   UNL     1       5.717   4.452  14.522  0.00  0.00    +0.000 A 
ATOM     18  N   UNL     1       5.533   4.547  15.870  0.00  0.00    +0.000 N 
ATOM     19  C   UNL     1       6.668   5.060  16.421  0.00  0.00    +0.000 A 
ATOM     20  N   UNL     1       7.567   5.349  15.513  0.00  0.00    +0.000 NA
ATOM     21  O   UNL     1       6.876   5.118  17.727  0.00  0.00    +0.000 OA
ATOM     22  C   UNL     1       5.702   5.302  18.510  0.00  0.00    +0.000 C 
ATOM     23  C   UNL     1       4.479   4.440  18.128  0.00  0.00    +0.000 C 
ATOM     24  C   UNL     1       4.430   4.038  16.646  0.00  0.00    +0.000 C 
BRANCH  16  26
ATOM     25  O   UNL     1       7.292   4.355  12.138  0.00  0.00    +0.000 OA
ATOM     26  N   UNL     1       7.701   5.070  13.066  0.00  0.00    +0.000 N 
ATOM     27  O   UNL     1       8.663   5.845  13.007  0.00  0.00    +0.000 OA
ENDBRANCH  16  26
ENDBRANCH  15  23
ENDBRANCH   1  15
TORSDOF 5
ENDMDL
MODEL 4
REMARK VINA RESULT:      -8.5      1.813      2.321
REMARK  Name = 
REMARK  5 active torsions:
REMARK  status: ('A' for Active; 'I' for Inactive)
REMARK    1  A    between atoms: N_2  and  C_4
REMARK    2  A    between atoms: C_11  and  O_12
REMARK    3  A    between atoms: O_12  and  C_13
REMARK    4  A    between atoms: C_13  and  C_14
REMARK    5  A    between atoms: C_17  and  C_18
REMARK                            x       y       z     vdW  Elec       q    Type
REMARK                         _______ _______ _______ _____ _____    ______ ____
ROOT
ATOM      1  C   UNL     1       3.079   5.623  17.993  0.00  0.00    +0.000 C 
ENDROOT
BRANCH   1   2
ATOM      2  C   UNL     1       2.400   6.649  18.865  0.00  0.00    +0.000 A 
ATOM      3  C   UNL     1       2.039   6.339  20.170  0.00  0.00    +0.000 A 
ATOM      4  C   UNL     1       1.428   7.317  20.954  0.00  0.00    +0.000 A 
ATOM      5  C   UNL     1       1.183   8.601  20.446  0.00  0.00    +0.000 A 
ATOM      6  C   UNL     1       1.578   8.803  19.121  0.00  0.00    +0.000 A 
ATOM      7  N   UNL     1       2.179   7.874  18.333  0.00  0.00    +0.000 NA
BRANCH   5   8
ATOM      8  C   UNL     1       0.560   9.662  21.267  0.00  0.00    +0.000 A 
ATOM      9  C   UNL     1      -0.162   9.350  22.431  0.00  0.00    +0.000 A 
ATOM     10  C   UNL     1      -0.750  10.368  23.179  0.00  0.00    +0.000 A 
ATOM     11  N   UNL     1      -0.658  11.678  22.869  0.00  0.00    +0.000 NA
ATOM     12  C   UNL     1       0.049  11.973  21.754  0.00  0.00    +0.000 A 
ATOM     13  C   UNL     1       0.656  11.024  20.943  0.00  0.00    +0.000 A 
ATOM     14  F   UNL     1       1.316  11.435  19.851  0.00  0.00    +0.000 F 
ENDBRANCH   5   8
ENDBRANCH   1   2
BRANCH   1  15
ATOM     15  O   UNL     1       3.563   4.543  18.801  0.00  0.00    +0.000 OA
BRANCH  15  23
ATOM     16  C   UNL     1       6.992   4.871  14.444  0.00  0.00    +0.000 A 
ATOM     17  C   UNL     1       5.856   4.145  14.754  0.00  0.00    +0.000 A 
ATOM     18  N   UNL     1       5.745   4.266  16.108  0.00  0.00    +0.000 N 
ATOM     19  C   UNL     1       6.802   4.997  16.559  0.00  0.00    +0.000 A 
ATOM     20  N   UNL     1       7.574   5.400  15.581  0.00  0.00    +0.000 NA
ATOM     21  O   UNL     1       7.080   5.149  17.844  0.00  0.00    +0.000 OA
ATOM     22  C   UNL     1       5.945   5.157  18.703  0.00  0.00    +0.000 C 
ATOM     23  C   UNL     1       4.876   4.075  18.438  0.00  0.00    +0.000 C 
ATOM     24  C   UNL     1       4.804   3.605  16.977  0.00  0.00    +0.000 C 
BRANCH  16  26
ATOM     25  O   UNL     1       8.531   5.854  13.067  0.00  0.00    +0.000 OA
ATOM     26  N   UNL     1       7.598   5.039  13.140  0.00  0.00    +0.000 N 
ATOM     27  O   UNL     1       7.148   4.374  12.200  0.00  0.00    +0.000 OA
ENDBRANCH  16  26
ENDBRANCH  15  23
ENDBRANCH   1  15
TORSDOF 5
ENDMDL
MODEL 5
REMARK VINA RESULT:      -8.4      1.159      1.317
REMARK  Name = 
REMARK  5 active torsions:
REMARK  status: ('A' for Active; 'I' for Inactive)
REMARK    1  A    between atoms: N_2  and  C_4
REMARK    2  A    between atoms: C_11  and  O_12
REMARK    3  A    between atoms: O_12  and  C_13
REMARK    4  A    between atoms: C_13  and  C_14
REMARK    5  A    between atoms: C_17  and  C_18
REMARK                            x       y       z     vdW  Elec       q    Type
REMARK                         _______ _______ _______ _____ _____    ______ ____
ROOT
ATOM      1  C   UNL     1       3.244   5.856  18.453  0.00  0.00    +0.000 C 
ENDROOT
BRANCH   1   2
ATOM      2  C   UNL     1       2.485   7.103  18.831  0.00  0.00    +0.000 A 
ATOM      3  C   UNL     1       2.228   8.087  17.885  0.00  0.00    +0.000 A 
ATOM      4  C   UNL     1       1.508   9.219  18.264  0.00  0.00    +0.000 A 
ATOM      5  C   UNL     1       1.039   9.371  19.577  0.00  0.00    +0.000 A 
ATOM      6  C   UNL     1       1.360   8.328  20.449  0.00  0.00    +0.000 A 
ATOM      7  N   UNL     1       2.055   7.211  20.110  0.00  0.00    +0.000 NA
BRANCH   5   8
ATOM      8  C   UNL     1       0.251  10.551  19.996  0.00  0.00    +0.000 A 
ATOM      9  C   UNL     1       0.750  11.457  20.948  0.00  0.00    +0.000 A 
ATOM     10  C   UNL     1      -0.018  12.553  21.334  0.00  0.00    +0.000 A 
ATOM     11  N   UNL     1      -1.239  12.830  20.831  0.00  0.00    +0.000 NA
ATOM     12  C   UNL     1      -1.708  11.962  19.906  0.00  0.00    +0.000 A 
ATOM     13  C   UNL     1      -1.018  10.838  19.473  0.00  0.00    +0.000 A 
ATOM     14  F   UNL     1      -1.593  10.039  18.563  0.00  0.00    +0.000 F 
ENDBRANCH   5   8
ENDBRANCH   1   2
BRANCH   1  15
ATOM     15  O   UNL     1       4.279   5.609  19.412  0.00  0.00    +0.000 OA
BRANCH  15  23
ATOM     16  C   UNL     1       6.734   4.771  14.500  0.00  0.00    +0.000 A 
ATOM     17  C   UNL     1       5.593   4.302  15.127  0.00  0.00    +0.000 A 
ATOM     18  N   UNL     1       5.787   4.611  16.441  0.00  0.00    +0.000 N 
ATOM     19  C   UNL     1       7.011   5.195  16.567  0.00  0.00    +0.000 A 
ATOM     20  N   UNL     1       7.612   5.328  15.411  0.00  0.00    +0.000 NA
ATOM     21  O   UNL     1       7.570   5.458  17.737  0.00  0.00    +0.000 OA
ATOM     22  C   UNL     1       6.653   5.774  18.779  0.00  0.00    +0.000 C 
ATOM     23  C   UNL     1       5.403   4.874  18.891  0.00  0.00    +0.000 C 
ATOM     24  C   UNL     1       4.960   4.243  17.562  0.00  0.00    +0.000 C 
BRANCH  16  26
ATOM     25  O   UNL     1       6.426   3.836  12.435  0.00  0.00    +0.000 OA
ATOM     26  N   UNL     1       7.073   4.663  13.097  0.00  0.00    +0.000 N 
ATOM     27  O   UNL     1       7.976   5.386  12.660  0.00  0.00    +0.000 OA
ENDBRANCH  16  26
ENDBRANCH  15  23
ENDBRANCH   1  15
TORSDOF 5
ENDMDL
MODEL 6
REMARK VINA RESULT:      -8.3      0.747      1.211
REMARK  Name = 
REMARK  5 active torsions:
REMARK  status: ('A' for Active; 'I' for Inactive)
REMARK    1  A    between atoms: N_2  and  C_4
REMARK    2  A    between atoms: C_11  and  O_12
REMARK    3  A    between atoms: O_12  and  C_13
REMARK    4  A    between atoms: C_13  and  C_14
REMARK    5  A    between atoms: C_17  and  C_18
REMARK                            x       y       z     vdW  Elec       q    Type
REMARK                         _______ _______ _______ _____ _____    ______ ____
ROOT
ATOM      1  C   UNL     1       3.603   5.810  19.521  0.00  0.00    +0.000 C 
ENDROOT
BRANCH   1   2
ATOM      2  C   UNL     1       2.718   7.024  19.393  0.00  0.00    +0.000 A 
ATOM      3  C   UNL     1       1.930   7.439  20.459  0.00  0.00    +0.000 A 
ATOM      4  C   UNL     1       1.137   8.576  20.312  0.00  0.00    +0.000 A 
ATOM      5  C   UNL     1       1.130   9.302  19.112  0.00  0.00    +0.000 A 
ATOM      6  C   UNL     1       1.952   8.793  18.104  0.00  0.00    +0.000 A 
ATOM      7  N   UNL     1       2.739   7.693  18.216  0.00  0.00    +0.000 NA
BRANCH   5   8
ATOM      8  C   UNL     1       0.317  10.526  18.942  0.00  0.00    +0.000 A 
ATOM      9  C   UNL     1       0.627  11.707  19.638  0.00  0.00    +0.000 A 
ATOM     10  C   UNL     1      -0.164  12.842  19.469  0.00  0.00    +0.000 A 
ATOM     11  N   UNL     1      -1.230  12.899  18.644  0.00  0.00    +0.000 NA
ATOM     12  C   UNL     1      -1.516  11.762  17.968  0.00  0.00    +0.000 A 
ATOM     13  C   UNL     1      -0.792  10.584  18.085  0.00  0.00    +0.000 A 
ATOM     14  F   UNL     1      -1.181   9.514  17.377  0.00  0.00    +0.000 F 
ENDBRANCH   5   8
ENDBRANCH   1   2
BRANCH   1  15
ATOM     15  O   UNL     1       3.242   4.839  18.531  0.00  0.00    +0.000 OA
BRANCH  15  23
ATOM     16  C   UNL     1       6.955   4.871  14.399  0.00  0.00    +0.000 A 
ATOM     17  C   UNL     1       5.614   4.551  14.520  0.00  0.00    +0.000 A 
ATOM     18  N   UNL     1       5.430   4.401  15.863  0.00  0.00    +0.000 N 
ATOM     19  C   UNL     1       6.628   4.586  16.482  0.00  0.00    +0.000 A 
ATOM     20  N   UNL     1       7.577   4.891  15.633  0.00  0.00    +0.000 NA
ATOM     21  O   UNL     1       6.824   4.341  17.769  0.00  0.00    +0.000 OA
ATOM     22  C   UNL     1       5.688   4.564  18.597  0.00  0.00    +0.000 C 
ATOM     23  C   UNL     1       4.339   4.025  18.075  0.00  0.00    +0.000 C 
ATOM     24  C   UNL     1       4.243   3.947  16.543  0.00  0.00    +0.000 C 
BRANCH  16  26
ATOM     25  O   UNL     1       7.299   4.489  12.171  0.00  0.00    +0.000 OA
ATOM     26  N   UNL     1       7.697   5.095  13.178  0.00  0.00    +0.000 N 
ATOM     27  O   UNL     1       8.669   5.859  13.220  0.00  0.00    +0.000 OA
ENDBRANCH  16  26
ENDBRANCH  15  23
ENDBRANCH   1  15
TORSDOF 5
ENDMDL
MODEL 7
REMARK VINA RESULT:      -8.3      1.913      2.329
REMARK  Name = 
REMARK  5 active torsions:
REMARK  status: ('A' for Active; 'I' for Inactive)
REMARK    1  A    between atoms: N_2  and  C_4
REMARK    2  A    between atoms: C_11  and  O_12
REMARK    3  A    between atoms: O_12  and  C_13
REMARK    4  A    between atoms: C_13  and  C_14
REMARK    5  A    between atoms: C_17  and  C_18
REMARK                            x       y       z     vdW  Elec       q    Type
REMARK                         _______ _______ _______ _____ _____    ______ ____
ROOT
ATOM      1  C   UNL     1       3.491   6.291  18.058  0.00  0.00    +0.000 C 
ENDROOT
BRANCH   1   2
ATOM      2  C   UNL     1       2.585   7.229  18.816  0.00  0.00    +0.000 A 
ATOM      3  C   UNL     1       2.130   6.898  20.086  0.00  0.00    +0.000 A 
ATOM      4  C   UNL     1       1.308   7.796  20.766  0.00  0.00    +0.000 A 
ATOM      5  C   UNL     1       0.944   9.021  20.189  0.00  0.00    +0.000 A 
ATOM      6  C   UNL     1       1.450   9.250  18.907  0.00  0.00    +0.000 A 
ATOM      7  N   UNL     1       2.255   8.399  18.220  0.00  0.00    +0.000 NA
BRANCH   5   8
ATOM      8  C   UNL     1       0.094  10.001  20.902  0.00  0.00    +0.000 A 
ATOM      9  C   UNL     1      -0.632  10.977  20.200  0.00  0.00    +0.000 A 
ATOM     10  C   UNL     1      -1.415  11.896  20.897  0.00  0.00    +0.000 A 
ATOM     11  N   UNL     1      -1.547  11.905  22.239  0.00  0.00    +0.000 NA
ATOM     12  C   UNL     1      -0.855  10.954  22.908  0.00  0.00    +0.000 A 
ATOM     13  C   UNL     1      -0.042  10.010  22.298  0.00  0.00    +0.000 A 
ATOM     14  F   UNL     1       0.611   9.126  23.066  0.00  0.00    +0.000 F 
ENDBRANCH   5   8
ENDBRANCH   1   2
BRANCH   1  15
ATOM     15  O   UNL     1       3.743   5.120  18.842  0.00  0.00    +0.000 OA
BRANCH  15  23
ATOM     16  C   UNL     1       6.874   4.796  14.265  0.00  0.00    +0.000 A 
ATOM     17  C   UNL     1       5.560   4.502  14.586  0.00  0.00    +0.000 A 
ATOM     18  N   UNL     1       5.555   4.456  15.950  0.00  0.00    +0.000 N 
ATOM     19  C   UNL     1       6.826   4.671  16.389  0.00  0.00    +0.000 A 
ATOM     20  N   UNL     1       7.655   4.900  15.401  0.00  0.00    +0.000 NA
ATOM     21  O   UNL     1       7.190   4.520  17.653  0.00  0.00    +0.000 OA
ATOM     22  C   UNL     1       6.175   4.819  18.605  0.00  0.00    +0.000 C 
ATOM     23  C   UNL     1       4.767   4.260  18.308  0.00  0.00    +0.000 C 
ATOM     24  C   UNL     1       4.468   4.069  16.813  0.00  0.00    +0.000 C 
BRANCH  16  26
ATOM     25  O   UNL     1       7.070   4.091  12.098  0.00  0.00    +0.000 OA
ATOM     26  N   UNL     1       7.448   4.918  12.943  0.00  0.00    +0.000 N 
ATOM     27  O   UNL     1       8.270   5.820  12.748  0.00  0.00    +0.000 OA
ENDBRANCH  16  26
ENDBRANCH  15  23
ENDBRANCH   1  15
TORSDOF 5
ENDMDL
MODEL 8
REMARK VINA RESULT:      -8.3      1.165      1.404
REMARK  Name = 
REMARK  5 active torsions:
REMARK  status: ('A' for Active; 'I' for Inactive)
REMARK    1  A    between atoms: N_2  and  C_4
REMARK    2  A    between atoms: C_11  and  O_12
REMARK    3  A    between atoms: O_12  and  C_13
REMARK    4  A    between atoms: C_13  and  C_14
REMARK    5  A    between atoms: C_17  and  C_18
REMARK                            x       y       z     vdW  Elec       q    Type
REMARK                         _______ _______ _______ _____ _____    ______ ____
ROOT
ATOM      1  C   UNL     1       3.044   5.629  18.976  0.00  0.00    +0.000 C 
ENDROOT
BRANCH   1   2
ATOM      2  C   UNL     1       2.337   6.933  19.245  0.00  0.00    +0.000 A 
ATOM      3  C   UNL     1       1.820   7.209  20.504  0.00  0.00    +0.000 A 
ATOM      4  C   UNL     1       1.187   8.432  20.723  0.00  0.00    +0.000 A 
ATOM      5  C   UNL     1       1.072   9.380  19.696  0.00  0.00    +0.000 A 
ATOM      6  C   UNL     1       1.617   8.997  18.468  0.00  0.00    +0.000 A 
ATOM      7  N   UNL     1       2.244   7.818  18.224  0.00  0.00    +0.000 NA
BRANCH   5   8
ATOM      8  C   UNL     1       0.427  10.694  19.911  0.00  0.00    +0.000 A 
ATOM      9  C   UNL     1       1.119  11.750  20.527  0.00  0.00    +0.000 A 
ATOM     10  C   UNL     1       0.484  12.974  20.730  0.00  0.00    +0.000 A 
ATOM     11  N   UNL     1      -0.783  13.235  20.348  0.00  0.00    +0.000 NA
ATOM     12  C   UNL     1      -1.440  12.218  19.743  0.00  0.00    +0.000 A 
ATOM     13  C   UNL     1      -0.891  10.964  19.514  0.00  0.00    +0.000 A 
ATOM     14  F   UNL     1      -1.645  10.028  18.922  0.00  0.00    +0.000 F 
ENDBRANCH   5   8
ENDBRANCH   1   2
BRANCH   1  15
ATOM     15  O   UNL     1       4.298   5.605  19.668  0.00  0.00    +0.000 OA
BRANCH  15  23
ATOM     16  C   UNL     1       6.694   4.633  14.752  0.00  0.00    +0.000 A 
ATOM     17  C   UNL     1       5.460   4.369  15.319  0.00  0.00    +0.000 A 
ATOM     18  N   UNL     1       5.668   4.534  16.657  0.00  0.00    +0.000 N 
ATOM     19  C   UNL     1       6.981   4.838  16.851  0.00  0.00    +0.000 A 
ATOM     20  N   UNL     1       7.637   4.927  15.720  0.00  0.00    +0.000 NA
ATOM     21  O   UNL     1       7.542   4.892  18.049  0.00  0.00    +0.000 OA
ATOM     22  C   UNL     1       6.675   5.316  19.095  0.00  0.00    +0.000 C 
ATOM     23  C   UNL     1       5.263   4.692  19.113  0.00  0.00    +0.000 C 
ATOM     24  C   UNL     1       4.745   4.266  17.730  0.00  0.00    +0.000 C 
BRANCH  16  26
ATOM     25  O   UNL     1       7.853   5.415  12.941  0.00  0.00    +0.000 OA
ATOM     26  N   UNL     1       7.052   4.560  13.352  0.00  0.00    +0.000 N 
ATOM     27  O   UNL     1       6.539   3.667  12.668  0.00  0.00    +0.000 OA
ENDBRANCH  16  26
ENDBRANCH  15  23
ENDBRANCH   1  15
TORSDOF 5
ENDMDL
MODEL 9
REMARK VINA RESULT:      -8.2      1.878      2.208
REMARK  Name = 
REMARK  5 active torsions:
REMARK  status: ('A' for Active; 'I' for Inactive)
REMARK    1  A    between atoms: N_2  and  C_4
REMARK    2  A    between atoms: C_11  and  O_12
REMARK    3  A    between atoms: O_12  and  C_13
REMARK    4  A    between atoms: C_13  and  C_14
REMARK    5  A    between atoms: C_17  and  C_18
REMARK                            x       y       z     vdW  Elec       q    Type
REMARK                         _______ _______ _______ _____ _____    ______ ____
ROOT
ATOM      1  C   UNL     1       3.113   6.574  18.550  0.00  0.00    +0.000 C 
ENDROOT
BRANCH   1   2
ATOM      2  C   UNL     1       2.192   7.555  19.230  0.00  0.00    +0.000 A 
ATOM      3  C   UNL     1       1.732   7.315  20.519  0.00  0.00    +0.000 A 
ATOM      4  C   UNL     1       0.895   8.252  21.124  0.00  0.00    +0.000 A 
ATOM      5  C   UNL     1       0.520   9.426  20.455  0.00  0.00    +0.000 A 
ATOM      6  C   UNL     1       1.032   9.563  19.162  0.00  0.00    +0.000 A 
ATOM      7  N   UNL     1       1.852   8.673  18.546  0.00  0.00    +0.000 NA
BRANCH   5   8
ATOM      8  C   UNL     1      -0.346  10.446  21.086  0.00  0.00    +0.000 A 
ATOM      9  C   UNL     1      -0.464  10.532  22.484  0.00  0.00    +0.000 A 
ATOM     10  C   UNL     1      -1.298  11.494  23.052  0.00  0.00    +0.000 A 
ATOM     11  N   UNL     1      -2.007  12.391  22.338  0.00  0.00    +0.000 NA
ATOM     12  C   UNL     1      -1.878  12.311  20.993  0.00  0.00    +0.000 A 
ATOM     13  C   UNL     1      -1.083  11.378  20.342  0.00  0.00    +0.000 A 
ATOM     14  F   UNL     1      -1.049  11.383  19.002  0.00  0.00    +0.000 F 
ENDBRANCH   5   8
ENDBRANCH   1   2
BRANCH   1  15
ATOM     15  O   UNL     1       3.846   5.835  19.534  0.00  0.00    +0.000 OA
BRANCH  15  23
ATOM     16  C   UNL     1       6.785   4.896  14.915  0.00  0.00    +0.000 A 
ATOM     17  C   UNL     1       5.445   4.861  15.257  0.00  0.00    +0.000 A 
ATOM     18  N   UNL     1       5.452   4.822  16.621  0.00  0.00    +0.000 N 
ATOM     19  C   UNL     1       6.747   4.791  17.040  0.00  0.00    +0.000 A 
ATOM     20  N   UNL     1       7.589   4.853  16.039  0.00  0.00    +0.000 NA
ATOM     21  O   UNL     1       7.095   4.579  18.300  0.00  0.00    +0.000 OA
ATOM     22  C   UNL     1       6.171   5.072  19.264  0.00  0.00    +0.000 C 
ATOM     23  C   UNL     1       4.677   4.791  18.991  0.00  0.00    +0.000 C 
ATOM     24  C   UNL     1       4.324   4.655  17.502  0.00  0.00    +0.000 C 
BRANCH  16  26
ATOM     25  O   UNL     1       6.848   4.112  12.767  0.00  0.00    +0.000 OA
ATOM     26  N   UNL     1       7.352   4.900  13.584  0.00  0.00    +0.000 N 
ATOM     27  O   UNL     1       8.290   5.671  13.354  0.00  0.00    +0.000 OA
ENDBRANCH  16  26
ENDBRANCH  15  23
ENDBRANCH   1  15
TORSDOF 5
ENDMDL
