MODEL 1
REMARK VINA RESULT:      -6.2      0.000      0.000
REMARK  Name = 
REMARK  15 active torsions:
REMARK  status: ('A' for Active; 'I' for Inactive)
REMARK    1  A    between atoms: C_1  and  C_2
REMARK    2  A    between atoms: C_2  and  C_3
REMARK    3  A    between atoms: C_3  and  C_4
REMARK    4  A    between atoms: C_4  and  C_5
REMARK    5  A    between atoms: C_5  and  S_6
REMARK    6  A    between atoms: S_6  and  C_7
REMARK    7  A    between atoms: C_9  and  O_10
REMARK    8  A    between atoms: O_10  and  C_11
REMARK    9  A    between atoms: C_12  and  C_13
REMARK   10  A    between atoms: C_13  and  C_14
REMARK   11  A    between atoms: C_14  and  N_15
REMARK   12  A    between atoms: N_15  and  C_16
REMARK   13  A    between atoms: N_15  and  C_17
REMARK   14  A    between atoms: C_19  and  O_20
REMARK   15  A    between atoms: O_20  and  C_21
REMARK                            x       y       z     vdW  Elec       q    Type
REMARK                         _______ _______ _______ _____ _____    ______ ____
ROOT
ATOM      1  C   UNL     1       5.797   5.219  15.841  0.00  0.00    +0.000 A 
ATOM      2  C   UNL     1       4.735   4.307  15.995  0.00  0.00    +0.000 A 
ATOM      3  C   UNL     1       3.795   4.400  17.036  0.00  0.00    +0.000 A 
ATOM      4  C   UNL     1       3.917   5.430  17.974  0.00  0.00    +0.000 A 
ATOM      5  C   UNL     1       4.909   6.395  17.753  0.00  0.00    +0.000 A 
ATOM      6  C   UNL     1       5.816   6.334  16.682  0.00  0.00    +0.000 A 
ENDROOT
BRANCH   3   7
ATOM      7  O   UNL     1       2.736   3.535  17.145  0.00  0.00    +0.000 OA
ATOM      8  C   UNL     1       3.066   2.235  17.643  0.00  0.00    +0.000 C 
ENDBRANCH   3   7
BRANCH   6   9
ATOM      9  O   UNL     1       6.551   7.481  16.638  0.00  0.00    +0.000 OA
ATOM     10  C   UNL     1       7.476   7.784  17.655  0.00  0.00    +0.000 C 
ENDBRANCH   6   9
BRANCH   1  11
ATOM     11  S   UNL     1       6.947   4.814  14.520  0.00  0.00    +0.000 S 
BRANCH  11  12
ATOM     12  C   UNL     1       6.032   3.457  13.653  0.00  0.00    +0.000 C 
BRANCH  12  13
ATOM     13  C   UNL     1       6.452   3.314  12.193  0.00  0.00    +0.000 C 
BRANCH  13  14
ATOM     14  C   UNL     1       5.678   2.240  11.429  0.00  0.00    +0.000 C 
BRANCH  14  16
ATOM     15  C   UNL     1       6.060  -0.259  11.304  0.00  0.00    +0.000 C 
ATOM     16  C   UNL     1       6.627   1.117  10.989  0.00  0.00    +0.000 C 
ENDBRANCH  14  16
ENDBRANCH  13  14
ENDBRANCH  12  13
ENDBRANCH  11  12
ENDBRANCH   1  11
BRANCH   4  17
ATOM     17  C   UNL     1       3.030   5.611  19.188  0.00  0.00    +0.000 C 
BRANCH  17  18
ATOM     18  C   UNL     1       3.367   4.684  20.370  0.00  0.00    +0.000 C 
BRANCH  18  19
ATOM     19  N   UNL     1       2.175   4.163  21.079  0.00  0.00    +0.000 NA
ATOM     20  C   UNL     1       0.977   4.186  20.234  0.00  0.00    +0.000 C 
ATOM     21  C   UNL     1       2.434   2.794  21.536  0.00  0.00    +0.000 C 
ENDBRANCH  18  19
ENDBRANCH  17  18
ENDBRANCH   4  17
TORSDOF 10
ENDMDL
MODEL 2
REMARK VINA RESULT:      -6.1      3.222      6.609
REMARK  Name = 
REMARK  15 active torsions:
REMARK  status: ('A' for Active; 'I' for Inactive)
REMARK    1  A    between atoms: C_1  and  C_2
REMARK    2  A    between atoms: C_2  and  C_3
REMARK    3  A    between atoms: C_3  and  C_4
REMARK    4  A    between atoms: C_4  and  C_5
REMARK    5  A    between atoms: C_5  and  S_6
REMARK    6  A    between atoms: S_6  and  C_7
REMARK    7  A    between atoms: C_9  and  O_10
REMARK    8  A    between atoms: O_10  and  C_11
REMARK    9  A    between atoms: C_12  and  C_13
REMARK   10  A    between atoms: C_13  and  C_14
REMARK   11  A    between atoms: C_14  and  N_15
REMARK   12  A    between atoms: N_15  and  C_16
REMARK   13  A    between atoms: N_15  and  C_17
REMARK   14  A    between atoms: C_19  and  O_20
REMARK   15  A    between atoms: O_20  and  C_21
REMARK                            x       y       z     vdW  Elec       q    Type
REMARK                         _______ _______ _______ _____ _____    ______ ____
ROOT
ATOM      1  C   UNL     1       3.275   5.858  19.344  0.00  0.00    +0.000 A 
ATOM      2  C   UNL     1       4.527   5.256  19.577  0.00  0.00    +0.000 A 
ATOM      3  C   UNL     1       5.531   5.183  18.596  0.00  0.00    +0.000 A 
ATOM      4  C   UNL     1       5.283   5.715  17.326  0.00  0.00    +0.000 A 
ATOM      5  C   UNL     1       4.079   6.407  17.136  0.00  0.00    +0.000 A 
ATOM      6  C   UNL     1       3.097   6.528  18.132  0.00  0.00    +0.000 A 
ENDROOT
BRANCH   3   7
ATOM      7  O   UNL     1       6.764   4.639  18.851  0.00  0.00    +0.000 OA
ATOM      8  C   UNL     1       7.703   5.530  19.460  0.00  0.00    +0.000 C 
ENDBRANCH   3   7
BRANCH   6   9
ATOM      9  O   UNL     1       2.119   7.380  17.710  0.00  0.00    +0.000 OA
ATOM     10  C   UNL     1       2.114   8.728  18.115  0.00  0.00    +0.000 C 
ENDBRANCH   6   9
BRANCH   1  11
ATOM     11  S   UNL     1       2.107   5.706  20.703  0.00  0.00    +0.000 S 
BRANCH  11  12
ATOM     12  C   UNL     1       2.265   3.906  21.110  0.00  0.00    +0.000 C 
BRANCH  12  13
ATOM     13  C   UNL     1       1.009   3.117  20.753  0.00  0.00    +0.000 C 
BRANCH  13  14
ATOM     14  C   UNL     1       0.893   2.777  19.267  0.00  0.00    +0.000 C 
BRANCH  14  16
ATOM     15  C   UNL     1       2.614   2.842  17.412  0.00  0.00    +0.000 C 
ATOM     16  C   UNL     1       2.227   2.224  18.747  0.00  0.00    +0.000 C 
ENDBRANCH  14  16
ENDBRANCH  13  14
ENDBRANCH  12  13
ENDBRANCH  11  12
ENDBRANCH   1  11
BRANCH   4  17
ATOM     17  C   UNL     1       6.235   5.641  16.151  0.00  0.00    +0.000 C 
BRANCH  17  18
ATOM     18  C   UNL     1       5.632   5.026  14.875  0.00  0.00    +0.000 C 
BRANCH  18  19
ATOM     19  N   UNL     1       6.610   4.279  14.052  0.00  0.00    +0.000 NA
ATOM     20  C   UNL     1       5.970   3.583  12.931  0.00  0.00    +0.000 C 
ATOM     21  C   UNL     1       7.633   5.200  13.547  0.00  0.00    +0.000 C 
ENDBRANCH  18  19
ENDBRANCH  17  18
ENDBRANCH   4  17
TORSDOF 10
ENDMDL
MODEL 3
REMARK VINA RESULT:      -6.0      1.877      2.537
REMARK  Name = 
REMARK  15 active torsions:
REMARK  status: ('A' for Active; 'I' for Inactive)
REMARK    1  A    between atoms: C_1  and  C_2
REMARK    2  A    between atoms: C_2  and  C_3
REMARK    3  A    between atoms: C_3  and  C_4
REMARK    4  A    between atoms: C_4  and  C_5
REMARK    5  A    between atoms: C_5  and  S_6
REMARK    6  A    between atoms: S_6  and  C_7
REMARK    7  A    between atoms: C_9  and  O_10
REMARK    8  A    between atoms: O_10  and  C_11
REMARK    9  A    between atoms: C_12  and  C_13
REMARK   10  A    between atoms: C_13  and  C_14
REMARK   11  A    between atoms: C_14  and  N_15
REMARK   12  A    between atoms: N_15  and  C_16
REMARK   13  A    between atoms: N_15  and  C_17
REMARK   14  A    between atoms: C_19  and  O_20
REMARK   15  A    between atoms: O_20  and  C_21
REMARK                            x       y       z     vdW  Elec       q    Type
REMARK                         _______ _______ _______ _____ _____    ______ ____
ROOT
ATOM      1  C   UNL     1       4.514   5.978  16.951  0.00  0.00    +0.000 A 
ATOM      2  C   UNL     1       4.610   4.643  17.388  0.00  0.00    +0.000 A 
ATOM      3  C   UNL     1       4.022   4.187  18.580  0.00  0.00    +0.000 A 
ATOM      4  C   UNL     1       3.319   5.092  19.383  0.00  0.00    +0.000 A 
ATOM      5  C   UNL     1       3.135   6.391  18.889  0.00  0.00    +0.000 A 
ATOM      6  C   UNL     1       3.678   6.834  17.672  0.00  0.00    +0.000 A 
ENDROOT
BRANCH   3   7
ATOM      7  O   UNL     1       4.080   2.873  18.969  0.00  0.00    +0.000 OA
ATOM      8  C   UNL     1       3.634   1.932  17.987  0.00  0.00    +0.000 C 
ENDBRANCH   3   7
BRANCH   6   9
ATOM      9  O   UNL     1       3.203   8.079  17.386  0.00  0.00    +0.000 OA
ATOM     10  C   UNL     1       1.954   8.505  17.874  0.00  0.00    +0.000 C 
ENDBRANCH   6   9
BRANCH   1  11
ATOM     11  S   UNL     1       5.464   6.353  15.471  0.00  0.00    +0.000 S 
BRANCH  11  12
ATOM     12  C   UNL     1       6.840   5.121  15.609  0.00  0.00    +0.000 C 
BRANCH  12  13
ATOM     13  C   UNL     1       6.851   4.130  14.449  0.00  0.00    +0.000 C 
BRANCH  13  14
ATOM     14  C   UNL     1       5.525   4.048  13.694  0.00  0.00    +0.000 C 
BRANCH  14  16
ATOM     15  C   UNL     1       4.434   3.263  11.548  0.00  0.00    +0.000 C 
ATOM     16  C   UNL     1       5.729   3.352  12.342  0.00  0.00    +0.000 C 
ENDBRANCH  14  16
ENDBRANCH  13  14
ENDBRANCH  12  13
ENDBRANCH  11  12
ENDBRANCH   1  11
BRANCH   4  17
ATOM     17  C   UNL     1       2.701   4.765  20.726  0.00  0.00    +0.000 C 
BRANCH  17  18
ATOM     18  C   UNL     1       1.176   4.555  20.697  0.00  0.00    +0.000 C 
BRANCH  18  19
ATOM     19  N   UNL     1       0.768   3.133  20.736  0.00  0.00    +0.000 NA
ATOM     20  C   UNL     1       0.621   2.564  19.393  0.00  0.00    +0.000 C 
ATOM     21  C   UNL     1       1.752   2.360  21.499  0.00  0.00    +0.000 C 
ENDBRANCH  18  19
ENDBRANCH  17  18
ENDBRANCH   4  17
TORSDOF 10
ENDMDL
MODEL 4
REMARK VINA RESULT:      -6.0      2.045      3.059
REMARK  Name = 
REMARK  15 active torsions:
REMARK  status: ('A' for Active; 'I' for Inactive)
REMARK    1  A    between atoms: C_1  and  C_2
REMARK    2  A    between atoms: C_2  and  C_3
REMARK    3  A    between atoms: C_3  and  C_4
REMARK    4  A    between atoms: C_4  and  C_5
REMARK    5  A    between atoms: C_5  and  S_6
REMARK    6  A    between atoms: S_6  and  C_7
REMARK    7  A    between atoms: C_9  and  O_10
REMARK    8  A    between atoms: O_10  and  C_11
REMARK    9  A    between atoms: C_12  and  C_13
REMARK   10  A    between atoms: C_13  and  C_14
REMARK   11  A    between atoms: C_14  and  N_15
REMARK   12  A    between atoms: N_15  and  C_16
REMARK   13  A    between atoms: N_15  and  C_17
REMARK   14  A    between atoms: C_19  and  O_20
REMARK   15  A    between atoms: O_20  and  C_21
REMARK                            x       y       z     vdW  Elec       q    Type
REMARK                         _______ _______ _______ _____ _____    ______ ____
ROOT
ATOM      1  C   UNL     1       5.529   6.106  17.724  0.00  0.00    +0.000 A 
ATOM      2  C   UNL     1       4.312   6.775  17.489  0.00  0.00    +0.000 A 
ATOM      3  C   UNL     1       3.178   6.603  18.301  0.00  0.00    +0.000 A 
ATOM      4  C   UNL     1       3.245   5.721  19.385  0.00  0.00    +0.000 A 
ATOM      5  C   UNL     1       4.488   5.143  19.677  0.00  0.00    +0.000 A 
ATOM      6  C   UNL     1       5.636   5.356  18.897  0.00  0.00    +0.000 A 
ENDROOT
BRANCH   3   7
ATOM      7  O   UNL     1       2.015   7.299  18.091  0.00  0.00    +0.000 OA
ATOM      8  C   UNL     1       2.177   8.711  17.932  0.00  0.00    +0.000 C 
ENDBRANCH   3   7
BRANCH   6   9
ATOM      9  O   UNL     1       6.717   4.796  19.511  0.00  0.00    +0.000 OA
ATOM     10  C   UNL     1       7.876   5.552  19.763  0.00  0.00    +0.000 C 
ENDBRANCH   6   9
BRANCH   1  11
ATOM     11  S   UNL     1       6.789   6.380  16.471  0.00  0.00    +0.000 S 
BRANCH  11  12
ATOM     12  C   UNL     1       7.060   4.655  15.853  0.00  0.00    +0.000 C 
BRANCH  12  13
ATOM     13  C   UNL     1       5.751   3.947  15.516  0.00  0.00    +0.000 C 
BRANCH  13  14
ATOM     14  C   UNL     1       5.410   3.954  14.026  0.00  0.00    +0.000 C 
BRANCH  14  16
ATOM     15  C   UNL     1       6.636   3.289  11.913  0.00  0.00    +0.000 C 
ATOM     16  C   UNL     1       6.688   4.111  13.192  0.00  0.00    +0.000 C 
ENDBRANCH  14  16
ENDBRANCH  13  14
ENDBRANCH  12  13
ENDBRANCH  11  12
ENDBRANCH   1  11
BRANCH   4  17
ATOM     17  C   UNL     1       2.086   5.376  20.297  0.00  0.00    +0.000 C 
BRANCH  17  18
ATOM     18  C   UNL     1       1.157   4.270  19.763  0.00  0.00    +0.000 C 
BRANCH  18  19
ATOM     19  N   UNL     1       1.441   2.929  20.323  0.00  0.00    +0.000 NA
ATOM     20  C   UNL     1       2.228   2.103  19.403  0.00  0.00    +0.000 C 
ATOM     21  C   UNL     1       2.153   3.069  21.597  0.00  0.00    +0.000 C 
ENDBRANCH  18  19
ENDBRANCH  17  18
ENDBRANCH   4  17
TORSDOF 10
ENDMDL
MODEL 5
REMARK VINA RESULT:      -5.9      1.976      2.666
REMARK  Name = 
REMARK  15 active torsions:
REMARK  status: ('A' for Active; 'I' for Inactive)
REMARK    1  A    between atoms: C_1  and  C_2
REMARK    2  A    between atoms: C_2  and  C_3
REMARK    3  A    between atoms: C_3  and  C_4
REMARK    4  A    between atoms: C_4  and  C_5
REMARK    5  A    between atoms: C_5  and  S_6
REMARK    6  A    between atoms: S_6  and  C_7
REMARK    7  A    between atoms: C_9  and  O_10
REMARK    8  A    between atoms: O_10  and  C_11
REMARK    9  A    between atoms: C_12  and  C_13
REMARK   10  A    between atoms: C_13  and  C_14
REMARK   11  A    between atoms: C_14  and  N_15
REMARK   12  A    between atoms: N_15  and  C_16
REMARK   13  A    between atoms: N_15  and  C_17
REMARK   14  A    between atoms: C_19  and  O_20
REMARK   15  A    between atoms: O_20  and  C_21
REMARK                            x       y       z     vdW  Elec       q    Type
REMARK                         _______ _______ _______ _____ _____    ______ ____
ROOT
ATOM      1  C   UNL     1       5.439   5.611  17.186  0.00  0.00    +0.000 A 
ATOM      2  C   UNL     1       4.189   6.244  17.047  0.00  0.00    +0.000 A 
ATOM      3  C   UNL     1       3.193   6.190  18.037  0.00  0.00    +0.000 A 
ATOM      4  C   UNL     1       3.437   5.468  19.210  0.00  0.00    +0.000 A 
ATOM      5  C   UNL     1       4.720   4.933  19.389  0.00  0.00    +0.000 A 
ATOM      6  C   UNL     1       5.735   5.032  18.422  0.00  0.00    +0.000 A 
ENDROOT
BRANCH   3   7
ATOM      7  O   UNL     1       1.999   6.853  17.911  0.00  0.00    +0.000 OA
ATOM      8  C   UNL     1       2.080   8.275  18.049  0.00  0.00    +0.000 C 
ENDBRANCH   3   7
BRANCH   6   9
ATOM      9  O   UNL     1       6.905   4.560  18.938  0.00  0.00    +0.000 OA
ATOM     10  C   UNL     1       7.861   5.439  19.481  0.00  0.00    +0.000 C 
ENDBRANCH   6   9
BRANCH   1  11
ATOM     11  S   UNL     1       6.492   5.703  15.732  0.00  0.00    +0.000 S 
BRANCH  11  12
ATOM     12  C   UNL     1       5.626   4.532  14.588  0.00  0.00    +0.000 C 
BRANCH  12  13
ATOM     13  C   UNL     1       6.600   3.733  13.728  0.00  0.00    +0.000 C 
BRANCH  13  14
ATOM     14  C   UNL     1       6.047   3.357  12.353  0.00  0.00    +0.000 C 
BRANCH  14  16
ATOM     15  C   UNL     1       3.911   3.123  11.016  0.00  0.00    +0.000 C 
ATOM     16  C   UNL     1       4.548   3.677  12.281  0.00  0.00    +0.000 C 
ENDBRANCH  14  16
ENDBRANCH  13  14
ENDBRANCH  12  13
ENDBRANCH  11  12
ENDBRANCH   1  11
BRANCH   4  17
ATOM     17  C   UNL     1       2.435   5.257  20.326  0.00  0.00    +0.000 C 
BRANCH  17  18
ATOM     18  C   UNL     1       1.222   4.390  19.942  0.00  0.00    +0.000 C 
BRANCH  18  19
ATOM     19  N   UNL     1       1.315   2.989  20.414  0.00  0.00    +0.000 NA
ATOM     20  C   UNL     1       1.910   2.107  19.407  0.00  0.00    +0.000 C 
ATOM     21  C   UNL     1       2.106   2.938  21.648  0.00  0.00    +0.000 C 
ENDBRANCH  18  19
ENDBRANCH  17  18
ENDBRANCH   4  17
TORSDOF 10
ENDMDL
MODEL 6
REMARK VINA RESULT:      -5.9      1.800      2.531
REMARK  Name = 
REMARK  15 active torsions:
REMARK  status: ('A' for Active; 'I' for Inactive)
REMARK    1  A    between atoms: C_1  and  C_2
REMARK    2  A    between atoms: C_2  and  C_3
REMARK    3  A    between atoms: C_3  and  C_4
REMARK    4  A    between atoms: C_4  and  C_5
REMARK    5  A    between atoms: C_5  and  S_6
REMARK    6  A    between atoms: S_6  and  C_7
REMARK    7  A    between atoms: C_9  and  O_10
REMARK    8  A    between atoms: O_10  and  C_11
REMARK    9  A    between atoms: C_12  and  C_13
REMARK   10  A    between atoms: C_13  and  C_14
REMARK   11  A    between atoms: C_14  and  N_15
REMARK   12  A    between atoms: N_15  and  C_16
REMARK   13  A    between atoms: N_15  and  C_17
REMARK   14  A    between atoms: C_19  and  O_20
REMARK   15  A    between atoms: O_20  and  C_21
REMARK                            x       y       z     vdW  Elec       q    Type
REMARK                         _______ _______ _______ _____ _____    ______ ____
ROOT
ATOM      1  C   UNL     1       4.946   5.256  17.386  0.00  0.00    +0.000 A 
ATOM      2  C   UNL     1       4.736   3.863  17.370  0.00  0.00    +0.000 A 
ATOM      3  C   UNL     1       3.487   3.278  17.639  0.00  0.00    +0.000 A 
ATOM      4  C   UNL     1       2.401   4.103  17.949  0.00  0.00    +0.000 A 
ATOM      5  C   UNL     1       2.591   5.489  17.856  0.00  0.00    +0.000 A 
ATOM      6  C   UNL     1       3.826   6.075  17.535  0.00  0.00    +0.000 A 
ENDROOT
BRANCH   3   7
ATOM      7  O   UNL     1       3.284   1.923  17.571  0.00  0.00    +0.000 OA
ATOM      8  C   UNL     1       3.831   1.174  18.660  0.00  0.00    +0.000 C 
ENDBRANCH   3   7
BRANCH   6   9
ATOM      9  O   UNL     1       3.664   7.418  17.367  0.00  0.00    +0.000 OA
ATOM     10  C   UNL     1       2.559   8.087  17.923  0.00  0.00    +0.000 C 
ENDBRANCH   6   9
BRANCH   1  11
ATOM     11  S   UNL     1       6.657   5.758  17.149  0.00  0.00    +0.000 S 
BRANCH  11  12
ATOM     12  C   UNL     1       7.150   4.685  15.723  0.00  0.00    +0.000 C 
BRANCH  12  13
ATOM     13  C   UNL     1       6.286   4.927  14.489  0.00  0.00    +0.000 C 
BRANCH  13  14
ATOM     14  C   UNL     1       6.316   3.780  13.478  0.00  0.00    +0.000 C 
BRANCH  14  16
ATOM     15  C   UNL     1       5.067   2.775  11.519  0.00  0.00    +0.000 C 
ATOM     16  C   UNL     1       4.989   3.716  12.712  0.00  0.00    +0.000 C 
ENDBRANCH  14  16
ENDBRANCH  13  14
ENDBRANCH  12  13
ENDBRANCH  11  12
ENDBRANCH   1  11
BRANCH   4  17
ATOM     17  C   UNL     1       1.020   3.615  18.335  0.00  0.00    +0.000 C 
BRANCH  17  18
ATOM     18  C   UNL     1       0.771   3.532  19.852  0.00  0.00    +0.000 C 
BRANCH  18  19
ATOM     19  N   UNL     1       2.008   3.578  20.664  0.00  0.00    +0.000 NA
ATOM     20  C   UNL     1       2.205   4.885  21.297  0.00  0.00    +0.000 C 
ATOM     21  C   UNL     1       1.961   2.532  21.691  0.00  0.00    +0.000 C 
ENDBRANCH  18  19
ENDBRANCH  17  18
ENDBRANCH   4  17
TORSDOF 10
ENDMDL
MODEL 7
REMARK VINA RESULT:      -5.9      2.125      2.980
REMARK  Name = 
REMARK  15 active torsions:
REMARK  status: ('A' for Active; 'I' for Inactive)
REMARK    1  A    between atoms: C_1  and  C_2
REMARK    2  A    between atoms: C_2  and  C_3
REMARK    3  A    between atoms: C_3  and  C_4
REMARK    4  A    between atoms: C_4  and  C_5
REMARK    5  A    between atoms: C_5  and  S_6
REMARK    6  A    between atoms: S_6  and  C_7
REMARK    7  A    between atoms: C_9  and  O_10
REMARK    8  A    between atoms: O_10  and  C_11
REMARK    9  A    between atoms: C_12  and  C_13
REMARK   10  A    between atoms: C_13  and  C_14
REMARK   11  A    between atoms: C_14  and  N_15
REMARK   12  A    between atoms: N_15  and  C_16
REMARK   13  A    between atoms: N_15  and  C_17
REMARK   14  A    between atoms: C_19  and  O_20
REMARK   15  A    between atoms: O_20  and  C_21
REMARK                            x       y       z     vdW  Elec       q    Type
REMARK                         _______ _______ _______ _____ _____    ______ ____
ROOT
ATOM      1  C   UNL     1       5.521   6.115  17.690  0.00  0.00    +0.000 A 
ATOM      2  C   UNL     1       4.323   6.811  17.439  0.00  0.00    +0.000 A 
ATOM      3  C   UNL     1       3.186   6.690  18.256  0.00  0.00    +0.000 A 
ATOM      4  C   UNL     1       3.229   5.836  19.362  0.00  0.00    +0.000 A 
ATOM      5  C   UNL     1       4.456   5.231  19.668  0.00  0.00    +0.000 A 
ATOM      6  C   UNL     1       5.609   5.393  18.882  0.00  0.00    +0.000 A 
ENDROOT
BRANCH   3   7
ATOM      7  O   UNL     1       2.042   7.413  18.029  0.00  0.00    +0.000 OA
ATOM      8  C   UNL     1       2.250   8.795  17.724  0.00  0.00    +0.000 C 
ENDBRANCH   3   7
BRANCH   6   9
ATOM      9  O   UNL     1       6.674   4.819  19.510  0.00  0.00    +0.000 OA
ATOM     10  C   UNL     1       7.851   5.552  19.751  0.00  0.00    +0.000 C 
ENDBRANCH   6   9
BRANCH   1  11
ATOM     11  S   UNL     1       6.787   6.322  16.430  0.00  0.00    +0.000 S 
BRANCH  11  12
ATOM     12  C   UNL     1       6.773   4.651  15.631  0.00  0.00    +0.000 C 
BRANCH  12  13
ATOM     13  C   UNL     1       6.152   4.679  14.238  0.00  0.00    +0.000 C 
BRANCH  13  14
ATOM     14  C   UNL     1       6.023   3.301  13.589  0.00  0.00    +0.000 C 
BRANCH  14  16
ATOM     15  C   UNL     1       4.466   3.219  11.596  0.00  0.00    +0.000 C 
ATOM     16  C   UNL     1       5.895   3.443  12.067  0.00  0.00    +0.000 C 
ENDBRANCH  14  16
ENDBRANCH  13  14
ENDBRANCH  12  13
ENDBRANCH  11  12
ENDBRANCH   1  11
BRANCH   4  17
ATOM     17  C   UNL     1       2.063   5.546  20.283  0.00  0.00    +0.000 C 
BRANCH  17  18
ATOM     18  C   UNL     1       1.166   4.377  19.834  0.00  0.00    +0.000 C 
BRANCH  18  19
ATOM     19  N   UNL     1       1.784   3.044  20.020  0.00  0.00    +0.000 NA
ATOM     20  C   UNL     1       1.603   2.538  21.384  0.00  0.00    +0.000 C 
ATOM     21  C   UNL     1       1.209   2.098  19.059  0.00  0.00    +0.000 C 
ENDBRANCH  18  19
ENDBRANCH  17  18
ENDBRANCH   4  17
TORSDOF 10
ENDMDL
MODEL 8
REMARK VINA RESULT:      -5.7      1.123      1.704
REMARK  Name = 
REMARK  15 active torsions:
REMARK  status: ('A' for Active; 'I' for Inactive)
REMARK    1  A    between atoms: C_1  and  C_2
REMARK    2  A    between atoms: C_2  and  C_3
REMARK    3  A    between atoms: C_3  and  C_4
REMARK    4  A    between atoms: C_4  and  C_5
REMARK    5  A    between atoms: C_5  and  S_6
REMARK    6  A    between atoms: S_6  and  C_7
REMARK    7  A    between atoms: C_9  and  O_10
REMARK    8  A    between atoms: O_10  and  C_11
REMARK    9  A    between atoms: C_12  and  C_13
REMARK   10  A    between atoms: C_13  and  C_14
REMARK   11  A    between atoms: C_14  and  N_15
REMARK   12  A    between atoms: N_15  and  C_16
REMARK   13  A    between atoms: N_15  and  C_17
REMARK   14  A    between atoms: C_19  and  O_20
REMARK   15  A    between atoms: O_20  and  C_21
REMARK                            x       y       z     vdW  Elec       q    Type
REMARK                         _______ _______ _______ _____ _____    ______ ____
ROOT
ATOM      1  C   UNL     1       6.099   5.176  15.725  0.00  0.00    +0.000 A 
ATOM      2  C   UNL     1       5.088   4.226  15.967  0.00  0.00    +0.000 A 
ATOM      3  C   UNL     1       4.371   4.169  17.174  0.00  0.00    +0.000 A 
ATOM      4  C   UNL     1       4.673   5.081  18.191  0.00  0.00    +0.000 A 
ATOM      5  C   UNL     1       5.603   6.090  17.903  0.00  0.00    +0.000 A 
ATOM      6  C   UNL     1       6.282   6.181  16.677  0.00  0.00    +0.000 A 
ENDROOT
BRANCH   3   7
ATOM      7  O   UNL     1       3.354   3.271  17.379  0.00  0.00    +0.000 OA
ATOM      8  C   UNL     1       3.773   1.961  17.769  0.00  0.00    +0.000 C 
ENDBRANCH   3   7
BRANCH   6   9
ATOM      9  O   UNL     1       6.995   7.343  16.634  0.00  0.00    +0.000 OA
ATOM     10  C   UNL     1       7.838   7.711  17.698  0.00  0.00    +0.000 C 
ENDBRANCH   6   9
BRANCH   1  11
ATOM     11  S   UNL     1       6.969   4.963  14.165  0.00  0.00    +0.000 S 
BRANCH  11  12
ATOM     12  C   UNL     1       6.054   3.526  13.439  0.00  0.00    +0.000 C 
BRANCH  12  13
ATOM     13  C   UNL     1       5.675   3.756  11.980  0.00  0.00    +0.000 C 
BRANCH  13  14
ATOM     14  C   UNL     1       4.898   2.599  11.352  0.00  0.00    +0.000 C 
BRANCH  14  16
ATOM     15  C   UNL     1       3.353   4.026   9.943  0.00  0.00    +0.000 C 
ATOM     16  C   UNL     1       3.448   3.021  11.081  0.00  0.00    +0.000 C 
ENDBRANCH  14  16
ENDBRANCH  13  14
ENDBRANCH  12  13
ENDBRANCH  11  12
ENDBRANCH   1  11
BRANCH   4  17
ATOM     17  C   UNL     1       4.041   5.090  19.567  0.00  0.00    +0.000 C 
BRANCH  17  18
ATOM     18  C   UNL     1       2.510   4.936  19.570  0.00  0.00    +0.000 C 
BRANCH  18  19
ATOM     19  N   UNL     1       2.035   3.701  20.234  0.00  0.00    +0.000 NA
ATOM     20  C   UNL     1       2.330   3.697  21.669  0.00  0.00    +0.000 C 
ATOM     21  C   UNL     1       0.591   3.554  20.023  0.00  0.00    +0.000 C 
ENDBRANCH  18  19
ENDBRANCH  17  18
ENDBRANCH   4  17
TORSDOF 10
ENDMDL
MODEL 9
REMARK VINA RESULT:      -5.6      3.940      6.253
REMARK  Name = 
REMARK  15 active torsions:
REMARK  status: ('A' for Active; 'I' for Inactive)
REMARK    1  A    between atoms: C_1  and  C_2
REMARK    2  A    between atoms: C_2  and  C_3
REMARK    3  A    between atoms: C_3  and  C_4
REMARK    4  A    between atoms: C_4  and  C_5
REMARK    5  A    between atoms: C_5  and  S_6
REMARK    6  A    between atoms: S_6  and  C_7
REMARK    7  A    between atoms: C_9  and  O_10
REMARK    8  A    between atoms: O_10  and  C_11
REMARK    9  A    between atoms: C_12  and  C_13
REMARK   10  A    between atoms: C_13  and  C_14
REMARK   11  A    between atoms: C_14  and  N_15
REMARK   12  A    between atoms: N_15  and  C_16
REMARK   13  A    between atoms: N_15  and  C_17
REMARK   14  A    between atoms: C_19  and  O_20
REMARK   15  A    between atoms: O_20  and  C_21
REMARK                            x       y       z     vdW  Elec       q    Type
REMARK                         _______ _______ _______ _____ _____    ______ ____
ROOT
ATOM      1  C   UNL     1       3.082   5.193  19.203  0.00  0.00    +0.000 A 
ATOM      2  C   UNL     1       3.026   6.514  18.718  0.00  0.00    +0.000 A 
ATOM      3  C   UNL     1       2.259   7.519  19.331  0.00  0.00    +0.000 A 
ATOM      4  C   UNL     1       1.503   7.203  20.465  0.00  0.00    +0.000 A 
ATOM      5  C   UNL     1       1.648   5.917  21.004  0.00  0.00    +0.000 A 
ATOM      6  C   UNL     1       2.457   4.927  20.422  0.00  0.00    +0.000 A 
ENDROOT
BRANCH   3   7
ATOM      7  O   UNL     1       2.254   8.814  18.879  0.00  0.00    +0.000 OA
ATOM      8  C   UNL     1       1.476   9.040  17.700  0.00  0.00    +0.000 C 
ENDBRANCH   3   7
BRANCH   6   9
ATOM      9  O   UNL     1       2.520   3.845  21.249  0.00  0.00    +0.000 OA
ATOM     10  C   UNL     1       1.604   2.785  21.122  0.00  0.00    +0.000 C 
ENDBRANCH   6   9
BRANCH   1  11
ATOM     11  S   UNL     1       4.018   4.055  18.172  0.00  0.00    +0.000 S 
BRANCH  11  12
ATOM     12  C   UNL     1       4.553   5.176  16.797  0.00  0.00    +0.000 C 
BRANCH  12  13
ATOM     13  C   UNL     1       6.060   5.408  16.791  0.00  0.00    +0.000 C 
BRANCH  13  14
ATOM     14  C   UNL     1       6.468   6.835  17.159  0.00  0.00    +0.000 C 
BRANCH  14  16
ATOM     15  C   UNL     1       7.522   5.693  19.156  0.00  0.00    +0.000 C 
ATOM     16  C   UNL     1       7.652   6.812  18.135  0.00  0.00    +0.000 C 
ENDBRANCH  14  16
ENDBRANCH  13  14
ENDBRANCH  12  13
ENDBRANCH  11  12
ENDBRANCH   1  11
BRANCH   4  17
ATOM     17  C   UNL     1       0.572   8.157  21.183  0.00  0.00    +0.000 C 
BRANCH  17  18
ATOM     18  C   UNL     1       1.256   9.052  22.233  0.00  0.00    +0.000 C 
BRANCH  18  19
ATOM     19  N   UNL     1       0.648  10.396  22.360  0.00  0.00    +0.000 NA
ATOM     20  C   UNL     1       0.505  11.062  21.061  0.00  0.00    +0.000 C 
ATOM     21  C   UNL     1      -0.662  10.284  23.007  0.00  0.00    +0.000 C 
ENDBRANCH  18  19
ENDBRANCH  17  18
ENDBRANCH   4  17
TORSDOF 10
ENDMDL
