MODEL 1
REMARK VINA RESULT:      -7.5      0.000      0.000
REMARK  Name = 
REMARK  11 active torsions:
REMARK  status: ('A' for Active; 'I' for Inactive)
REMARK    1  A    between atoms: C_1  and  C_2
REMARK    2  A    between atoms: C_5  and  N_6
REMARK    3  A    between atoms: C_7  and  C_9
REMARK    4  A    between atoms: C_9  and  C_10
REMARK    5  A    between atoms: C_12  and  C_13
REMARK    6  A    between atoms: C_15  and  C_16
REMARK    7  A    between atoms: N_17  and  C_18
REMARK    8  A    between atoms: C_21  and  N_22
REMARK    9  A    between atoms: C_28  and  N_29
REMARK   10  A    between atoms: C_33  and  C_34
REMARK   11  A    between atoms: C_35  and  C_36
REMARK                            x       y       z     vdW  Elec       q    Type
REMARK                         _______ _______ _______ _____ _____    ______ ____
ROOT
ATOM      1  C   UNL     1       0.497  12.028  19.718  0.00  0.00    +0.000 A 
ATOM      2  C   UNL     1       1.192  12.942  20.517  0.00  0.00    +0.000 A 
ATOM      3  C   UNL     1       0.255  13.729  21.157  0.00  0.00    +0.000 A 
ATOM      4  C   UNL     1       0.547  14.720  22.237  0.00  0.00    +0.000 C 
ATOM      5  N   UNL     1      -1.018  13.326  20.736  0.00  0.00    +0.000 N 
ATOM      6  C   UNL     1      -0.854  12.292  19.799  0.00  0.00    +0.000 A 
ATOM      7  C   UNL     1      -1.940  11.616  19.016  0.00  0.00    +0.000 C 
ENDROOT
BRANCH   5   8
ATOM      8  C   UNL     1      -2.253  13.811  21.253  0.00  0.00    +0.000 A 
ATOM      9  C   UNL     1      -2.784  15.031  20.857  0.00  0.00    +0.000 A 
ATOM     10  C   UNL     1      -3.947  15.522  21.455  0.00  0.00    +0.000 A 
ATOM     11  C   UNL     1      -4.697  14.798  22.404  0.00  0.00    +0.000 A 
ATOM     12  C   UNL     1      -4.128  13.570  22.779  0.00  0.00    +0.000 A 
ATOM     13  C   UNL     1      -2.922  13.094  22.238  0.00  0.00    +0.000 A 
BRANCH  11  14
ATOM     14  N   UNL     1      -5.866  15.368  22.856  0.00  0.00    +0.000 N 
ATOM     15  C   UNL     1      -7.189  15.264  22.222  0.00  0.00    +0.000 C 
ATOM     16  C   UNL     1      -7.738  16.667  21.909  0.00  0.00    +0.000 C 
ATOM     17  O   UNL     1      -7.743  17.508  23.079  0.00  0.00    +0.000 OA
ATOM     18  C   UNL     1      -6.409  17.645  23.591  0.00  0.00    +0.000 C 
ATOM     19  C   UNL     1      -5.850  16.285  24.017  0.00  0.00    +0.000 C 
ENDBRANCH  11  14
BRANCH  12  20
ATOM     20  N   UNL     1      -4.738  12.658  23.725  0.00  0.00    +0.000 N 
ATOM     21  O   UNL     1      -4.160  12.462  24.802  0.00  0.00    +0.000 OA
ATOM     22  O   UNL     1      -5.845  12.192  23.416  0.00  0.00    +0.000 OA
ENDBRANCH  12  20
ENDBRANCH   5   8
BRANCH   1  24
ATOM     23  C   UNL     1       1.180   9.696  19.328  0.00  0.00    +0.000 C 
ATOM     24  C   UNL     1       1.071  10.984  18.949  0.00  0.00    +0.000 C 
BRANCH  23  26
ATOM     25  N   UNL     1       2.562   7.711  18.865  0.00  0.00    +0.000 N 
ATOM     26  C   UNL     1       1.822   8.766  18.344  0.00  0.00    +0.000 C 
ATOM     27  O   UNL     1       1.659   8.995  17.153  0.00  0.00    +0.000 OA
ATOM     28  H   UNL     1       2.621   7.618  19.870  0.00  0.00    +0.000 HD
BRANCH  25  33
ATOM     29  C   UNL     1       5.474   3.782  15.793  0.00  0.00    +0.000 C 
ATOM     30  C   UNL     1       4.707   4.788  16.595  0.00  0.00    +0.000 A 
ATOM     31  C   UNL     1       5.049   6.131  16.538  0.00  0.00    +0.000 A 
ATOM     32  C   UNL     1       4.338   7.074  17.281  0.00  0.00    +0.000 A 
ATOM     33  C   UNL     1       3.264   6.723  18.108  0.00  0.00    +0.000 A 
ATOM     34  C   UNL     1       2.901   5.360  18.173  0.00  0.00    +0.000 A 
ATOM     35  C   UNL     1       1.774   4.796  19.002  0.00  0.00    +0.000 C 
ATOM     36  C   UNL     1       3.636   4.412  17.413  0.00  0.00    +0.000 A 
ENDBRANCH  25  33
ENDBRANCH  23  26
BRANCH  23  37
ATOM     37  C   UNL     1       0.705   9.237  20.588  0.00  0.00    +0.000 C 
ATOM     38  N   UNL     1       0.358   8.895  21.640  0.00  0.00    +0.000 NA
ENDBRANCH  23  37
ENDBRANCH   1  24
TORSDOF 7
ENDMDL
MODEL 2
REMARK VINA RESULT:      -7.3      1.706      2.252
REMARK  Name = 
REMARK  11 active torsions:
REMARK  status: ('A' for Active; 'I' for Inactive)
REMARK    1  A    between atoms: C_1  and  C_2
REMARK    2  A    between atoms: C_5  and  N_6
REMARK    3  A    between atoms: C_7  and  C_9
REMARK    4  A    between atoms: C_9  and  C_10
REMARK    5  A    between atoms: C_12  and  C_13
REMARK    6  A    between atoms: C_15  and  C_16
REMARK    7  A    between atoms: N_17  and  C_18
REMARK    8  A    between atoms: C_21  and  N_22
REMARK    9  A    between atoms: C_28  and  N_29
REMARK   10  A    between atoms: C_33  and  C_34
REMARK   11  A    between atoms: C_35  and  C_36
REMARK                            x       y       z     vdW  Elec       q    Type
REMARK                         _______ _______ _______ _____ _____    ______ ____
ROOT
ATOM      1  C   UNL     1       0.652  10.594  18.990  0.00  0.00    +0.000 A 
ATOM      2  C   UNL     1       1.246  11.781  19.432  0.00  0.00    +0.000 A 
ATOM      3  C   UNL     1       0.250  12.558  19.992  0.00  0.00    +0.000 A 
ATOM      4  C   UNL     1       0.465  13.832  20.743  0.00  0.00    +0.000 C 
ATOM      5  N   UNL     1      -0.963  11.871  19.871  0.00  0.00    +0.000 N 
ATOM      6  C   UNL     1      -0.709  10.663  19.201  0.00  0.00    +0.000 A 
ATOM      7  C   UNL     1      -1.726   9.648  18.772  0.00  0.00    +0.000 C 
ENDROOT
BRANCH   5   8
ATOM      8  C   UNL     1      -2.207  12.282  20.430  0.00  0.00    +0.000 A 
ATOM      9  C   UNL     1      -3.291  12.621  19.631  0.00  0.00    +0.000 A 
ATOM     10  C   UNL     1      -4.464  13.114  20.207  0.00  0.00    +0.000 A 
ATOM     11  C   UNL     1      -4.665  13.210  21.598  0.00  0.00    +0.000 A 
ATOM     12  C   UNL     1      -3.547  12.859  22.372  0.00  0.00    +0.000 A 
ATOM     13  C   UNL     1      -2.335  12.429  21.805  0.00  0.00    +0.000 A 
BRANCH  11  14
ATOM     14  N   UNL     1      -5.899  13.640  22.032  0.00  0.00    +0.000 N 
ATOM     15  C   UNL     1      -6.238  14.994  22.495  0.00  0.00    +0.000 C 
ATOM     16  C   UNL     1      -6.809  14.938  23.923  0.00  0.00    +0.000 C 
ATOM     17  O   UNL     1      -7.916  14.022  24.016  0.00  0.00    +0.000 OA
ATOM     18  C   UNL     1      -7.495  12.702  23.643  0.00  0.00    +0.000 C 
ATOM     19  C   UNL     1      -7.012  12.678  22.190  0.00  0.00    +0.000 C 
ENDBRANCH  11  14
BRANCH  12  20
ATOM     20  N   UNL     1      -3.538  12.868  23.821  0.00  0.00    +0.000 N 
ATOM     21  O   UNL     1      -4.103  11.940  24.413  0.00  0.00    +0.000 OA
ATOM     22  O   UNL     1      -2.892  13.774  24.369  0.00  0.00    +0.000 OA
ENDBRANCH  12  20
ENDBRANCH   5   8
BRANCH   1  24
ATOM     23  C   UNL     1       1.732   8.385  19.090  0.00  0.00    +0.000 C 
ATOM     24  C   UNL     1       1.327   9.483  18.423  0.00  0.00    +0.000 C 
BRANCH  23  26
ATOM     25  N   UNL     1       3.747   7.577  17.926  0.00  0.00    +0.000 N 
ATOM     26  C   UNL     1       2.425   7.333  18.278  0.00  0.00    +0.000 C 
ATOM     27  O   UNL     1       1.785   6.333  17.975  0.00  0.00    +0.000 OA
ATOM     28  H   UNL     1       4.174   8.438  18.240  0.00  0.00    +0.000 HD
BRANCH  25  33
ATOM     29  C   UNL     1       7.122   4.171  14.707  0.00  0.00    +0.000 C 
ATOM     30  C   UNL     1       6.249   5.044  15.556  0.00  0.00    +0.000 A 
ATOM     31  C   UNL     1       5.550   6.097  14.984  0.00  0.00    +0.000 A 
ATOM     32  C   UNL     1       4.735   6.913  15.769  0.00  0.00    +0.000 A 
ATOM     33  C   UNL     1       4.581   6.718  17.148  0.00  0.00    +0.000 A 
ATOM     34  C   UNL     1       5.283   5.647  17.743  0.00  0.00    +0.000 A 
ATOM     35  C   UNL     1       5.240   5.281  19.206  0.00  0.00    +0.000 C 
ATOM     36  C   UNL     1       6.112   4.827  16.932  0.00  0.00    +0.000 A 
ENDBRANCH  25  33
ENDBRANCH  23  26
BRANCH  23  37
ATOM     37  C   UNL     1       1.508   8.222  20.485  0.00  0.00    +0.000 C 
ATOM     38  N   UNL     1       1.269   8.093  21.612  0.00  0.00    +0.000 NA
ENDBRANCH  23  37
ENDBRANCH   1  24
TORSDOF 7
ENDMDL
MODEL 3
REMARK VINA RESULT:      -7.1      0.963      1.380
REMARK  Name = 
REMARK  11 active torsions:
REMARK  status: ('A' for Active; 'I' for Inactive)
REMARK    1  A    between atoms: C_1  and  C_2
REMARK    2  A    between atoms: C_5  and  N_6
REMARK    3  A    between atoms: C_7  and  C_9
REMARK    4  A    between atoms: C_9  and  C_10
REMARK    5  A    between atoms: C_12  and  C_13
REMARK    6  A    between atoms: C_15  and  C_16
REMARK    7  A    between atoms: N_17  and  C_18
REMARK    8  A    between atoms: C_21  and  N_22
REMARK    9  A    between atoms: C_28  and  N_29
REMARK   10  A    between atoms: C_33  and  C_34
REMARK   11  A    between atoms: C_35  and  C_36
REMARK                            x       y       z     vdW  Elec       q    Type
REMARK                         _______ _______ _______ _____ _____    ______ ____
ROOT
ATOM      1  C   UNL     1       0.892  11.455  19.248  0.00  0.00    +0.000 A 
ATOM      2  C   UNL     1       1.679  12.328  20.006  0.00  0.00    +0.000 A 
ATOM      3  C   UNL     1       0.832  13.247  20.594  0.00  0.00    +0.000 A 
ATOM      4  C   UNL     1       1.226  14.255  21.624  0.00  0.00    +0.000 C 
ATOM      5  N   UNL     1      -0.475  12.965  20.179  0.00  0.00    +0.000 N 
ATOM      6  C   UNL     1      -0.422  11.872  19.300  0.00  0.00    +0.000 A 
ATOM      7  C   UNL     1      -1.571  11.279  18.540  0.00  0.00    +0.000 C 
ENDROOT
BRANCH   5   8
ATOM      8  C   UNL     1      -1.652  13.611  20.656  0.00  0.00    +0.000 A 
ATOM      9  C   UNL     1      -1.898  14.956  20.415  0.00  0.00    +0.000 A 
ATOM     10  C   UNL     1      -3.012  15.581  20.978  0.00  0.00    +0.000 A 
ATOM     11  C   UNL     1      -3.989  14.898  21.729  0.00  0.00    +0.000 A 
ATOM     12  C   UNL     1      -3.706  13.540  21.952  0.00  0.00    +0.000 A 
ATOM     13  C   UNL     1      -2.553  12.912  21.451  0.00  0.00    +0.000 A 
BRANCH  11  14
ATOM     14  N   UNL     1      -5.078  15.622  22.161  0.00  0.00    +0.000 N 
ATOM     15  C   UNL     1      -5.393  15.977  23.552  0.00  0.00    +0.000 C 
ATOM     16  C   UNL     1      -6.788  15.449  23.932  0.00  0.00    +0.000 C 
ATOM     17  O   UNL     1      -7.794  15.890  23.000  0.00  0.00    +0.000 OA
ATOM     18  C   UNL     1      -7.477  15.430  21.679  0.00  0.00    +0.000 C 
ATOM     19  C   UNL     1      -6.141  16.012  21.208  0.00  0.00    +0.000 C 
ENDBRANCH  11  14
BRANCH  12  20
ATOM     20  N   UNL     1      -4.581  12.646  22.682  0.00  0.00    +0.000 N 
ATOM     21  O   UNL     1      -5.606  12.243  22.117  0.00  0.00    +0.000 OA
ATOM     22  O   UNL     1      -4.198  12.285  23.805  0.00  0.00    +0.000 OA
ENDBRANCH  12  20
ENDBRANCH   5   8
BRANCH   1  24
ATOM     23  C   UNL     1       1.508   9.081  19.057  0.00  0.00    +0.000 C 
ATOM     24  C   UNL     1       1.351  10.315  18.541  0.00  0.00    +0.000 C 
BRANCH  23  26
ATOM     25  N   UNL     1       3.296   7.555  18.322  0.00  0.00    +0.000 N 
ATOM     26  C   UNL     1       2.005   8.025  18.116  0.00  0.00    +0.000 C 
ATOM     27  O   UNL     1       1.248   7.650  17.230  0.00  0.00    +0.000 OA
ATOM     28  H   UNL     1       3.827   7.937  19.093  0.00  0.00    +0.000 HD
BRANCH  25  33
ATOM     29  C   UNL     1       6.068   3.631  15.117  0.00  0.00    +0.000 C 
ATOM     30  C   UNL     1       5.340   4.636  15.956  0.00  0.00    +0.000 A 
ATOM     31  C   UNL     1       5.552   5.993  15.759  0.00  0.00    +0.000 A 
ATOM     32  C   UNL     1       4.876   6.934  16.536  0.00  0.00    +0.000 A 
ATOM     33  C   UNL     1       3.965   6.568  17.536  0.00  0.00    +0.000 A 
ATOM     34  C   UNL     1       3.735   5.190  17.744  0.00  0.00    +0.000 A 
ATOM     35  C   UNL     1       2.792   4.608  18.767  0.00  0.00    +0.000 C 
ATOM     36  C   UNL     1       4.433   4.245  16.947  0.00  0.00    +0.000 A 
ENDBRANCH  25  33
ENDBRANCH  23  26
BRANCH  23  37
ATOM     37  C   UNL     1       1.210   8.787  20.417  0.00  0.00    +0.000 C 
ATOM     38  N   UNL     1       0.940   8.597  21.528  0.00  0.00    +0.000 NA
ENDBRANCH  23  37
ENDBRANCH   1  24
TORSDOF 7
ENDMDL
MODEL 4
REMARK VINA RESULT:      -7.0      2.359      3.385
REMARK  Name = 
REMARK  11 active torsions:
REMARK  status: ('A' for Active; 'I' for Inactive)
REMARK    1  A    between atoms: C_1  and  C_2
REMARK    2  A    between atoms: C_5  and  N_6
REMARK    3  A    between atoms: C_7  and  C_9
REMARK    4  A    between atoms: C_9  and  C_10
REMARK    5  A    between atoms: C_12  and  C_13
REMARK    6  A    between atoms: C_15  and  C_16
REMARK    7  A    between atoms: N_17  and  C_18
REMARK    8  A    between atoms: C_21  and  N_22
REMARK    9  A    between atoms: C_28  and  N_29
REMARK   10  A    between atoms: C_33  and  C_34
REMARK   11  A    between atoms: C_35  and  C_36
REMARK                            x       y       z     vdW  Elec       q    Type
REMARK                         _______ _______ _______ _____ _____    ______ ____
ROOT
ATOM      1  C   UNL     1      -0.183   9.869  19.735  0.00  0.00    +0.000 A 
ATOM      2  C   UNL     1      -0.990  10.563  18.827  0.00  0.00    +0.000 A 
ATOM      3  C   UNL     1      -1.604  11.589  19.519  0.00  0.00    +0.000 A 
ATOM      4  C   UNL     1      -2.417  12.683  18.905  0.00  0.00    +0.000 C 
ATOM      5  N   UNL     1      -1.204  11.515  20.858  0.00  0.00    +0.000 N 
ATOM      6  C   UNL     1      -0.352  10.408  20.993  0.00  0.00    +0.000 A 
ATOM      7  C   UNL     1       0.246   9.890  22.268  0.00  0.00    +0.000 C 
ENDROOT
BRANCH   5   8
ATOM      8  C   UNL     1      -1.523  12.466  21.870  0.00  0.00    +0.000 A 
ATOM      9  C   UNL     1      -0.656  13.497  22.206  0.00  0.00    +0.000 A 
ATOM     10  C   UNL     1      -0.955  14.353  23.268  0.00  0.00    +0.000 A 
ATOM     11  C   UNL     1      -2.161  14.297  23.993  0.00  0.00    +0.000 A 
ATOM     12  C   UNL     1      -3.012  13.241  23.626  0.00  0.00    +0.000 A 
ATOM     13  C   UNL     1      -2.694  12.328  22.606  0.00  0.00    +0.000 A 
BRANCH  11  14
ATOM     14  N   UNL     1      -2.361  15.251  24.966  0.00  0.00    +0.000 N 
ATOM     15  C   UNL     1      -3.366  16.324  24.943  0.00  0.00    +0.000 C 
ATOM     16  C   UNL     1      -2.680  17.695  25.075  0.00  0.00    +0.000 C 
ATOM     17  O   UNL     1      -1.828  17.753  26.235  0.00  0.00    +0.000 OA
ATOM     18  C   UNL     1      -0.812  16.742  26.150  0.00  0.00    +0.000 C 
ATOM     19  C   UNL     1      -1.439  15.345  26.120  0.00  0.00    +0.000 C 
ENDBRANCH  11  14
BRANCH  12  20
ATOM     20  N   UNL     1      -4.309  13.007  24.228  0.00  0.00    +0.000 N 
ATOM     21  O   UNL     1      -5.253  13.727  23.878  0.00  0.00    +0.000 OA
ATOM     22  O   UNL     1      -4.398  12.044  25.004  0.00  0.00    +0.000 OA
ENDBRANCH  12  20
ENDBRANCH   5   8
BRANCH   1  24
ATOM     23  C   UNL     1       1.772   8.855  18.637  0.00  0.00    +0.000 C 
ATOM     24  C   UNL     1       0.683   8.789  19.428  0.00  0.00    +0.000 C 
BRANCH  23  26
ATOM     25  N   UNL     1       1.852   6.393  18.674  0.00  0.00    +0.000 N 
ATOM     26  C   UNL     1       2.541   7.581  18.458  0.00  0.00    +0.000 C 
ATOM     27  O   UNL     1       3.720   7.667  18.139  0.00  0.00    +0.000 OA
ATOM     28  H   UNL     1       0.875   6.446  18.928  0.00  0.00    +0.000 HD
BRANCH  25  33
ATOM     29  C   UNL     1       4.127   1.105  18.208  0.00  0.00    +0.000 C 
ATOM     30  C   UNL     1       3.527   2.471  18.342  0.00  0.00    +0.000 A 
ATOM     31  C   UNL     1       3.840   3.463  17.425  0.00  0.00    +0.000 A 
ATOM     32  C   UNL     1       3.283   4.737  17.543  0.00  0.00    +0.000 A 
ATOM     33  C   UNL     1       2.397   5.077  18.573  0.00  0.00    +0.000 A 
ATOM     34  C   UNL     1       2.065   4.075  19.513  0.00  0.00    +0.000 A 
ATOM     35  C   UNL     1       1.130   4.253  20.683  0.00  0.00    +0.000 C 
ATOM     36  C   UNL     1       2.642   2.785  19.380  0.00  0.00    +0.000 A 
ENDBRANCH  25  33
ENDBRANCH  23  26
BRANCH  23  37
ATOM     37  C   UNL     1       2.179  10.065  18.012  0.00  0.00    +0.000 C 
ATOM     38  N   UNL     1       2.504  11.079  17.552  0.00  0.00    +0.000 NA
ENDBRANCH  23  37
ENDBRANCH   1  24
TORSDOF 7
ENDMDL
MODEL 5
REMARK VINA RESULT:      -7.0      1.653      2.138
REMARK  Name = 
REMARK  11 active torsions:
REMARK  status: ('A' for Active; 'I' for Inactive)
REMARK    1  A    between atoms: C_1  and  C_2
REMARK    2  A    between atoms: C_5  and  N_6
REMARK    3  A    between atoms: C_7  and  C_9
REMARK    4  A    between atoms: C_9  and  C_10
REMARK    5  A    between atoms: C_12  and  C_13
REMARK    6  A    between atoms: C_15  and  C_16
REMARK    7  A    between atoms: N_17  and  C_18
REMARK    8  A    between atoms: C_21  and  N_22
REMARK    9  A    between atoms: C_28  and  N_29
REMARK   10  A    between atoms: C_33  and  C_34
REMARK   11  A    between atoms: C_35  and  C_36
REMARK                            x       y       z     vdW  Elec       q    Type
REMARK                         _______ _______ _______ _____ _____    ______ ____
ROOT
ATOM      1  C   UNL     1       0.777  10.992  19.343  0.00  0.00    +0.000 A 
ATOM      2  C   UNL     1       1.490  12.098  19.816  0.00  0.00    +0.000 A 
ATOM      3  C   UNL     1       0.616  12.870  20.556  0.00  0.00    +0.000 A 
ATOM      4  C   UNL     1       0.994  14.052  21.387  0.00  0.00    +0.000 C 
ATOM      5  N   UNL     1      -0.644  12.262  20.519  0.00  0.00    +0.000 N 
ATOM      6  C   UNL     1      -0.545  11.112  19.718  0.00  0.00    +0.000 A 
ATOM      7  C   UNL     1      -1.666  10.198  19.324  0.00  0.00    +0.000 C 
ENDROOT
BRANCH   5   8
ATOM      8  C   UNL     1      -1.789  12.683  21.255  0.00  0.00    +0.000 A 
ATOM      9  C   UNL     1      -1.936  12.397  22.606  0.00  0.00    +0.000 A 
ATOM     10  C   UNL     1      -3.113  12.739  23.275  0.00  0.00    +0.000 A 
ATOM     11  C   UNL     1      -4.164  13.461  22.676  0.00  0.00    +0.000 A 
ATOM     12  C   UNL     1      -3.979  13.732  21.311  0.00  0.00    +0.000 A 
ATOM     13  C   UNL     1      -2.831  13.332  20.605  0.00  0.00    +0.000 A 
BRANCH  11  14
ATOM     14  N   UNL     1      -5.235  13.800  23.474  0.00  0.00    +0.000 N 
ATOM     15  C   UNL     1      -6.327  12.909  23.892  0.00  0.00    +0.000 C 
ATOM     16  C   UNL     1      -7.683  13.491  23.455  0.00  0.00    +0.000 C 
ATOM     17  O   UNL     1      -7.855  14.844  23.920  0.00  0.00    +0.000 OA
ATOM     18  C   UNL     1      -6.811  15.679  23.399  0.00  0.00    +0.000 C 
ATOM     19  C   UNL     1      -5.441  15.205  23.890  0.00  0.00    +0.000 C 
ENDBRANCH  11  14
BRANCH  12  20
ATOM     20  N   UNL     1      -4.925  14.476  20.503  0.00  0.00    +0.000 N 
ATOM     21  O   UNL     1      -4.773  15.701  20.408  0.00  0.00    +0.000 OA
ATOM     22  O   UNL     1      -5.783  13.816  19.899  0.00  0.00    +0.000 OA
ENDBRANCH  12  20
ENDBRANCH   5   8
BRANCH   1  24
ATOM     23  C   UNL     1       1.635   8.698  19.102  0.00  0.00    +0.000 C 
ATOM     24  C   UNL     1       1.311   9.906  18.603  0.00  0.00    +0.000 C 
BRANCH  23  26
ATOM     25  N   UNL     1       3.537   7.403  18.222  0.00  0.00    +0.000 N 
ATOM     26  C   UNL     1       2.182   7.701  18.127  0.00  0.00    +0.000 C 
ATOM     27  O   UNL     1       1.408   7.218  17.311  0.00  0.00    +0.000 OA
ATOM     28  H   UNL     1       4.077   7.861  18.943  0.00  0.00    +0.000 HD
BRANCH  25  33
ATOM     29  C   UNL     1       6.490   3.819  14.790  0.00  0.00    +0.000 C 
ATOM     30  C   UNL     1       5.721   4.735  15.692  0.00  0.00    +0.000 A 
ATOM     31  C   UNL     1       5.471   6.044  15.306  0.00  0.00    +0.000 A 
ATOM     32  C   UNL     1       4.755   6.902  16.141  0.00  0.00    +0.000 A 
ATOM     33  C   UNL     1       4.258   6.498  17.386  0.00  0.00    +0.000 A 
ATOM     34  C   UNL     1       4.500   5.166  17.790  0.00  0.00    +0.000 A 
ATOM     35  C   UNL     1       4.043   4.552  19.090  0.00  0.00    +0.000 C 
ATOM     36  C   UNL     1       5.234   4.306  16.931  0.00  0.00    +0.000 A 
ENDBRANCH  25  33
ENDBRANCH  23  26
BRANCH  23  37
ATOM     37  C   UNL     1       1.461   8.378  20.477  0.00  0.00    +0.000 C 
ATOM     38  N   UNL     1       1.357   8.075  21.591  0.00  0.00    +0.000 NA
ENDBRANCH  23  37
ENDBRANCH   1  24
TORSDOF 7
ENDMDL
MODEL 6
REMARK VINA RESULT:      -6.9      1.665      2.081
REMARK  Name = 
REMARK  11 active torsions:
REMARK  status: ('A' for Active; 'I' for Inactive)
REMARK    1  A    between atoms: C_1  and  C_2
REMARK    2  A    between atoms: C_5  and  N_6
REMARK    3  A    between atoms: C_7  and  C_9
REMARK    4  A    between atoms: C_9  and  C_10
REMARK    5  A    between atoms: C_12  and  C_13
REMARK    6  A    between atoms: C_15  and  C_16
REMARK    7  A    between atoms: N_17  and  C_18
REMARK    8  A    between atoms: C_21  and  N_22
REMARK    9  A    between atoms: C_28  and  N_29
REMARK   10  A    between atoms: C_33  and  C_34
REMARK   11  A    between atoms: C_35  and  C_36
REMARK                            x       y       z     vdW  Elec       q    Type
REMARK                         _______ _______ _______ _____ _____    ______ ____
ROOT
ATOM      1  C   UNL     1      -0.304  11.007  20.364  0.00  0.00    +0.000 A 
ATOM      2  C   UNL     1       0.034  11.540  21.612  0.00  0.00    +0.000 A 
ATOM      3  C   UNL     1      -0.933  12.468  21.943  0.00  0.00    +0.000 A 
ATOM      4  C   UNL     1      -1.062  13.152  23.265  0.00  0.00    +0.000 C 
ATOM      5  N   UNL     1      -1.854  12.534  20.891  0.00  0.00    +0.000 N 
ATOM      6  C   UNL     1      -1.426  11.651  19.887  0.00  0.00    +0.000 A 
ATOM      7  C   UNL     1      -2.054  11.458  18.539  0.00  0.00    +0.000 C 
ENDROOT
BRANCH   5   8
ATOM      8  C   UNL     1      -3.065  13.286  20.896  0.00  0.00    +0.000 A 
ATOM      9  C   UNL     1      -3.072  14.663  20.713  0.00  0.00    +0.000 A 
ATOM     10  C   UNL     1      -4.264  15.382  20.821  0.00  0.00    +0.000 A 
ATOM     11  C   UNL     1      -5.520  14.777  21.021  0.00  0.00    +0.000 A 
ATOM     12  C   UNL     1      -5.473  13.384  21.201  0.00  0.00    +0.000 A 
ATOM     13  C   UNL     1      -4.272  12.654  21.166  0.00  0.00    +0.000 A 
BRANCH  11  14
ATOM     14  N   UNL     1      -6.626  15.598  21.030  0.00  0.00    +0.000 N 
ATOM     15  C   UNL     1      -7.286  16.185  19.855  0.00  0.00    +0.000 C 
ATOM     16  C   UNL     1      -7.322  17.718  19.977  0.00  0.00    +0.000 C 
ATOM     17  O   UNL     1      -7.916  18.138  21.221  0.00  0.00    +0.000 OA
ATOM     18  C   UNL     1      -7.169  17.610  22.326  0.00  0.00    +0.000 C 
ATOM     19  C   UNL     1      -7.188  16.079  22.311  0.00  0.00    +0.000 C 
ENDBRANCH  11  14
BRANCH  12  20
ATOM     20  N   UNL     1      -6.646  12.559  21.404  0.00  0.00    +0.000 N 
ATOM     21  O   UNL     1      -7.389  12.355  20.435  0.00  0.00    +0.000 OA
ATOM     22  O   UNL     1      -6.783  12.050  22.526  0.00  0.00    +0.000 OA
ENDBRANCH  12  20
ENDBRANCH   5   8
BRANCH   1  24
ATOM     23  C   UNL     1       1.389  10.129  18.809  0.00  0.00    +0.000 C 
ATOM     24  C   UNL     1       0.380   9.966  19.686  0.00  0.00    +0.000 C 
BRANCH  23  26
ATOM     25  N   UNL     1       2.136   7.797  19.075  0.00  0.00    +0.000 N 
ATOM     26  C   UNL     1       1.964   8.877  18.218  0.00  0.00    +0.000 C 
ATOM     27  O   UNL     1       2.247   8.888  17.026  0.00  0.00    +0.000 OA
ATOM     28  H   UNL     1       1.859   7.904  20.041  0.00  0.00    +0.000 HD
BRANCH  25  33
ATOM     29  C   UNL     1       4.407   2.694  17.605  0.00  0.00    +0.000 C 
ATOM     30  C   UNL     1       3.807   4.010  17.997  0.00  0.00    +0.000 A 
ATOM     31  C   UNL     1       4.214   5.177  17.368  0.00  0.00    +0.000 A 
ATOM     32  C   UNL     1       3.658   6.405  17.727  0.00  0.00    +0.000 A 
ATOM     33  C   UNL     1       2.679   6.524  18.722  0.00  0.00    +0.000 A 
ATOM     34  C   UNL     1       2.250   5.343  19.368  0.00  0.00    +0.000 A 
ATOM     35  C   UNL     1       1.208   5.274  20.456  0.00  0.00    +0.000 C 
ATOM     36  C   UNL     1       2.828   4.101  18.993  0.00  0.00    +0.000 A 
ENDBRANCH  25  33
ENDBRANCH  23  26
BRANCH  23  37
ATOM     37  C   UNL     1       1.892  11.414  18.466  0.00  0.00    +0.000 C 
ATOM     38  N   UNL     1       2.350  12.449  18.213  0.00  0.00    +0.000 NA
ENDBRANCH  23  37
ENDBRANCH   1  24
TORSDOF 7
ENDMDL
MODEL 7
REMARK VINA RESULT:      -6.8      1.955      2.768
REMARK  Name = 
REMARK  11 active torsions:
REMARK  status: ('A' for Active; 'I' for Inactive)
REMARK    1  A    between atoms: C_1  and  C_2
REMARK    2  A    between atoms: C_5  and  N_6
REMARK    3  A    between atoms: C_7  and  C_9
REMARK    4  A    between atoms: C_9  and  C_10
REMARK    5  A    between atoms: C_12  and  C_13
REMARK    6  A    between atoms: C_15  and  C_16
REMARK    7  A    between atoms: N_17  and  C_18
REMARK    8  A    between atoms: C_21  and  N_22
REMARK    9  A    between atoms: C_28  and  N_29
REMARK   10  A    between atoms: C_33  and  C_34
REMARK   11  A    between atoms: C_35  and  C_36
REMARK                            x       y       z     vdW  Elec       q    Type
REMARK                         _______ _______ _______ _____ _____    ______ ____
ROOT
ATOM      1  C   UNL     1      -0.664  10.872  18.850  0.00  0.00    +0.000 A 
ATOM      2  C   UNL     1      -2.031  10.816  18.560  0.00  0.00    +0.000 A 
ATOM      3  C   UNL     1      -2.651  11.809  19.293  0.00  0.00    +0.000 A 
ATOM      4  C   UNL     1      -4.081  12.221  19.159  0.00  0.00    +0.000 C 
ATOM      5  N   UNL     1      -1.678  12.461  20.059  0.00  0.00    +0.000 N 
ATOM      6  C   UNL     1      -0.445  11.837  19.811  0.00  0.00    +0.000 A 
ATOM      7  C   UNL     1       0.863  12.143  20.479  0.00  0.00    +0.000 C 
ENDROOT
BRANCH   5   8
ATOM      8  C   UNL     1      -1.893  13.620  20.859  0.00  0.00    +0.000 A 
ATOM      9  C   UNL     1      -1.492  14.882  20.442  0.00  0.00    +0.000 A 
ATOM     10  C   UNL     1      -1.630  15.983  21.291  0.00  0.00    +0.000 A 
ATOM     11  C   UNL     1      -2.252  15.916  22.553  0.00  0.00    +0.000 A 
ATOM     12  C   UNL     1      -2.644  14.623  22.940  0.00  0.00    +0.000 A 
ATOM     13  C   UNL     1      -2.448  13.494  22.127  0.00  0.00    +0.000 A 
BRANCH  11  14
ATOM     14  N   UNL     1      -2.391  17.092  23.255  0.00  0.00    +0.000 N 
ATOM     15  C   UNL     1      -1.345  17.774  24.031  0.00  0.00    +0.000 C 
ATOM     16  C   UNL     1      -1.801  17.955  25.490  0.00  0.00    +0.000 C 
ATOM     17  O   UNL     1      -3.077  18.619  25.568  0.00  0.00    +0.000 OA
ATOM     18  C   UNL     1      -4.072  17.855  24.872  0.00  0.00    +0.000 C 
ATOM     19  C   UNL     1      -3.719  17.731  23.387  0.00  0.00    +0.000 C 
ENDBRANCH  11  14
BRANCH  12  20
ATOM     20  N   UNL     1      -3.317  14.327  24.189  0.00  0.00    +0.000 N 
ATOM     21  O   UNL     1      -2.723  14.581  25.245  0.00  0.00    +0.000 OA
ATOM     22  O   UNL     1      -4.480  13.906  24.109  0.00  0.00    +0.000 OA
ENDBRANCH  12  20
ENDBRANCH   5   8
BRANCH   1  24
ATOM     23  C   UNL     1       1.131   9.189  18.898  0.00  0.00    +0.000 C 
ATOM     24  C   UNL     1       0.350  10.079  18.255  0.00  0.00    +0.000 C 
BRANCH  23  26
ATOM     25  N   UNL     1       2.402   7.138  18.401  0.00  0.00    +0.000 N 
ATOM     26  C   UNL     1       2.136   8.459  18.060  0.00  0.00    +0.000 C 
ATOM     27  O   UNL     1       2.658   9.070  17.136  0.00  0.00    +0.000 OA
ATOM     28  H   UNL     1       1.902   6.737  19.183  0.00  0.00    +0.000 HD
BRANCH  25  33
ATOM     29  C   UNL     1       6.227   3.707  15.767  0.00  0.00    +0.000 C 
ATOM     30  C   UNL     1       5.224   4.583  16.452  0.00  0.00    +0.000 A 
ATOM     31  C   UNL     1       5.453   5.947  16.567  0.00  0.00    +0.000 A 
ATOM     32  C   UNL     1       4.522   6.769  17.202  0.00  0.00    +0.000 A 
ATOM     33  C   UNL     1       3.330   6.273  17.747  0.00  0.00    +0.000 A 
ATOM     34  C   UNL     1       3.081   4.887  17.634  0.00  0.00    +0.000 A 
ATOM     35  C   UNL     1       1.858   4.175  18.154  0.00  0.00    +0.000 C 
ATOM     36  C   UNL     1       4.040   4.063  16.987  0.00  0.00    +0.000 A 
ENDBRANCH  25  33
ENDBRANCH  23  26
BRANCH  23  37
ATOM     37  C   UNL     1       1.006   8.944  20.294  0.00  0.00    +0.000 C 
ATOM     38  N   UNL     1       0.858   8.712  21.420  0.00  0.00    +0.000 NA
ENDBRANCH  23  37
ENDBRANCH   1  24
TORSDOF 7
ENDMDL
MODEL 8
REMARK VINA RESULT:      -6.8      1.985      2.357
REMARK  Name = 
REMARK  11 active torsions:
REMARK  status: ('A' for Active; 'I' for Inactive)
REMARK    1  A    between atoms: C_1  and  C_2
REMARK    2  A    between atoms: C_5  and  N_6
REMARK    3  A    between atoms: C_7  and  C_9
REMARK    4  A    between atoms: C_9  and  C_10
REMARK    5  A    between atoms: C_12  and  C_13
REMARK    6  A    between atoms: C_15  and  C_16
REMARK    7  A    between atoms: N_17  and  C_18
REMARK    8  A    between atoms: C_21  and  N_22
REMARK    9  A    between atoms: C_28  and  N_29
REMARK   10  A    between atoms: C_33  and  C_34
REMARK   11  A    between atoms: C_35  and  C_36
REMARK                            x       y       z     vdW  Elec       q    Type
REMARK                         _______ _______ _______ _____ _____    ______ ____
ROOT
ATOM      1  C   UNL     1      -0.073  10.968  19.953  0.00  0.00    +0.000 A 
ATOM      2  C   UNL     1      -0.076  10.942  21.352  0.00  0.00    +0.000 A 
ATOM      3  C   UNL     1      -1.069  11.801  21.780  0.00  0.00    +0.000 A 
ATOM      4  C   UNL     1      -1.537  11.951  23.191  0.00  0.00    +0.000 C 
ATOM      5  N   UNL     1      -1.661  12.383  20.652  0.00  0.00    +0.000 N 
ATOM      6  C   UNL     1      -0.999  11.891  19.516  0.00  0.00    +0.000 A 
ATOM      7  C   UNL     1      -1.236  12.305  18.094  0.00  0.00    +0.000 C 
ENDROOT
BRANCH   5   8
ATOM      8  C   UNL     1      -2.802  13.235  20.664  0.00  0.00    +0.000 A 
ATOM      9  C   UNL     1      -4.072  12.763  20.358  0.00  0.00    +0.000 A 
ATOM     10  C   UNL     1      -5.153  13.643  20.283  0.00  0.00    +0.000 A 
ATOM     11  C   UNL     1      -5.060  15.014  20.595  0.00  0.00    +0.000 A 
ATOM     12  C   UNL     1      -3.762  15.455  20.899  0.00  0.00    +0.000 A 
ATOM     13  C   UNL     1      -2.650  14.594  20.909  0.00  0.00    +0.000 A 
BRANCH  11  14
ATOM     14  N   UNL     1      -6.222  15.753  20.555  0.00  0.00    +0.000 N 
ATOM     15  C   UNL     1      -6.513  16.871  19.645  0.00  0.00    +0.000 C 
ATOM     16  C   UNL     1      -6.856  18.136  20.452  0.00  0.00    +0.000 C 
ATOM     17  O   UNL     1      -7.917  17.892  21.396  0.00  0.00    +0.000 OA
ATOM     18  C   UNL     1      -7.531  16.857  22.313  0.00  0.00    +0.000 C 
ATOM     19  C   UNL     1      -7.277  15.542  21.570  0.00  0.00    +0.000 C 
ENDBRANCH  11  14
BRANCH  12  20
ATOM     20  N   UNL     1      -3.441  16.819  21.265  0.00  0.00    +0.000 N 
ATOM     21  O   UNL     1      -2.973  17.562  20.392  0.00  0.00    +0.000 OA
ATOM     22  O   UNL     1      -3.730  17.170  22.419  0.00  0.00    +0.000 OA
ENDBRANCH  12  20
ENDBRANCH   5   8
BRANCH   1  24
ATOM     23  C   UNL     1       1.306   8.996  19.435  0.00  0.00    +0.000 C 
ATOM     24  C   UNL     1       0.740  10.173  19.104  0.00  0.00    +0.000 C 
BRANCH  23  26
ATOM     25  N   UNL     1       2.699   7.107  18.690  0.00  0.00    +0.000 N 
ATOM     26  C   UNL     1       2.123   8.330  18.370  0.00  0.00    +0.000 C 
ATOM     27  O   UNL     1       2.234   8.904  17.294  0.00  0.00    +0.000 OA
ATOM     28  H   UNL     1       2.532   6.726  19.611  0.00  0.00    +0.000 HD
BRANCH  25  33
ATOM     29  C   UNL     1       6.100   3.981  15.224  0.00  0.00    +0.000 C 
ATOM     30  C   UNL     1       5.208   4.778  16.125  0.00  0.00    +0.000 A 
ATOM     31  C   UNL     1       5.430   6.135  16.304  0.00  0.00    +0.000 A 
ATOM     32  C   UNL     1       4.602   6.883  17.141  0.00  0.00    +0.000 A 
ATOM     33  C   UNL     1       3.523   6.316  17.832  0.00  0.00    +0.000 A 
ATOM     34  C   UNL     1       3.281   4.936  17.656  0.00  0.00    +0.000 A 
ATOM     35  C   UNL     1       2.169   4.155  18.311  0.00  0.00    +0.000 C 
ATOM     36  C   UNL     1       4.135   4.188  16.803  0.00  0.00    +0.000 A 
ENDBRANCH  25  33
ENDBRANCH  23  26
BRANCH  23  37
ATOM     37  C   UNL     1       1.132   8.408  20.718  0.00  0.00    +0.000 C 
ATOM     38  N   UNL     1       1.016   7.881  21.744  0.00  0.00    +0.000 NA
ENDBRANCH  23  37
ENDBRANCH   1  24
TORSDOF 7
ENDMDL
MODEL 9
REMARK VINA RESULT:      -6.7      3.133      4.008
REMARK  Name = 
REMARK  11 active torsions:
REMARK  status: ('A' for Active; 'I' for Inactive)
REMARK    1  A    between atoms: C_1  and  C_2
REMARK    2  A    between atoms: C_5  and  N_6
REMARK    3  A    between atoms: C_7  and  C_9
REMARK    4  A    between atoms: C_9  and  C_10
REMARK    5  A    between atoms: C_12  and  C_13
REMARK    6  A    between atoms: C_15  and  C_16
REMARK    7  A    between atoms: N_17  and  C_18
REMARK    8  A    between atoms: C_21  and  N_22
REMARK    9  A    between atoms: C_28  and  N_29
REMARK   10  A    between atoms: C_33  and  C_34
REMARK   11  A    between atoms: C_35  and  C_36
REMARK                            x       y       z     vdW  Elec       q    Type
REMARK                         _______ _______ _______ _____ _____    ______ ____
ROOT
ATOM      1  C   UNL     1      -0.137   9.861  19.787  0.00  0.00    +0.000 A 
ATOM      2  C   UNL     1      -1.072  10.513  18.976  0.00  0.00    +0.000 A 
ATOM      3  C   UNL     1      -1.600  11.557  19.711  0.00  0.00    +0.000 A 
ATOM      4  C   UNL     1      -2.506  12.619  19.179  0.00  0.00    +0.000 C 
ATOM      5  N   UNL     1      -1.017  11.536  20.983  0.00  0.00    +0.000 N 
ATOM      6  C   UNL     1      -0.138  10.443  21.037  0.00  0.00    +0.000 A 
ATOM      7  C   UNL     1       0.639   9.978  22.233  0.00  0.00    +0.000 C 
ENDROOT
BRANCH   5   8
ATOM      8  C   UNL     1      -1.207  12.519  21.997  0.00  0.00    +0.000 A 
ATOM      9  C   UNL     1      -2.165  12.369  22.991  0.00  0.00    +0.000 A 
ATOM     10  C   UNL     1      -2.393  13.394  23.911  0.00  0.00    +0.000 A 
ATOM     11  C   UNL     1      -1.630  14.577  23.960  0.00  0.00    +0.000 A 
ATOM     12  C   UNL     1      -0.672  14.693  22.940  0.00  0.00    +0.000 A 
ATOM     13  C   UNL     1      -0.478  13.701  21.963  0.00  0.00    +0.000 A 
BRANCH  11  14
ATOM     14  N   UNL     1      -1.910  15.471  24.969  0.00  0.00    +0.000 N 
ATOM     15  C   UNL     1      -3.050  16.398  25.021  0.00  0.00    +0.000 C 
ATOM     16  C   UNL     1      -2.549  17.846  25.166  0.00  0.00    +0.000 C 
ATOM     17  O   UNL     1      -1.660  17.990  26.289  0.00  0.00    +0.000 OA
ATOM     18  C   UNL     1      -0.523  17.129  26.130  0.00  0.00    +0.000 C 
ATOM     19  C   UNL     1      -0.957  15.661  26.085  0.00  0.00    +0.000 C 
ENDBRANCH  11  14
BRANCH  12  20
ATOM     20  N   UNL     1       0.233  15.817  22.810  0.00  0.00    +0.000 N 
ATOM     21  O   UNL     1      -0.231  16.896  22.417  0.00  0.00    +0.000 OA
ATOM     22  O   UNL     1       1.404  15.636  23.177  0.00  0.00    +0.000 OA
ENDBRANCH  12  20
ENDBRANCH   5   8
BRANCH   1  24
ATOM     23  C   UNL     1       1.763   8.862  18.583  0.00  0.00    +0.000 C 
ATOM     24  C   UNL     1       0.695   8.779  19.399  0.00  0.00    +0.000 C 
BRANCH  23  26
ATOM     25  N   UNL     1       1.891   6.407  18.746  0.00  0.00    +0.000 N 
ATOM     26  C   UNL     1       2.497   7.582  18.317  0.00  0.00    +0.000 C 
ATOM     27  O   UNL     1       3.577   7.653  17.745  0.00  0.00    +0.000 OA
ATOM     28  H   UNL     1       0.991   6.472  19.203  0.00  0.00    +0.000 HD
BRANCH  25  33
ATOM     29  C   UNL     1       4.114   1.114  18.127  0.00  0.00    +0.000 C 
ATOM     30  C   UNL     1       3.527   2.481  18.301  0.00  0.00    +0.000 A 
ATOM     31  C   UNL     1       3.862   3.500  17.421  0.00  0.00    +0.000 A 
ATOM     32  C   UNL     1       3.318   4.775  17.577  0.00  0.00    +0.000 A 
ATOM     33  C   UNL     1       2.423   5.089  18.607  0.00  0.00    +0.000 A 
ATOM     34  C   UNL     1       2.069   4.060  19.508  0.00  0.00    +0.000 A 
ATOM     35  C   UNL     1       1.121   4.208  20.672  0.00  0.00    +0.000 C 
ATOM     36  C   UNL     1       2.634   2.769  19.338  0.00  0.00    +0.000 A 
ENDBRANCH  25  33
ENDBRANCH  23  26
BRANCH  23  37
ATOM     37  C   UNL     1       2.183  10.094  18.011  0.00  0.00    +0.000 C 
ATOM     38  N   UNL     1       2.565  11.103  17.585  0.00  0.00    +0.000 NA
ENDBRANCH  23  37
ENDBRANCH   1  24
TORSDOF 7
ENDMDL
