MODEL 1
REMARK VINA RESULT:      -9.2      0.000      0.000
REMARK  Name = 
REMARK  4 active torsions:
REMARK  status: ('A' for Active; 'I' for Inactive)
REMARK    1  A    between atoms: C_7  and  C_8
REMARK    2  A    between atoms: C_11  and  N_12
REMARK    3  A    between atoms: N_12  and  S_13
REMARK    4  A    between atoms: S_13  and  C_16
REMARK                            x       y       z     vdW  Elec       q    Type
REMARK                         _______ _______ _______ _____ _____    ______ ____
ROOT
ATOM      1  C   UNL     1       2.322   7.777  18.641  0.00  0.00    +0.000 A 
ATOM      2  C   UNL     1       1.962   7.581  19.992  0.00  0.00    +0.000 A 
ATOM      3  C   UNL     1       1.040   8.417  20.635  0.00  0.00    +0.000 A 
ATOM      4  C   UNL     1       0.473   9.481  19.945  0.00  0.00    +0.000 A 
ATOM      5  C   UNL     1       0.805   9.703  18.616  0.00  0.00    +0.000 A 
ATOM      6  C   UNL     1       1.721   8.861  17.976  0.00  0.00    +0.000 A 
ENDROOT
BRANCH   1  13
ATOM      7  N   UNL     1       6.390   3.250  15.730  0.00  0.00    +0.000 N 
ATOM      8  C   UNL     1       6.227   4.543  16.036  0.00  0.00    +0.000 A 
ATOM      9  N   UNL     1       7.133   5.473  15.751  0.00  0.00    +0.000 NA
ATOM     10  N   UNL     1       6.577   6.609  16.207  0.00  0.00    +0.000 N 
ATOM     11  C   UNL     1       5.352   6.441  16.794  0.00  0.00    +0.000 A 
ATOM     12  C   UNL     1       4.474   7.351  17.399  0.00  0.00    +0.000 A 
ATOM     13  C   UNL     1       3.261   6.869  17.935  0.00  0.00    +0.000 A 
ATOM     14  C   UNL     1       2.985   5.493  17.812  0.00  0.00    +0.000 A 
ATOM     15  C   UNL     1       3.880   4.591  17.210  0.00  0.00    +0.000 A 
ATOM     16  C   UNL     1       5.090   5.082  16.694  0.00  0.00    +0.000 A 
ATOM     17  H   UNL     1       7.293   2.950  15.383  0.00  0.00    +0.000 HD
ATOM     18  H   UNL     1       5.792   2.521  16.090  0.00  0.00    +0.000 HD
ATOM     19  H   UNL     1       7.091   7.473  16.086  0.00  0.00    +0.000 HD
ENDBRANCH   1  13
BRANCH   4  20
ATOM     20  N   UNL     1      -0.479  10.320  20.563  0.00  0.00    +0.000 N 
ATOM     21  H   UNL     1      -1.476  10.172  20.415  0.00  0.00    +0.000 HD
BRANCH  20  22
ATOM     22  S   UNL     1      -0.057  11.264  21.879  0.00  0.00    +0.000 S 
ATOM     23  O   UNL     1       0.127  10.372  23.004  0.00  0.00    +0.000 OA
ATOM     24  O   UNL     1       0.997  12.172  21.473  0.00  0.00    +0.000 OA
BRANCH  22  25
ATOM     25  C   UNL     1      -1.505  12.216  22.196  0.00  0.00    +0.000 A 
ATOM     26  C   UNL     1      -2.316  11.918  23.296  0.00  0.00    +0.000 A 
ATOM     27  C   UNL     1      -3.456  12.688  23.525  0.00  0.00    +0.000 A 
ATOM     28 CL   UNL     1      -4.470  12.332  24.867  0.00  0.00    +0.000 Cl
ATOM     29  C   UNL     1      -3.783  13.746  22.674  0.00  0.00    +0.000 A 
ATOM     30  C   UNL     1      -2.964  14.035  21.580  0.00  0.00    +0.000 A 
ATOM     31  C   UNL     1      -1.829  13.264  21.342  0.00  0.00    +0.000 A 
ATOM     32  F   UNL     1      -1.050  13.578  20.300  0.00  0.00    +0.000 F 
ENDBRANCH  22  25
ENDBRANCH  20  22
ENDBRANCH   4  20
TORSDOF 4
ENDMDL
MODEL 2
REMARK VINA RESULT:      -8.9      3.984      4.653
REMARK  Name = 
REMARK  4 active torsions:
REMARK  status: ('A' for Active; 'I' for Inactive)
REMARK    1  A    between atoms: C_7  and  C_8
REMARK    2  A    between atoms: C_11  and  N_12
REMARK    3  A    between atoms: N_12  and  S_13
REMARK    4  A    between atoms: S_13  and  C_16
REMARK                            x       y       z     vdW  Elec       q    Type
REMARK                         _______ _______ _______ _____ _____    ______ ____
ROOT
ATOM      1  C   UNL     1       2.023   7.793  19.350  0.00  0.00    +0.000 A 
ATOM      2  C   UNL     1       1.370   8.534  20.358  0.00  0.00    +0.000 A 
ATOM      3  C   UNL     1       0.788   9.780  20.094  0.00  0.00    +0.000 A 
ATOM      4  C   UNL     1       0.864  10.321  18.816  0.00  0.00    +0.000 A 
ATOM      5  C   UNL     1       1.499   9.620  17.801  0.00  0.00    +0.000 A 
ATOM      6  C   UNL     1       2.073   8.372  18.069  0.00  0.00    +0.000 A 
ENDROOT
BRANCH   1  13
ATOM      7  N   UNL     1       4.787   1.673  20.002  0.00  0.00    +0.000 N 
ATOM      8  C   UNL     1       3.883   2.527  20.496  0.00  0.00    +0.000 A 
ATOM      9  N   UNL     1       3.093   2.231  21.523  0.00  0.00    +0.000 NA
ATOM     10  N   UNL     1       2.366   3.347  21.698  0.00  0.00    +0.000 N 
ATOM     11  C   UNL     1       2.645   4.348  20.807  0.00  0.00    +0.000 A 
ATOM     12  C   UNL     1       2.104   5.631  20.644  0.00  0.00    +0.000 A 
ATOM     13  C   UNL     1       2.601   6.450  19.607  0.00  0.00    +0.000 A 
ATOM     14  C   UNL     1       3.638   5.939  18.801  0.00  0.00    +0.000 A 
ATOM     15  C   UNL     1       4.163   4.646  18.972  0.00  0.00    +0.000 A 
ATOM     16  C   UNL     1       3.650   3.837  19.998  0.00  0.00    +0.000 A 
ATOM     17  H   UNL     1       4.780   0.719  20.342  0.00  0.00    +0.000 HD
ATOM     18  H   UNL     1       5.265   1.825  19.126  0.00  0.00    +0.000 HD
ATOM     19  H   UNL     1       1.689   3.362  22.451  0.00  0.00    +0.000 HD
ENDBRANCH   1  13
BRANCH   4  20
ATOM     20  N   UNL     1       0.261  11.563  18.518  0.00  0.00    +0.000 N 
ATOM     21  H   UNL     1       0.469  12.045  17.645  0.00  0.00    +0.000 HD
BRANCH  20  22
ATOM     22  S   UNL     1      -1.116  12.058  19.330  0.00  0.00    +0.000 S 
ATOM     23  O   UNL     1      -1.259  11.206  20.491  0.00  0.00    +0.000 OA
ATOM     24  O   UNL     1      -1.071  13.500  19.470  0.00  0.00    +0.000 OA
BRANCH  22  25
ATOM     25  C   UNL     1      -2.425  11.659  18.221  0.00  0.00    +0.000 A 
ATOM     26  C   UNL     1      -2.141  11.117  16.964  0.00  0.00    +0.000 A 
ATOM     27  C   UNL     1      -3.197  10.809  16.105  0.00  0.00    +0.000 A 
ATOM     28 CL   UNL     1      -2.868  10.150  14.551  0.00  0.00    +0.000 Cl
ATOM     29  C   UNL     1      -4.520  11.030  16.496  0.00  0.00    +0.000 A 
ATOM     30  C   UNL     1      -4.790  11.569  17.755  0.00  0.00    +0.000 A 
ATOM     31  C   UNL     1      -3.740  11.887  18.613  0.00  0.00    +0.000 A 
ATOM     32  F   UNL     1      -4.029  12.381  19.822  0.00  0.00    +0.000 F 
ENDBRANCH  22  25
ENDBRANCH  20  22
ENDBRANCH   4  20
TORSDOF 4
ENDMDL
MODEL 3
REMARK VINA RESULT:      -8.8      5.408      9.809
REMARK  Name = 
REMARK  4 active torsions:
REMARK  status: ('A' for Active; 'I' for Inactive)
REMARK    1  A    between atoms: C_7  and  C_8
REMARK    2  A    between atoms: C_11  and  N_12
REMARK    3  A    between atoms: N_12  and  S_13
REMARK    4  A    between atoms: S_13  and  C_16
REMARK                            x       y       z     vdW  Elec       q    Type
REMARK                         _______ _______ _______ _____ _____    ______ ____
ROOT
ATOM      1  C   UNL     1       2.222   7.537  19.016  0.00  0.00    +0.000 A 
ATOM      2  C   UNL     1       2.326   6.178  19.384  0.00  0.00    +0.000 A 
ATOM      3  C   UNL     1       3.083   5.270  18.633  0.00  0.00    +0.000 A 
ATOM      4  C   UNL     1       3.737   5.699  17.485  0.00  0.00    +0.000 A 
ATOM      5  C   UNL     1       3.656   7.028  17.094  0.00  0.00    +0.000 A 
ATOM      6  C   UNL     1       2.905   7.933  17.852  0.00  0.00    +0.000 A 
ENDROOT
BRANCH   1  13
ATOM      7  N   UNL     1      -1.023  12.384  22.406  0.00  0.00    +0.000 N 
ATOM      8  C   UNL     1      -0.517  11.147  22.475  0.00  0.00    +0.000 A 
ATOM      9  N   UNL     1      -0.550  10.413  23.582  0.00  0.00    +0.000 NA
ATOM     10  N   UNL     1       0.039   9.261  23.218  0.00  0.00    +0.000 N 
ATOM     11  C   UNL     1       0.470   9.233  21.919  0.00  0.00    +0.000 A 
ATOM     12  C   UNL     1       1.136   8.248  21.176  0.00  0.00    +0.000 A 
ATOM     13  C   UNL     1       1.463   8.519  19.831  0.00  0.00    +0.000 A 
ATOM     14  C   UNL     1       1.079   9.765  19.295  0.00  0.00    +0.000 A 
ATOM     15  C   UNL     1       0.420  10.746  20.056  0.00  0.00    +0.000 A 
ATOM     16  C   UNL     1       0.113  10.469  21.398  0.00  0.00    +0.000 A 
ATOM     17  H   UNL     1      -1.329  12.825  23.265  0.00  0.00    +0.000 HD
ATOM     18  H   UNL     1      -0.852  13.006  21.629  0.00  0.00    +0.000 HD
ATOM     19  H   UNL     1       0.117   8.526  23.910  0.00  0.00    +0.000 HD
ENDBRANCH   1  13
BRANCH   4  20
ATOM     20  N   UNL     1       4.529   4.808  16.727  0.00  0.00    +0.000 N 
ATOM     21  H   UNL     1       4.162   3.902  16.441  0.00  0.00    +0.000 HD
BRANCH  20  22
ATOM     22  S   UNL     1       5.877   5.356  15.901  0.00  0.00    +0.000 S 
ATOM     23  O   UNL     1       6.581   4.191  15.410  0.00  0.00    +0.000 OA
ATOM     24  O   UNL     1       5.462   6.408  14.994  0.00  0.00    +0.000 OA
BRANCH  22  25
ATOM     25  C   UNL     1       6.875   6.081  17.157  0.00  0.00    +0.000 A 
ATOM     26  C   UNL     1       7.254   7.424  17.067  0.00  0.00    +0.000 A 
ATOM     27  C   UNL     1       8.045   7.974  18.076  0.00  0.00    +0.000 A 
ATOM     28 CL   UNL     1       8.528   9.621  17.979  0.00  0.00    +0.000 Cl
ATOM     29  C   UNL     1       8.448   7.199  19.166  0.00  0.00    +0.000 A 
ATOM     30  C   UNL     1       8.062   5.860  19.246  0.00  0.00    +0.000 A 
ATOM     31  C   UNL     1       7.279   5.303  18.236  0.00  0.00    +0.000 A 
ATOM     32  F   UNL     1       6.904   4.024  18.350  0.00  0.00    +0.000 F 
ENDBRANCH  22  25
ENDBRANCH  20  22
ENDBRANCH   4  20
TORSDOF 4
ENDMDL
MODEL 4
REMARK VINA RESULT:      -8.8      6.422      9.045
REMARK  Name = 
REMARK  4 active torsions:
REMARK  status: ('A' for Active; 'I' for Inactive)
REMARK    1  A    between atoms: C_7  and  C_8
REMARK    2  A    between atoms: C_11  and  N_12
REMARK    3  A    between atoms: N_12  and  S_13
REMARK    4  A    between atoms: S_13  and  C_16
REMARK                            x       y       z     vdW  Elec       q    Type
REMARK                         _______ _______ _______ _____ _____    ______ ____
ROOT
ATOM      1  C   UNL     1       8.155   8.197  18.229  0.00  0.00    +0.000 A 
ATOM      2  C   UNL     1       7.435   7.884  17.055  0.00  0.00    +0.000 A 
ATOM      3  C   UNL     1       6.906   6.606  16.836  0.00  0.00    +0.000 A 
ATOM      4  C   UNL     1       7.103   5.606  17.781  0.00  0.00    +0.000 A 
ATOM      5  C   UNL     1       7.806   5.879  18.946  0.00  0.00    +0.000 A 
ATOM      6  C   UNL     1       8.326   7.159  19.163  0.00  0.00    +0.000 A 
ENDROOT
BRANCH   1  13
ATOM      7  N   UNL     1      10.519  14.276  19.953  0.00  0.00    +0.000 N 
ATOM      8  C   UNL     1       9.856  13.580  19.022  0.00  0.00    +0.000 A 
ATOM      9  N   UNL     1       9.364  14.134  17.919  0.00  0.00    +0.000 NA
ATOM     10  N   UNL     1       8.802  13.102  17.268  0.00  0.00    +0.000 N 
ATOM     11  C   UNL     1       8.895  11.903  17.922  0.00  0.00    +0.000 A 
ATOM     12  C   UNL     1       8.430  10.621  17.596  0.00  0.00    +0.000 A 
ATOM     13  C   UNL     1       8.678   9.561  18.493  0.00  0.00    +0.000 A 
ATOM     14  C   UNL     1       9.407   9.844  19.665  0.00  0.00    +0.000 A 
ATOM     15  C   UNL     1       9.860  11.137  19.982  0.00  0.00    +0.000 A 
ATOM     16  C   UNL     1       9.593  12.186  19.088  0.00  0.00    +0.000 A 
ATOM     17  H   UNL     1      10.535  15.285  19.875  0.00  0.00    +0.000 HD
ATOM     18  H   UNL     1      10.745  13.901  20.863  0.00  0.00    +0.000 HD
ATOM     19  H   UNL     1       8.364  13.284  16.373  0.00  0.00    +0.000 HD
ENDBRANCH   1  13
BRANCH   4  20
ATOM     20  N   UNL     1       6.556   4.318  17.596  0.00  0.00    +0.000 N 
ATOM     21  H   UNL     1       6.954   3.510  18.072  0.00  0.00    +0.000 HD
BRANCH  20  22
ATOM     22  S   UNL     1       5.010   4.127  16.982  0.00  0.00    +0.000 S 
ATOM     23  O   UNL     1       5.003   4.708  15.656  0.00  0.00    +0.000 OA
ATOM     24  O   UNL     1       4.600   2.754  17.192  0.00  0.00    +0.000 OA
BRANCH  22  25
ATOM     25  C   UNL     1       4.019   5.157  18.011  0.00  0.00    +0.000 A 
ATOM     26  C   UNL     1       3.468   6.338  17.503  0.00  0.00    +0.000 A 
ATOM     27  C   UNL     1       2.685   7.135  18.338  0.00  0.00    +0.000 A 
ATOM     28 CL   UNL     1       2.007   8.595  17.735  0.00  0.00    +0.000 Cl
ATOM     29  C   UNL     1       2.447   6.758  19.662  0.00  0.00    +0.000 A 
ATOM     30  C   UNL     1       3.000   5.575  20.157  0.00  0.00    +0.000 A 
ATOM     31  C   UNL     1       3.790   4.780  19.329  0.00  0.00    +0.000 A 
ATOM     32  F   UNL     1       4.288   3.641  19.823  0.00  0.00    +0.000 F 
ENDBRANCH  22  25
ENDBRANCH  20  22
ENDBRANCH   4  20
TORSDOF 4
ENDMDL
MODEL 5
REMARK VINA RESULT:      -8.8      5.375      9.819
REMARK  Name = 
REMARK  4 active torsions:
REMARK  status: ('A' for Active; 'I' for Inactive)
REMARK    1  A    between atoms: C_7  and  C_8
REMARK    2  A    between atoms: C_11  and  N_12
REMARK    3  A    between atoms: N_12  and  S_13
REMARK    4  A    between atoms: S_13  and  C_16
REMARK                            x       y       z     vdW  Elec       q    Type
REMARK                         _______ _______ _______ _____ _____    ______ ____
ROOT
ATOM      1  C   UNL     1       2.281   7.593  19.166  0.00  0.00    +0.000 A 
ATOM      2  C   UNL     1       2.825   7.991  17.926  0.00  0.00    +0.000 A 
ATOM      3  C   UNL     1       3.542   7.099  17.118  0.00  0.00    +0.000 A 
ATOM      4  C   UNL     1       3.747   5.792  17.545  0.00  0.00    +0.000 A 
ATOM      5  C   UNL     1       3.227   5.368  18.758  0.00  0.00    +0.000 A 
ATOM      6  C   UNL     1       2.505   6.261  19.558  0.00  0.00    +0.000 A 
ENDROOT
BRANCH   1  13
ATOM      7  N   UNL     1      -1.512  11.360  23.282  0.00  0.00    +0.000 N 
ATOM      8  C   UNL     1      -0.982  11.266  22.057  0.00  0.00    +0.000 A 
ATOM      9  N   UNL     1      -1.183  12.178  21.111  0.00  0.00    +0.000 NA
ATOM     10  N   UNL     1      -0.475  11.714  20.066  0.00  0.00    +0.000 N 
ATOM     11  C   UNL     1       0.159  10.524  20.298  0.00  0.00    +0.000 A 
ATOM     12  C   UNL     1       0.961   9.717  19.479  0.00  0.00    +0.000 A 
ATOM     13  C   UNL     1       1.478   8.515  20.008  0.00  0.00    +0.000 A 
ATOM     14  C   UNL     1       1.179   8.201  21.348  0.00  0.00    +0.000 A 
ATOM     15  C   UNL     1       0.366   9.016  22.154  0.00  0.00    +0.000 A 
ATOM     16  C   UNL     1      -0.154  10.201  21.612  0.00  0.00    +0.000 A 
ATOM     17  H   UNL     1      -2.195  12.087  23.454  0.00  0.00    +0.000 HD
ATOM     18  H   UNL     1      -1.504  10.596  23.944  0.00  0.00    +0.000 HD
ATOM     19  H   UNL     1      -0.467  12.262  19.215  0.00  0.00    +0.000 HD
ENDBRANCH   1  13
BRANCH   4  20
ATOM     20  N   UNL     1       4.443   4.868  16.735  0.00  0.00    +0.000 N 
ATOM     21  H   UNL     1       3.989   4.013  16.416  0.00  0.00    +0.000 HD
BRANCH  20  22
ATOM     22  S   UNL     1       5.825   5.326  15.911  0.00  0.00    +0.000 S 
ATOM     23  O   UNL     1       6.484   4.113  15.474  0.00  0.00    +0.000 OA
ATOM     24  O   UNL     1       5.470   6.360  14.960  0.00  0.00    +0.000 OA
BRANCH  22  25
ATOM     25  C   UNL     1       6.837   6.053  17.156  0.00  0.00    +0.000 A 
ATOM     26  C   UNL     1       7.235   7.389  17.048  0.00  0.00    +0.000 A 
ATOM     27  C   UNL     1       8.035   7.941  18.048  0.00  0.00    +0.000 A 
ATOM     28 CL   UNL     1       8.542   9.579  17.929  0.00  0.00    +0.000 Cl
ATOM     29  C   UNL     1       8.430   7.174  19.148  0.00  0.00    +0.000 A 
ATOM     30  C   UNL     1       8.024   5.842  19.246  0.00  0.00    +0.000 A 
ATOM     31  C   UNL     1       7.232   5.283  18.245  0.00  0.00    +0.000 A 
ATOM     32  F   UNL     1       6.839   4.011  18.376  0.00  0.00    +0.000 F 
ENDBRANCH  22  25
ENDBRANCH  20  22
ENDBRANCH   4  20
TORSDOF 4
ENDMDL
MODEL 6
REMARK VINA RESULT:      -8.8      1.322      1.646
REMARK  Name = 
REMARK  4 active torsions:
REMARK  status: ('A' for Active; 'I' for Inactive)
REMARK    1  A    between atoms: C_7  and  C_8
REMARK    2  A    between atoms: C_11  and  N_12
REMARK    3  A    between atoms: N_12  and  S_13
REMARK    4  A    between atoms: S_13  and  C_16
REMARK                            x       y       z     vdW  Elec       q    Type
REMARK                         _______ _______ _______ _____ _____    ______ ____
ROOT
ATOM      1  C   UNL     1       2.408   7.647  18.725  0.00  0.00    +0.000 A 
ATOM      2  C   UNL     1       2.087   7.409  20.079  0.00  0.00    +0.000 A 
ATOM      3  C   UNL     1       1.188   8.227  20.775  0.00  0.00    +0.000 A 
ATOM      4  C   UNL     1       0.604   9.314  20.135  0.00  0.00    +0.000 A 
ATOM      5  C   UNL     1       0.897   9.576  18.805  0.00  0.00    +0.000 A 
ATOM      6  C   UNL     1       1.791   8.752  18.112  0.00  0.00    +0.000 A 
ENDROOT
BRANCH   1  13
ATOM      7  N   UNL     1       6.368   3.201  15.551  0.00  0.00    +0.000 N 
ATOM      8  C   UNL     1       6.223   4.482  15.909  0.00  0.00    +0.000 A 
ATOM      9  N   UNL     1       7.130   5.416  15.639  0.00  0.00    +0.000 NA
ATOM     10  N   UNL     1       6.595   6.538  16.150  0.00  0.00    +0.000 N 
ATOM     11  C   UNL     1       5.383   6.358  16.759  0.00  0.00    +0.000 A 
ATOM     12  C   UNL     1       4.526   7.251  17.419  0.00  0.00    +0.000 A 
ATOM     13  C   UNL     1       3.322   6.759  17.964  0.00  0.00    +0.000 A 
ATOM     14  C   UNL     1       3.031   5.390  17.795  0.00  0.00    +0.000 A 
ATOM     15  C   UNL     1       3.904   4.505  17.139  0.00  0.00    +0.000 A 
ATOM     16  C   UNL     1       5.106   5.005  16.614  0.00  0.00    +0.000 A 
ATOM     17  H   UNL     1       7.260   2.908  15.173  0.00  0.00    +0.000 HD
ATOM     18  H   UNL     1       5.771   2.463  15.898  0.00  0.00    +0.000 HD
ATOM     19  H   UNL     1       7.113   7.402  16.050  0.00  0.00    +0.000 HD
ENDBRANCH   1  13
BRANCH   4  20
ATOM     20  N   UNL     1      -0.327  10.136  20.808  0.00  0.00    +0.000 N 
ATOM     21  H   UNL     1      -0.937   9.750  21.526  0.00  0.00    +0.000 HD
BRANCH  20  22
ATOM     22  S   UNL     1      -0.161  11.801  20.792  0.00  0.00    +0.000 S 
ATOM     23  O   UNL     1       0.979  12.125  21.623  0.00  0.00    +0.000 OA
ATOM     24  O   UNL     1      -0.230  12.256  19.418  0.00  0.00    +0.000 OA
BRANCH  22  25
ATOM     25  C   UNL     1      -1.601  12.375  21.630  0.00  0.00    +0.000 A 
ATOM     26  C   UNL     1      -2.433  13.324  21.028  0.00  0.00    +0.000 A 
ATOM     27  C   UNL     1      -3.567  13.762  21.712  0.00  0.00    +0.000 A 
ATOM     28 CL   UNL     1      -4.598  14.935  20.993  0.00  0.00    +0.000 Cl
ATOM     29  C   UNL     1      -3.874  13.255  22.978  0.00  0.00    +0.000 A 
ATOM     30  C   UNL     1      -3.037  12.306  23.567  0.00  0.00    +0.000 A 
ATOM     31  C   UNL     1      -1.898  11.873  22.891  0.00  0.00    +0.000 A 
ATOM     32  F   UNL     1      -1.126  10.945  23.470  0.00  0.00    +0.000 F 
ENDBRANCH  22  25
ENDBRANCH  20  22
ENDBRANCH   4  20
TORSDOF 4
ENDMDL
MODEL 7
REMARK VINA RESULT:      -8.7      1.249      1.660
REMARK  Name = 
REMARK  4 active torsions:
REMARK  status: ('A' for Active; 'I' for Inactive)
REMARK    1  A    between atoms: C_7  and  C_8
REMARK    2  A    between atoms: C_11  and  N_12
REMARK    3  A    between atoms: N_12  and  S_13
REMARK    4  A    between atoms: S_13  and  C_16
REMARK                            x       y       z     vdW  Elec       q    Type
REMARK                         _______ _______ _______ _____ _____    ______ ____
ROOT
ATOM      1  C   UNL     1       2.172   8.010  18.592  0.00  0.00    +0.000 A 
ATOM      2  C   UNL     1       1.620   9.109  17.899  0.00  0.00    +0.000 A 
ATOM      3  C   UNL     1       0.843  10.074  18.552  0.00  0.00    +0.000 A 
ATOM      4  C   UNL     1       0.585   9.949  19.912  0.00  0.00    +0.000 A 
ATOM      5  C   UNL     1       1.112   8.881  20.624  0.00  0.00    +0.000 A 
ATOM      6  C   UNL     1       1.894   7.923  19.968  0.00  0.00    +0.000 A 
ENDROOT
BRANCH   1  13
ATOM      7  N   UNL     1       5.960   3.107  15.921  0.00  0.00    +0.000 N 
ATOM      8  C   UNL     1       5.796   4.430  16.032  0.00  0.00    +0.000 A 
ATOM      9  N   UNL     1       6.622   5.311  15.476  0.00  0.00    +0.000 NA
ATOM     10  N   UNL     1       6.096   6.500  15.813  0.00  0.00    +0.000 N 
ATOM     11  C   UNL     1       4.968   6.419  16.585  0.00  0.00    +0.000 A 
ATOM     12  C   UNL     1       4.149   7.407  17.149  0.00  0.00    +0.000 A 
ATOM     13  C   UNL     1       3.036   7.007  17.920  0.00  0.00    +0.000 A 
ATOM     14  C   UNL     1       2.793   5.627  18.062  0.00  0.00    +0.000 A 
ATOM     15  C   UNL     1       3.629   4.648  17.497  0.00  0.00    +0.000 A 
ATOM     16  C   UNL     1       4.741   5.059  16.745  0.00  0.00    +0.000 A 
ATOM     17  H   UNL     1       6.817   2.764  15.506  0.00  0.00    +0.000 HD
ATOM     18  H   UNL     1       5.441   2.441  16.475  0.00  0.00    +0.000 HD
ATOM     19  H   UNL     1       6.559   7.338  15.483  0.00  0.00    +0.000 HD
ENDBRANCH   1  13
BRANCH   4  20
ATOM     20  N   UNL     1      -0.171  10.924  20.598  0.00  0.00    +0.000 N 
ATOM     21  H   UNL     1      -0.924  10.649  21.227  0.00  0.00    +0.000 HD
BRANCH  20  22
ATOM     22  S   UNL     1       0.403  12.487  20.767  0.00  0.00    +0.000 S 
ATOM     23  O   UNL     1       1.752  12.393  21.283  0.00  0.00    +0.000 OA
ATOM     24  O   UNL     1       0.127  13.211  19.542  0.00  0.00    +0.000 OA
BRANCH  22  25
ATOM     25  C   UNL     1      -0.601  13.169  22.042  0.00  0.00    +0.000 A 
ATOM     26  C   UNL     1      -1.704  12.458  22.526  0.00  0.00    +0.000 A 
ATOM     27  C   UNL     1      -2.482  13.021  23.538  0.00  0.00    +0.000 A 
ATOM     28 CL   UNL     1      -3.847  12.166  24.140  0.00  0.00    +0.000 Cl
ATOM     29  C   UNL     1      -2.164  14.274  24.067  0.00  0.00    +0.000 A 
ATOM     30  C   UNL     1      -1.059  14.973  23.577  0.00  0.00    +0.000 A 
ATOM     31  C   UNL     1      -0.284  14.420  22.561  0.00  0.00    +0.000 A 
ATOM     32  F   UNL     1       0.783  15.102  22.127  0.00  0.00    +0.000 F 
ENDBRANCH  22  25
ENDBRANCH  20  22
ENDBRANCH   4  20
TORSDOF 4
ENDMDL
MODEL 8
REMARK VINA RESULT:      -8.7      5.269     10.284
REMARK  Name = 
REMARK  4 active torsions:
REMARK  status: ('A' for Active; 'I' for Inactive)
REMARK    1  A    between atoms: C_7  and  C_8
REMARK    2  A    between atoms: C_11  and  N_12
REMARK    3  A    between atoms: N_12  and  S_13
REMARK    4  A    between atoms: S_13  and  C_16
REMARK                            x       y       z     vdW  Elec       q    Type
REMARK                         _______ _______ _______ _____ _____    ______ ____
ROOT
ATOM      1  C   UNL     1       1.425   7.997  20.303  0.00  0.00    +0.000 A 
ATOM      2  C   UNL     1       1.405   6.732  20.929  0.00  0.00    +0.000 A 
ATOM      3  C   UNL     1       2.019   5.615  20.348  0.00  0.00    +0.000 A 
ATOM      4  C   UNL     1       2.651   5.737  19.116  0.00  0.00    +0.000 A 
ATOM      5  C   UNL     1       2.690   6.966  18.473  0.00  0.00    +0.000 A 
ATOM      6  C   UNL     1       2.081   8.080  19.062  0.00  0.00    +0.000 A 
ENDROOT
BRANCH   1  13
ATOM      7  N   UNL     1      -1.633  13.123  23.448  0.00  0.00    +0.000 N 
ATOM      8  C   UNL     1      -0.976  12.748  22.345  0.00  0.00    +0.000 A 
ATOM      9  N   UNL     1      -0.743  13.570  21.326  0.00  0.00    +0.000 NA
ATOM     10  N   UNL     1      -0.058  12.811  20.454  0.00  0.00    +0.000 N 
ATOM     11  C   UNL     1       0.143  11.521  20.865  0.00  0.00    +0.000 A 
ATOM     12  C   UNL     1       0.778  10.433  20.250  0.00  0.00    +0.000 A 
ATOM     13  C   UNL     1       0.821   9.198  20.933  0.00  0.00    +0.000 A 
ATOM     14  C   UNL     1       0.239   9.131  22.214  0.00  0.00    +0.000 A 
ATOM     15  C   UNL     1      -0.403  10.229  22.813  0.00  0.00    +0.000 A 
ATOM     16  C   UNL     1      -0.451  11.448  22.118  0.00  0.00    +0.000 A 
ATOM     17  H   UNL     1      -2.082  14.031  23.453  0.00  0.00    +0.000 HD
ATOM     18  H   UNL     1      -1.959  12.467  24.144  0.00  0.00    +0.000 HD
ATOM     19  H   UNL     1       0.245  13.237  19.587  0.00  0.00    +0.000 HD
ENDBRANCH   1  13
BRANCH   4  20
ATOM     20  N   UNL     1       3.301   4.632  18.524  0.00  0.00    +0.000 N 
ATOM     21  H   UNL     1       2.925   4.198  17.682  0.00  0.00    +0.000 HD
BRANCH  20  22
ATOM     22  S   UNL     1       4.898   4.288  18.885  0.00  0.00    +0.000 S 
ATOM     23  O   UNL     1       5.390   5.363  19.719  0.00  0.00    +0.000 OA
ATOM     24  O   UNL     1       4.981   2.910  19.327  0.00  0.00    +0.000 OA
BRANCH  22  25
ATOM     25  C   UNL     1       5.718   4.412  17.331  0.00  0.00    +0.000 A 
ATOM     26  C   UNL     1       5.023   4.151  16.146  0.00  0.00    +0.000 A 
ATOM     27  C   UNL     1       5.695   4.257  14.928  0.00  0.00    +0.000 A 
ATOM     28 CL   UNL     1       4.861   3.931  13.461  0.00  0.00    +0.000 Cl
ATOM     29  C   UNL     1       7.042   4.627  14.890  0.00  0.00    +0.000 A 
ATOM     30  C   UNL     1       7.724   4.888  16.079  0.00  0.00    +0.000 A 
ATOM     31  C   UNL     1       7.060   4.774  17.298  0.00  0.00    +0.000 A 
ATOM     32  F   UNL     1       7.732   5.053  18.421  0.00  0.00    +0.000 F 
ENDBRANCH  22  25
ENDBRANCH  20  22
ENDBRANCH   4  20
TORSDOF 4
ENDMDL
MODEL 9
REMARK VINA RESULT:      -8.6      5.275     10.328
REMARK  Name = 
REMARK  4 active torsions:
REMARK  status: ('A' for Active; 'I' for Inactive)
REMARK    1  A    between atoms: C_7  and  C_8
REMARK    2  A    between atoms: C_11  and  N_12
REMARK    3  A    between atoms: N_12  and  S_13
REMARK    4  A    between atoms: S_13  and  C_16
REMARK                            x       y       z     vdW  Elec       q    Type
REMARK                         _______ _______ _______ _____ _____    ______ ____
ROOT
ATOM      1  C   UNL     1       1.474   8.146  19.931  0.00  0.00    +0.000 A 
ATOM      2  C   UNL     1       1.454   6.956  20.691  0.00  0.00    +0.000 A 
ATOM      3  C   UNL     1       2.059   5.780  20.231  0.00  0.00    +0.000 A 
ATOM      4  C   UNL     1       2.681   5.764  18.988  0.00  0.00    +0.000 A 
ATOM      5  C   UNL     1       2.719   6.915  18.215  0.00  0.00    +0.000 A 
ATOM      6  C   UNL     1       2.120   8.090  18.683  0.00  0.00    +0.000 A 
ENDROOT
BRANCH   1  13
ATOM      7  N   UNL     1      -0.841  14.156  21.939  0.00  0.00    +0.000 N 
ATOM      8  C   UNL     1      -0.785  12.850  22.225  0.00  0.00    +0.000 A 
ATOM      9  N   UNL     1      -1.332  12.325  23.317  0.00  0.00    +0.000 NA
ATOM     10  N   UNL     1      -1.062  11.013  23.209  0.00  0.00    +0.000 N 
ATOM     11  C   UNL     1      -0.342  10.675  22.095  0.00  0.00    +0.000 A 
ATOM     12  C   UNL     1       0.149   9.444  21.637  0.00  0.00    +0.000 A 
ATOM     13  C   UNL     1       0.880   9.411  20.431  0.00  0.00    +0.000 A 
ATOM     14  C   UNL     1       1.058  10.622  19.733  0.00  0.00    +0.000 A 
ATOM     15  C   UNL     1       0.568  11.851  20.211  0.00  0.00    +0.000 A 
ATOM     16  C   UNL     1      -0.145  11.871  21.419  0.00  0.00    +0.000 A 
ATOM     17  H   UNL     1      -1.203  14.786  22.644  0.00  0.00    +0.000 HD
ATOM     18  H   UNL     1      -0.289  14.583  21.209  0.00  0.00    +0.000 HD
ATOM     19  H   UNL     1      -1.399  10.395  23.937  0.00  0.00    +0.000 HD
ENDBRANCH   1  13
BRANCH   4  20
ATOM     20  N   UNL     1       3.321   4.598  18.514  0.00  0.00    +0.000 N 
ATOM     21  H   UNL     1       2.927   4.067  17.739  0.00  0.00    +0.000 HD
BRANCH  20  22
ATOM     22  S   UNL     1       4.928   4.300  18.875  0.00  0.00    +0.000 S 
ATOM     23  O   UNL     1       5.393   5.400  19.694  0.00  0.00    +0.000 OA
ATOM     24  O   UNL     1       5.049   2.931  19.335  0.00  0.00    +0.000 OA
BRANCH  22  25
ATOM     25  C   UNL     1       5.740   4.426  17.317  0.00  0.00    +0.000 A 
ATOM     26  C   UNL     1       5.045   4.143  16.137  0.00  0.00    +0.000 A 
ATOM     27  C   UNL     1       5.712   4.251  14.916  0.00  0.00    +0.000 A 
ATOM     28 CL   UNL     1       4.878   3.898  13.455  0.00  0.00    +0.000 Cl
ATOM     29  C   UNL     1       7.051   4.644  14.869  0.00  0.00    +0.000 A 
ATOM     30  C   UNL     1       7.733   4.927  16.054  0.00  0.00    +0.000 A 
ATOM     31  C   UNL     1       7.075   4.812  17.277  0.00  0.00    +0.000 A 
ATOM     32  F   UNL     1       7.746   5.112  18.395  0.00  0.00    +0.000 F 
ENDBRANCH  22  25
ENDBRANCH  20  22
ENDBRANCH   4  20
TORSDOF 4
ENDMDL
