MODEL 1
REMARK VINA RESULT:      -6.3      0.000      0.000
REMARK  Name = 
REMARK  4 active torsions:
REMARK  status: ('A' for Active; 'I' for Inactive)
REMARK    1  A    between atoms: C_2  and  O_3
REMARK    2  A    between atoms: C_2  and  C_4
REMARK    3  A    between atoms: C_8  and  N_9
REMARK    4  A    between atoms: N_10  and  N_11
REMARK                            x       y       z     vdW  Elec       q    Type
REMARK                         _______ _______ _______ _____ _____    ______ ____
ROOT
ATOM      1  C   UNL     1       6.047   3.466  12.445  0.00  0.00    +0.000 A 
ATOM      2  C   UNL     1       7.135   4.221  11.992  0.00  0.00    +0.000 A 
ATOM      3  C   UNL     1       7.798   5.072  12.876  0.00  0.00    +0.000 A 
ATOM      4  C   UNL     1       7.360   5.186  14.198  0.00  0.00    +0.000 A 
ATOM      5  C   UNL     1       6.244   4.472  14.657  0.00  0.00    +0.000 A 
ATOM      6  C   UNL     1       5.596   3.605  13.764  0.00  0.00    +0.000 A 
ENDROOT
BRANCH   1   8
ATOM      7  O   UNL     1       4.238   2.765  11.068  0.00  0.00    +0.000 OA
ATOM      8  C   UNL     1       5.326   2.521  11.555  0.00  0.00    +0.000 C 
BRANCH   8   9
ATOM      9  O   UNL     1       5.967   1.344  11.378  0.00  0.00    +0.000 OA
ATOM     10  H   UNL     1       5.738   0.866  10.561  0.00  0.00    +0.000 HD
ENDBRANCH   8   9
ENDBRANCH   1   8
BRANCH   5  11
ATOM     11  N   UNL     1       5.888   4.593  16.017  0.00  0.00    +0.000 NA
ATOM     12  N   UNL     1       4.660   4.739  16.168  0.00  0.00    +0.000 NA
BRANCH  12  13
ATOM     13  N   UNL     1       4.263   4.659  17.472  0.00  0.00    +0.000 N 
ATOM     14  C   UNL     1       3.412   5.668  18.102  0.00  0.00    +0.000 C 
ATOM     15  C   UNL     1       3.557   5.594  19.629  0.00  0.00    +0.000 C 
ATOM     16  O   UNL     1       3.332   4.262  20.123  0.00  0.00    +0.000 OA
ATOM     17  C   UNL     1       4.258   3.337  19.526  0.00  0.00    +0.000 C 
ATOM     18  C   UNL     1       4.097   3.311  18.004  0.00  0.00    +0.000 C 
ENDBRANCH  12  13
ENDBRANCH   5  11
TORSDOF 4
ENDMDL
MODEL 2
REMARK VINA RESULT:      -6.3      3.924      4.856
REMARK  Name = 
REMARK  4 active torsions:
REMARK  status: ('A' for Active; 'I' for Inactive)
REMARK    1  A    between atoms: C_2  and  O_3
REMARK    2  A    between atoms: C_2  and  C_4
REMARK    3  A    between atoms: C_8  and  N_9
REMARK    4  A    between atoms: N_10  and  N_11
REMARK                            x       y       z     vdW  Elec       q    Type
REMARK                         _______ _______ _______ _____ _____    ______ ____
ROOT
ATOM      1  C   UNL     1       7.027   6.069  17.026  0.00  0.00    +0.000 A 
ATOM      2  C   UNL     1       7.460   5.610  15.777  0.00  0.00    +0.000 A 
ATOM      3  C   UNL     1       6.793   4.549  15.165  0.00  0.00    +0.000 A 
ATOM      4  C   UNL     1       5.714   3.937  15.808  0.00  0.00    +0.000 A 
ATOM      5  C   UNL     1       5.295   4.354  17.078  0.00  0.00    +0.000 A 
ATOM      6  C   UNL     1       5.962   5.433  17.678  0.00  0.00    +0.000 A 
ENDROOT
BRANCH   1   8
ATOM      7  O   UNL     1       7.718   8.336  17.238  0.00  0.00    +0.000 OA
ATOM      8  C   UNL     1       7.681   7.214  17.708  0.00  0.00    +0.000 C 
BRANCH   8   9
ATOM      9  O   UNL     1       8.277   6.883  18.876  0.00  0.00    +0.000 OA
ATOM     10  H   UNL     1       8.220   7.559  19.576  0.00  0.00    +0.000 HD
ENDBRANCH   8   9
ENDBRANCH   1   8
BRANCH   5  11
ATOM     11  N   UNL     1       4.166   3.728  17.648  0.00  0.00    +0.000 NA
ATOM     12  N   UNL     1       4.039   4.000  18.857  0.00  0.00    +0.000 NA
BRANCH  12  13
ATOM     13  N   UNL     1       2.854   3.574  19.385  0.00  0.00    +0.000 N 
ATOM     14  C   UNL     1       2.450   3.871  20.759  0.00  0.00    +0.000 C 
ATOM     15  C   UNL     1       1.374   2.874  21.214  0.00  0.00    +0.000 C 
ATOM     16  O   UNL     1       0.274   2.818  20.290  0.00  0.00    +0.000 OA
ATOM     17  C   UNL     1       0.730   2.438  18.980  0.00  0.00    +0.000 C 
ATOM     18  C   UNL     1       1.747   3.448  18.444  0.00  0.00    +0.000 C 
ENDBRANCH  12  13
ENDBRANCH   5  11
TORSDOF 4
ENDMDL
MODEL 3
REMARK VINA RESULT:      -6.3      3.950      4.894
REMARK  Name = 
REMARK  4 active torsions:
REMARK  status: ('A' for Active; 'I' for Inactive)
REMARK    1  A    between atoms: C_2  and  O_3
REMARK    2  A    between atoms: C_2  and  C_4
REMARK    3  A    between atoms: C_8  and  N_9
REMARK    4  A    between atoms: N_10  and  N_11
REMARK                            x       y       z     vdW  Elec       q    Type
REMARK                         _______ _______ _______ _____ _____    ______ ____
ROOT
ATOM      1  C   UNL     1       7.062   6.138  17.096  0.00  0.00    +0.000 A 
ATOM      2  C   UNL     1       7.428   5.606  15.855  0.00  0.00    +0.000 A 
ATOM      3  C   UNL     1       6.706   4.537  15.324  0.00  0.00    +0.000 A 
ATOM      4  C   UNL     1       5.639   3.989  16.042  0.00  0.00    +0.000 A 
ATOM      5  C   UNL     1       5.287   4.480  17.307  0.00  0.00    +0.000 A 
ATOM      6  C   UNL     1       6.010   5.566  17.823  0.00  0.00    +0.000 A 
ENDROOT
BRANCH   1   8
ATOM      7  O   UNL     1       7.858   8.380  17.147  0.00  0.00    +0.000 OA
ATOM      8  C   UNL     1       7.776   7.295  17.693  0.00  0.00    +0.000 C 
BRANCH   8   9
ATOM      9  O   UNL     1       8.372   7.017  18.874  0.00  0.00    +0.000 OA
ATOM     10  H   UNL     1       8.820   7.770  19.300  0.00  0.00    +0.000 HD
ENDBRANCH   8   9
ENDBRANCH   1   8
BRANCH   5  11
ATOM     11  N   UNL     1       4.167   3.916  17.954  0.00  0.00    +0.000 NA
ATOM     12  N   UNL     1       4.253   3.997  19.193  0.00  0.00    +0.000 NA
BRANCH  12  13
ATOM     13  N   UNL     1       3.103   3.643  19.838  0.00  0.00    +0.000 N 
ATOM     14  C   UNL     1       1.786   3.715  19.203  0.00  0.00    +0.000 C 
ATOM     15  C   UNL     1       0.690   3.757  20.278  0.00  0.00    +0.000 C 
ATOM     16  O   UNL     1       0.818   2.673  21.214  0.00  0.00    +0.000 OA
ATOM     17  C   UNL     1       2.102   2.711  21.863  0.00  0.00    +0.000 C 
ATOM     18  C   UNL     1       3.233   2.590  20.839  0.00  0.00    +0.000 C 
ENDBRANCH  12  13
ENDBRANCH   5  11
TORSDOF 4
ENDMDL
MODEL 4
REMARK VINA RESULT:      -6.2      2.134      2.773
REMARK  Name = 
REMARK  4 active torsions:
REMARK  status: ('A' for Active; 'I' for Inactive)
REMARK    1  A    between atoms: C_2  and  O_3
REMARK    2  A    between atoms: C_2  and  C_4
REMARK    3  A    between atoms: C_8  and  N_9
REMARK    4  A    between atoms: N_10  and  N_11
REMARK                            x       y       z     vdW  Elec       q    Type
REMARK                         _______ _______ _______ _____ _____    ______ ____
ROOT
ATOM      1  C   UNL     1       6.365   4.341  14.345  0.00  0.00    +0.000 A 
ATOM      2  C   UNL     1       7.331   5.129  14.982  0.00  0.00    +0.000 A 
ATOM      3  C   UNL     1       7.142   5.510  16.310  0.00  0.00    +0.000 A 
ATOM      4  C   UNL     1       5.982   5.126  16.989  0.00  0.00    +0.000 A 
ATOM      5  C   UNL     1       4.984   4.375  16.353  0.00  0.00    +0.000 A 
ATOM      6  C   UNL     1       5.193   3.983  15.022  0.00  0.00    +0.000 A 
ENDROOT
BRANCH   1   8
ATOM      7  O   UNL     1       7.238   4.455  12.133  0.00  0.00    +0.000 OA
ATOM      8  C   UNL     1       6.532   3.882  12.943  0.00  0.00    +0.000 C 
BRANCH   8   9
ATOM      9  O   UNL     1       5.787   2.797  12.634  0.00  0.00    +0.000 OA
ATOM     10  H   UNL     1       6.265   2.082  12.175  0.00  0.00    +0.000 HD
ENDBRANCH   8   9
ENDBRANCH   1   8
BRANCH   5  11
ATOM     11  N   UNL     1       3.863   3.976  17.112  0.00  0.00    +0.000 NA
ATOM     12  N   UNL     1       4.190   3.335  18.128  0.00  0.00    +0.000 NA
BRANCH  12  13
ATOM     13  N   UNL     1       3.149   3.109  18.982  0.00  0.00    +0.000 N 
ATOM     14  C   UNL     1       1.854   2.599  18.530  0.00  0.00    +0.000 C 
ATOM     15  C   UNL     1       0.773   2.927  19.571  0.00  0.00    +0.000 C 
ATOM     16  O   UNL     1       1.141   2.476  20.885  0.00  0.00    +0.000 OA
ATOM     17  C   UNL     1       2.380   3.080  21.300  0.00  0.00    +0.000 C 
ATOM     18  C   UNL     1       3.513   2.716  20.339  0.00  0.00    +0.000 C 
ENDBRANCH  12  13
ENDBRANCH   5  11
TORSDOF 4
ENDMDL
MODEL 5
REMARK VINA RESULT:      -6.2      2.366      3.057
REMARK  Name = 
REMARK  4 active torsions:
REMARK  status: ('A' for Active; 'I' for Inactive)
REMARK    1  A    between atoms: C_2  and  O_3
REMARK    2  A    between atoms: C_2  and  C_4
REMARK    3  A    between atoms: C_8  and  N_9
REMARK    4  A    between atoms: N_10  and  N_11
REMARK                            x       y       z     vdW  Elec       q    Type
REMARK                         _______ _______ _______ _____ _____    ______ ____
ROOT
ATOM      1  C   UNL     1       6.466   4.384  14.849  0.00  0.00    +0.000 A 
ATOM      2  C   UNL     1       7.528   4.945  15.567  0.00  0.00    +0.000 A 
ATOM      3  C   UNL     1       7.420   5.096  16.949  0.00  0.00    +0.000 A 
ATOM      4  C   UNL     1       6.248   4.709  17.605  0.00  0.00    +0.000 A 
ATOM      5  C   UNL     1       5.158   4.187  16.897  0.00  0.00    +0.000 A 
ATOM      6  C   UNL     1       5.283   4.024  15.508  0.00  0.00    +0.000 A 
ENDROOT
BRANCH   1   8
ATOM      7  O   UNL     1       5.838   3.374  12.787  0.00  0.00    +0.000 OA
ATOM      8  C   UNL     1       6.540   4.172  13.381  0.00  0.00    +0.000 C 
BRANCH   8   9
ATOM      9  O   UNL     1       7.495   4.910  12.772  0.00  0.00    +0.000 OA
ATOM     10  H   UNL     1       8.407   4.591  12.896  0.00  0.00    +0.000 HD
ENDBRANCH   8   9
ENDBRANCH   1   8
BRANCH   5  11
ATOM     11  N   UNL     1       4.026   3.768  17.627  0.00  0.00    +0.000 NA
ATOM     12  N   UNL     1       4.259   3.687  18.847  0.00  0.00    +0.000 NA
BRANCH  12  13
ATOM     13  N   UNL     1       3.138   3.478  19.599  0.00  0.00    +0.000 N 
ATOM     14  C   UNL     1       1.787   3.566  19.044  0.00  0.00    +0.000 C 
ATOM     15  C   UNL     1       0.773   3.793  20.175  0.00  0.00    +0.000 C 
ATOM     16  O   UNL     1       0.904   2.809  21.215  0.00  0.00    +0.000 OA
ATOM     17  C   UNL     1       2.230   2.834  21.773  0.00  0.00    +0.000 C 
ATOM     18  C   UNL     1       3.279   2.532  20.700  0.00  0.00    +0.000 C 
ENDBRANCH  12  13
ENDBRANCH   5  11
TORSDOF 4
ENDMDL
MODEL 6
REMARK VINA RESULT:      -6.2      1.577      1.847
REMARK  Name = 
REMARK  4 active torsions:
REMARK  status: ('A' for Active; 'I' for Inactive)
REMARK    1  A    between atoms: C_2  and  O_3
REMARK    2  A    between atoms: C_2  and  C_4
REMARK    3  A    between atoms: C_8  and  N_9
REMARK    4  A    between atoms: N_10  and  N_11
REMARK                            x       y       z     vdW  Elec       q    Type
REMARK                         _______ _______ _______ _____ _____    ______ ____
ROOT
ATOM      1  C   UNL     1       6.036   3.877  13.641  0.00  0.00    +0.000 A 
ATOM      2  C   UNL     1       7.128   4.750  13.711  0.00  0.00    +0.000 A 
ATOM      3  C   UNL     1       7.485   5.309  14.937  0.00  0.00    +0.000 A 
ATOM      4  C   UNL     1       6.742   5.014  16.083  0.00  0.00    +0.000 A 
ATOM      5  C   UNL     1       5.619   4.177  16.024  0.00  0.00    +0.000 A 
ATOM      6  C   UNL     1       5.278   3.608  14.787  0.00  0.00    +0.000 A 
ENDROOT
BRANCH   1   8
ATOM      7  O   UNL     1       4.556   3.429  11.832  0.00  0.00    +0.000 OA
ATOM      8  C   UNL     1       5.632   3.231  12.367  0.00  0.00    +0.000 C 
BRANCH   8   9
ATOM      9  O   UNL     1       6.548   2.363  11.883  0.00  0.00    +0.000 OA
ATOM     10  H   UNL     1       7.018   2.659  11.082  0.00  0.00    +0.000 HD
ENDBRANCH   8   9
ENDBRANCH   1   8
BRANCH   5  11
ATOM     11  N   UNL     1       4.944   3.879  17.227  0.00  0.00    +0.000 NA
ATOM     12  N   UNL     1       3.723   4.107  17.148  0.00  0.00    +0.000 NA
BRANCH  12  13
ATOM     13  N   UNL     1       3.016   3.644  18.221  0.00  0.00    +0.000 N 
ATOM     14  C   UNL     1       1.556   3.553  18.225  0.00  0.00    +0.000 C 
ATOM     15  C   UNL     1       1.041   3.500  19.671  0.00  0.00    +0.000 C 
ATOM     16  O   UNL     1       1.684   2.462  20.429  0.00  0.00    +0.000 OA
ATOM     17  C   UNL     1       3.109   2.660  20.455  0.00  0.00    +0.000 C 
ATOM     18  C   UNL     1       3.686   2.639  19.038  0.00  0.00    +0.000 C 
ENDBRANCH  12  13
ENDBRANCH   5  11
TORSDOF 4
ENDMDL
MODEL 7
REMARK VINA RESULT:      -6.2      0.549      1.198
REMARK  Name = 
REMARK  4 active torsions:
REMARK  status: ('A' for Active; 'I' for Inactive)
REMARK    1  A    between atoms: C_2  and  O_3
REMARK    2  A    between atoms: C_2  and  C_4
REMARK    3  A    between atoms: C_8  and  N_9
REMARK    4  A    between atoms: N_10  and  N_11
REMARK                            x       y       z     vdW  Elec       q    Type
REMARK                         _______ _______ _______ _____ _____    ______ ____
ROOT
ATOM      1  C   UNL     1       5.969   3.474  12.562  0.00  0.00    +0.000 A 
ATOM      2  C   UNL     1       7.103   4.206  12.190  0.00  0.00    +0.000 A 
ATOM      3  C   UNL     1       7.728   5.029  13.125  0.00  0.00    +0.000 A 
ATOM      4  C   UNL     1       7.209   5.138  14.419  0.00  0.00    +0.000 A 
ATOM      5  C   UNL     1       6.049   4.447  14.796  0.00  0.00    +0.000 A 
ATOM      6  C   UNL     1       5.438   3.609  13.851  0.00  0.00    +0.000 A 
ENDROOT
BRANCH   1   8
ATOM      7  O   UNL     1       4.215   2.819  11.093  0.00  0.00    +0.000 OA
ATOM      8  C   UNL     1       5.284   2.559  11.615  0.00  0.00    +0.000 C 
BRANCH   8   9
ATOM      9  O   UNL     1       5.931   1.387  11.426  0.00  0.00    +0.000 OA
ATOM     10  H   UNL     1       6.673   1.220  12.035  0.00  0.00    +0.000 HD
ENDBRANCH   8   9
ENDBRANCH   1   8
BRANCH   5  11
ATOM     11  N   UNL     1       5.609   4.560  16.131  0.00  0.00    +0.000 NA
ATOM     12  N   UNL     1       4.414   4.235  16.260  0.00  0.00    +0.000 NA
BRANCH  12  13
ATOM     13  N   UNL     1       4.017   4.143  17.563  0.00  0.00    +0.000 N 
ATOM     14  C   UNL     1       3.757   2.862  18.221  0.00  0.00    +0.000 C 
ATOM     15  C   UNL     1       2.867   3.079  19.453  0.00  0.00    +0.000 C 
ATOM     16  O   UNL     1       3.407   4.079  20.334  0.00  0.00    +0.000 OA
ATOM     17  C   UNL     1       3.557   5.334  19.646  0.00  0.00    +0.000 C 
ATOM     18  C   UNL     1       4.504   5.191  18.452  0.00  0.00    +0.000 C 
ENDBRANCH  12  13
ENDBRANCH   5  11
TORSDOF 4
ENDMDL
MODEL 8
REMARK VINA RESULT:      -6.2      4.196      5.832
REMARK  Name = 
REMARK  4 active torsions:
REMARK  status: ('A' for Active; 'I' for Inactive)
REMARK    1  A    between atoms: C_2  and  O_3
REMARK    2  A    between atoms: C_2  and  C_4
REMARK    3  A    between atoms: C_8  and  N_9
REMARK    4  A    between atoms: N_10  and  N_11
REMARK                            x       y       z     vdW  Elec       q    Type
REMARK                         _______ _______ _______ _____ _____    ______ ____
ROOT
ATOM      1  C   UNL     1       5.582   5.196  17.131  0.00  0.00    +0.000 A 
ATOM      2  C   UNL     1       4.934   3.957  17.063  0.00  0.00    +0.000 A 
ATOM      3  C   UNL     1       3.584   3.867  17.402  0.00  0.00    +0.000 A 
ATOM      4  C   UNL     1       2.893   5.004  17.828  0.00  0.00    +0.000 A 
ATOM      5  C   UNL     1       3.536   6.243  17.946  0.00  0.00    +0.000 A 
ATOM      6  C   UNL     1       4.890   6.326  17.586  0.00  0.00    +0.000 A 
ENDROOT
BRANCH   1   8
ATOM      7  O   UNL     1       7.432   6.319  16.142  0.00  0.00    +0.000 OA
ATOM      8  C   UNL     1       7.008   5.355  16.752  0.00  0.00    +0.000 C 
BRANCH   8   9
ATOM      9  O   UNL     1       7.784   4.304  17.103  0.00  0.00    +0.000 OA
ATOM     10  H   UNL     1       8.334   4.442  17.895  0.00  0.00    +0.000 HD
ENDBRANCH   8   9
ENDBRANCH   1   8
BRANCH   5  11
ATOM     11  N   UNL     1       2.767   7.361  18.332  0.00  0.00    +0.000 NA
ATOM     12  N   UNL     1       2.269   7.219  19.464  0.00  0.00    +0.000 NA
BRANCH  12  13
ATOM     13  N   UNL     1       1.688   8.357  19.946  0.00  0.00    +0.000 N 
ATOM     14  C   UNL     1       1.078   9.362  19.075  0.00  0.00    +0.000 C 
ATOM     15  C   UNL     1       0.982  10.704  19.815  0.00  0.00    +0.000 C 
ATOM     16  O   UNL     1       0.323  10.568  21.086  0.00  0.00    +0.000 OA
ATOM     17  C   UNL     1       1.023   9.629  21.922  0.00  0.00    +0.000 C 
ATOM     18  C   UNL     1       1.075   8.248  21.265  0.00  0.00    +0.000 C 
ENDBRANCH  12  13
ENDBRANCH   5  11
TORSDOF 4
ENDMDL
MODEL 9
REMARK VINA RESULT:      -6.1      2.567      3.453
REMARK  Name = 
REMARK  4 active torsions:
REMARK  status: ('A' for Active; 'I' for Inactive)
REMARK    1  A    between atoms: C_2  and  O_3
REMARK    2  A    between atoms: C_2  and  C_4
REMARK    3  A    between atoms: C_8  and  N_9
REMARK    4  A    between atoms: N_10  and  N_11
REMARK                            x       y       z     vdW  Elec       q    Type
REMARK                         _______ _______ _______ _____ _____    ______ ____
ROOT
ATOM      1  C   UNL     1       6.564   5.215  15.406  0.00  0.00    +0.000 A 
ATOM      2  C   UNL     1       7.412   6.111  16.067  0.00  0.00    +0.000 A 
ATOM      3  C   UNL     1       7.076   6.563  17.343  0.00  0.00    +0.000 A 
ATOM      4  C   UNL     1       5.889   6.138  17.944  0.00  0.00    +0.000 A 
ATOM      5  C   UNL     1       5.006   5.276  17.280  0.00  0.00    +0.000 A 
ATOM      6  C   UNL     1       5.362   4.815  16.003  0.00  0.00    +0.000 A 
ENDROOT
BRANCH   1   8
ATOM      7  O   UNL     1       7.574   5.278  13.252  0.00  0.00    +0.000 OA
ATOM      8  C   UNL     1       6.889   4.679  14.060  0.00  0.00    +0.000 C 
BRANCH   8   9
ATOM      9  O   UNL     1       6.310   3.485  13.796  0.00  0.00    +0.000 OA
ATOM     10  H   UNL     1       6.614   3.050  12.979  0.00  0.00    +0.000 HD
ENDBRANCH   8   9
ENDBRANCH   1   8
BRANCH   5  11
ATOM     11  N   UNL     1       3.850   4.845  17.965  0.00  0.00    +0.000 NA
ATOM     12  N   UNL     1       4.087   3.888  18.726  0.00  0.00    +0.000 NA
BRANCH  12  13
ATOM     13  N   UNL     1       3.040   3.579  19.547  0.00  0.00    +0.000 N 
ATOM     14  C   UNL     1       1.646   3.633  19.105  0.00  0.00    +0.000 C 
ATOM     15  C   UNL     1       0.717   3.741  20.322  0.00  0.00    +0.000 C 
ATOM     16  O   UNL     1       0.974   2.704  21.284  0.00  0.00    +0.000 OA
ATOM     17  C   UNL     1       2.338   2.762  21.739  0.00  0.00    +0.000 C 
ATOM     18  C   UNL     1       3.310   2.577  20.572  0.00  0.00    +0.000 C 
ENDBRANCH  12  13
ENDBRANCH   5  11
TORSDOF 4
ENDMDL
