MODEL 1
REMARK VINA RESULT:      -8.3      0.000      0.000
REMARK  Name = 
REMARK  12 active torsions:
REMARK  status: ('A' for Active; 'I' for Inactive)
REMARK    1  A    between atoms: C_1  and  O_2
REMARK    2  A    between atoms: O_2  and  C_3
REMARK    3  A    between atoms: C_5  and  C_6
REMARK    4  A    between atoms: C_8  and  C_9
REMARK    5  A    between atoms: C_11  and  O_12
REMARK    6  A    between atoms: O_12  and  C_13
REMARK    7  A    between atoms: C_20  and  C_21
REMARK    8  A    between atoms: C_22  and  C_23
REMARK    9  A    between atoms: C_25  and  O_26
REMARK   10  A    between atoms: O_26  and  C_27
REMARK   11  A    between atoms: C_28  and  O_29
REMARK   12  A    between atoms: O_29  and  C_30
REMARK                            x       y       z     vdW  Elec       q    Type
REMARK                         _______ _______ _______ _____ _____    ______ ____
ROOT
ATOM      1  C   UNL     1       1.996   7.126  18.478  0.00  0.00    +0.000 C 
ATOM      2  O   UNL     1       1.912   8.499  18.048  0.00  0.00    +0.000 OA
ATOM      3  C   UNL     1       1.524   9.310  19.164  0.00  0.00    +0.000 C 
ATOM      4  C   UNL     1       1.248   8.372  20.347  0.00  0.00    +0.000 C 
ATOM      5  C   UNL     1       1.572   8.994  21.701  0.00  0.00    +0.000 C 
ATOM      6  C   UNL     1       2.095   7.156  20.007  0.00  0.00    +0.000 C 
ATOM      7  C   UNL     1       1.592   5.879  20.671  0.00  0.00    +0.000 C 
ENDROOT
BRANCH   3   8
ATOM      8  C   UNL     1       0.285  10.110  18.830  0.00  0.00    +0.000 A 
ATOM      9  C   UNL     1      -0.612   9.683  17.821  0.00  0.00    +0.000 A 
ATOM     10  C   UNL     1      -1.860  10.291  17.643  0.00  0.00    +0.000 A 
ATOM     11  C   UNL     1      -2.212  11.280  18.540  0.00  0.00    +0.000 A 
ATOM     12  C   UNL     1      -1.319  11.730  19.492  0.00  0.00    +0.000 A 
ATOM     13  C   UNL     1      -0.057  11.201  19.638  0.00  0.00    +0.000 A 
ATOM     14  O   UNL     1      -1.863  12.669  20.316  0.00  0.00    +0.000 OA
ATOM     15  C   UNL     1      -3.249  12.508  19.971  0.00  0.00    +0.000 C 
ATOM     16  O   UNL     1      -3.430  11.878  18.687  0.00  0.00    +0.000 OA
BRANCH  10  17
ATOM     17  O   UNL     1      -2.640   9.771  16.653  0.00  0.00    +0.000 OA
ATOM     18  C   UNL     1      -2.768  10.589  15.495  0.00  0.00    +0.000 C 
ENDBRANCH  10  17
ENDBRANCH   3   8
BRANCH   1  21
ATOM     19  C   UNL     1       5.456   6.516  16.949  0.00  0.00    +0.000 A 
ATOM     20  C   UNL     1       4.292   7.165  17.395  0.00  0.00    +0.000 A 
ATOM     21  C   UNL     1       3.183   6.446  17.842  0.00  0.00    +0.000 A 
ATOM     22  C   UNL     1       3.227   5.054  17.757  0.00  0.00    +0.000 A 
ATOM     23  C   UNL     1       4.345   4.379  17.244  0.00  0.00    +0.000 A 
ATOM     24  C   UNL     1       5.482   5.109  16.828  0.00  0.00    +0.000 A 
BRANCH  19  26
ATOM     25  C   UNL     1       7.543   7.430  17.614  0.00  0.00    +0.000 C 
ATOM     26  O   UNL     1       6.557   7.256  16.596  0.00  0.00    +0.000 OA
ENDBRANCH  19  26
BRANCH  23  27
ATOM     27  O   UNL     1       4.143   3.022  17.259  0.00  0.00    +0.000 OA
ATOM     28  C   UNL     1       2.925   2.499  17.766  0.00  0.00    +0.000 C 
ENDBRANCH  23  27
BRANCH  24  29
ATOM     29  O   UNL     1       6.518   4.366  16.329  0.00  0.00    +0.000 OA
ATOM     30  C   UNL     1       6.639   4.129  14.938  0.00  0.00    +0.000 C 
ENDBRANCH  24  29
ENDBRANCH   1  21
TORSDOF 6
ENDMDL
MODEL 2
REMARK VINA RESULT:      -8.1      0.214      2.339
REMARK  Name = 
REMARK  12 active torsions:
REMARK  status: ('A' for Active; 'I' for Inactive)
REMARK    1  A    between atoms: C_1  and  O_2
REMARK    2  A    between atoms: O_2  and  C_3
REMARK    3  A    between atoms: C_5  and  C_6
REMARK    4  A    between atoms: C_8  and  C_9
REMARK    5  A    between atoms: C_11  and  O_12
REMARK    6  A    between atoms: O_12  and  C_13
REMARK    7  A    between atoms: C_20  and  C_21
REMARK    8  A    between atoms: C_22  and  C_23
REMARK    9  A    between atoms: C_25  and  O_26
REMARK   10  A    between atoms: O_26  and  C_27
REMARK   11  A    between atoms: C_28  and  O_29
REMARK   12  A    between atoms: O_29  and  C_30
REMARK                            x       y       z     vdW  Elec       q    Type
REMARK                         _______ _______ _______ _____ _____    ______ ____
ROOT
ATOM      1  C   UNL     1       2.043   7.009  18.649  0.00  0.00    +0.000 C 
ATOM      2  O   UNL     1       2.004   8.383  18.213  0.00  0.00    +0.000 OA
ATOM      3  C   UNL     1       1.572   9.202  19.307  0.00  0.00    +0.000 C 
ATOM      4  C   UNL     1       1.221   8.272  20.475  0.00  0.00    +0.000 C 
ATOM      5  C   UNL     1       1.483   8.892  21.843  0.00  0.00    +0.000 C 
ATOM      6  C   UNL     1       2.064   7.041  20.181  0.00  0.00    +0.000 C 
ATOM      7  C   UNL     1       1.506   5.774  20.820  0.00  0.00    +0.000 C 
ENDROOT
BRANCH   3   8
ATOM      8  C   UNL     1       0.365  10.021  18.907  0.00  0.00    +0.000 A 
ATOM      9  C   UNL     1      -0.496   9.597  17.867  0.00  0.00    +0.000 A 
ATOM     10  C   UNL     1      -1.723  10.226  17.625  0.00  0.00    +0.000 A 
ATOM     11  C   UNL     1      -2.093  11.234  18.492  0.00  0.00    +0.000 A 
ATOM     12  C   UNL     1      -1.234  11.681  19.477  0.00  0.00    +0.000 A 
ATOM     13  C   UNL     1       0.009  11.130  19.685  0.00  0.00    +0.000 A 
ATOM     14  O   UNL     1      -1.795  12.642  20.263  0.00  0.00    +0.000 OA
ATOM     15  C   UNL     1      -3.167  12.503  19.860  0.00  0.00    +0.000 C 
ATOM     16  O   UNL     1      -3.305  11.859  18.578  0.00  0.00    +0.000 OA
BRANCH  10  17
ATOM     17  O   UNL     1      -2.469   9.707  16.609  0.00  0.00    +0.000 OA
ATOM     18  C   UNL     1      -2.671  10.580  15.503  0.00  0.00    +0.000 C 
ENDBRANCH  10  17
ENDBRANCH   3   8
BRANCH   1  21
ATOM     19  C   UNL     1       4.354   4.296  17.243  0.00  0.00    +0.000 A 
ATOM     20  C   UNL     1       3.295   4.924  17.919  0.00  0.00    +0.000 A 
ATOM     21  C   UNL     1       3.251   6.309  18.076  0.00  0.00    +0.000 A 
ATOM     22  C   UNL     1       4.334   7.055  17.613  0.00  0.00    +0.000 A 
ATOM     23  C   UNL     1       5.443   6.450  17.002  0.00  0.00    +0.000 A 
ATOM     24  C   UNL     1       5.467   5.050  16.810  0.00  0.00    +0.000 A 
BRANCH  19  26
ATOM     25  C   UNL     1       3.401   2.206  17.843  0.00  0.00    +0.000 C 
ATOM     26  O   UNL     1       4.322   2.939  17.034  0.00  0.00    +0.000 OA
ENDBRANCH  19  26
BRANCH  23  27
ATOM     27  O   UNL     1       6.374   7.391  16.643  0.00  0.00    +0.000 OA
ATOM     28  C   UNL     1       7.466   7.665  17.506  0.00  0.00    +0.000 C 
ENDBRANCH  23  27
BRANCH  24  29
ATOM     29  O   UNL     1       6.595   4.547  16.219  0.00  0.00    +0.000 OA
ATOM     30  C   UNL     1       6.677   4.403  14.813  0.00  0.00    +0.000 C 
ENDBRANCH  24  29
ENDBRANCH   1  21
TORSDOF 6
ENDMDL
MODEL 3
REMARK VINA RESULT:      -7.8      0.562      2.045
REMARK  Name = 
REMARK  12 active torsions:
REMARK  status: ('A' for Active; 'I' for Inactive)
REMARK    1  A    between atoms: C_1  and  O_2
REMARK    2  A    between atoms: O_2  and  C_3
REMARK    3  A    between atoms: C_5  and  C_6
REMARK    4  A    between atoms: C_8  and  C_9
REMARK    5  A    between atoms: C_11  and  O_12
REMARK    6  A    between atoms: O_12  and  C_13
REMARK    7  A    between atoms: C_20  and  C_21
REMARK    8  A    between atoms: C_22  and  C_23
REMARK    9  A    between atoms: C_25  and  O_26
REMARK   10  A    between atoms: O_26  and  C_27
REMARK   11  A    between atoms: C_28  and  O_29
REMARK   12  A    between atoms: O_29  and  C_30
REMARK                            x       y       z     vdW  Elec       q    Type
REMARK                         _______ _______ _______ _____ _____    ______ ____
ROOT
ATOM      1  C   UNL     1       2.104   7.034  18.414  0.00  0.00    +0.000 C 
ATOM      2  O   UNL     1       1.867   8.374  17.940  0.00  0.00    +0.000 OA
ATOM      3  C   UNL     1       1.417   9.180  19.037  0.00  0.00    +0.000 C 
ATOM      4  C   UNL     1       1.266   8.261  20.256  0.00  0.00    +0.000 C 
ATOM      5  C   UNL     1       1.548   8.961  21.581  0.00  0.00    +0.000 C 
ATOM      6  C   UNL     1       2.230   7.129  19.938  0.00  0.00    +0.000 C 
ATOM      7  C   UNL     1       1.878   5.831  20.656  0.00  0.00    +0.000 C 
ENDROOT
BRANCH   3   8
ATOM      8  C   UNL     1       0.094   9.832  18.705  0.00  0.00    +0.000 A 
ATOM      9  C   UNL     1      -0.278  11.070  19.281  0.00  0.00    +0.000 A 
ATOM     10  C   UNL     1      -1.393  11.786  18.830  0.00  0.00    +0.000 A 
ATOM     11  C   UNL     1      -2.076  11.268  17.748  0.00  0.00    +0.000 A 
ATOM     12  C   UNL     1      -1.745  10.037  17.217  0.00  0.00    +0.000 A 
ATOM     13  C   UNL     1      -0.701   9.279  17.693  0.00  0.00    +0.000 A 
ATOM     14  O   UNL     1      -2.495   9.720  16.124  0.00  0.00    +0.000 OA
ATOM     15  C   UNL     1      -3.084  11.005  15.864  0.00  0.00    +0.000 C 
ATOM     16  O   UNL     1      -3.063  11.868  17.019  0.00  0.00    +0.000 OA
BRANCH  10  17
ATOM     17  O   UNL     1      -1.629  12.976  19.452  0.00  0.00    +0.000 OA
ATOM     18  C   UNL     1      -2.602  12.930  20.490  0.00  0.00    +0.000 C 
ENDBRANCH  10  17
ENDBRANCH   3   8
BRANCH   1  21
ATOM     19  C   UNL     1       5.640   6.704  16.976  0.00  0.00    +0.000 A 
ATOM     20  C   UNL     1       4.432   7.263  17.426  0.00  0.00    +0.000 A 
ATOM     21  C   UNL     1       3.344   6.461  17.773  0.00  0.00    +0.000 A 
ATOM     22  C   UNL     1       3.459   5.084  17.584  0.00  0.00    +0.000 A 
ATOM     23  C   UNL     1       4.625   4.503  17.063  0.00  0.00    +0.000 A 
ATOM     24  C   UNL     1       5.739   5.313  16.748  0.00  0.00    +0.000 A 
BRANCH  19  26
ATOM     25  C   UNL     1       7.664   7.646  17.784  0.00  0.00    +0.000 C 
ATOM     26  O   UNL     1       6.717   7.519  16.724  0.00  0.00    +0.000 OA
ENDBRANCH  19  26
BRANCH  23  27
ATOM     27  O   UNL     1       4.487   3.141  16.966  0.00  0.00    +0.000 OA
ATOM     28  C   UNL     1       3.654   2.452  17.884  0.00  0.00    +0.000 C 
ENDBRANCH  23  27
BRANCH  24  29
ATOM     29  O   UNL     1       6.827   4.660  16.233  0.00  0.00    +0.000 OA
ATOM     30  C   UNL     1       7.028   4.576  14.835  0.00  0.00    +0.000 C 
ENDBRANCH  24  29
ENDBRANCH   1  21
TORSDOF 6
ENDMDL
MODEL 4
REMARK VINA RESULT:      -7.7      2.164      4.103
REMARK  Name = 
REMARK  12 active torsions:
REMARK  status: ('A' for Active; 'I' for Inactive)
REMARK    1  A    between atoms: C_1  and  O_2
REMARK    2  A    between atoms: O_2  and  C_3
REMARK    3  A    between atoms: C_5  and  C_6
REMARK    4  A    between atoms: C_8  and  C_9
REMARK    5  A    between atoms: C_11  and  O_12
REMARK    6  A    between atoms: O_12  and  C_13
REMARK    7  A    between atoms: C_20  and  C_21
REMARK    8  A    between atoms: C_22  and  C_23
REMARK    9  A    between atoms: C_25  and  O_26
REMARK   10  A    between atoms: O_26  and  C_27
REMARK   11  A    between atoms: C_28  and  O_29
REMARK   12  A    between atoms: O_29  and  C_30
REMARK                            x       y       z     vdW  Elec       q    Type
REMARK                         _______ _______ _______ _____ _____    ______ ____
ROOT
ATOM      1  C   UNL     1       3.326   5.662  17.492  0.00  0.00    +0.000 C 
ATOM      2  O   UNL     1       3.419   6.902  18.222  0.00  0.00    +0.000 OA
ATOM      3  C   UNL     1       2.831   6.721  19.517  0.00  0.00    +0.000 C 
ATOM      4  C   UNL     1       2.241   5.305  19.566  0.00  0.00    +0.000 C 
ATOM      5  C   UNL     1       2.280   4.681  20.956  0.00  0.00    +0.000 C 
ATOM      6  C   UNL     1       3.074   4.565  18.532  0.00  0.00    +0.000 C 
ATOM      7  C   UNL     1       2.363   3.343  17.961  0.00  0.00    +0.000 C 
ENDROOT
BRANCH   3   8
ATOM      8  C   UNL     1       1.748   7.749  19.752  0.00  0.00    +0.000 A 
ATOM      9  C   UNL     1       1.000   7.763  20.954  0.00  0.00    +0.000 A 
ATOM     10  C   UNL     1       0.146   8.824  21.276  0.00  0.00    +0.000 A 
ATOM     11  C   UNL     1       0.119   9.895  20.406  0.00  0.00    +0.000 A 
ATOM     12  C   UNL     1       0.809   9.861  19.210  0.00  0.00    +0.000 A 
ATOM     13  C   UNL     1       1.595   8.796  18.835  0.00  0.00    +0.000 A 
ATOM     14  O   UNL     1       0.703  11.027  18.512  0.00  0.00    +0.000 OA
ATOM     15  C   UNL     1       0.150  11.866  19.540  0.00  0.00    +0.000 C 
ATOM     16  O   UNL     1      -0.478  11.108  20.594  0.00  0.00    +0.000 OA
BRANCH  10  17
ATOM     17  O   UNL     1      -0.498   8.727  22.474  0.00  0.00    +0.000 OA
ATOM     18  C   UNL     1      -0.028   9.615  23.483  0.00  0.00    +0.000 C 
ENDBRANCH  10  17
ENDBRANCH   3   8
BRANCH   1  21
ATOM     19  C   UNL     1       5.784   4.331  14.871  0.00  0.00    +0.000 A 
ATOM     20  C   UNL     1       4.661   4.444  15.708  0.00  0.00    +0.000 A 
ATOM     21  C   UNL     1       4.588   5.421  16.701  0.00  0.00    +0.000 A 
ATOM     22  C   UNL     1       5.702   6.238  16.899  0.00  0.00    +0.000 A 
ATOM     23  C   UNL     1       6.867   6.099  16.131  0.00  0.00    +0.000 A 
ATOM     24  C   UNL     1       6.924   5.134  15.100  0.00  0.00    +0.000 A 
BRANCH  19  26
ATOM     25  C   UNL     1       5.055   3.781  12.681  0.00  0.00    +0.000 C 
ATOM     26  O   UNL     1       5.786   3.413  13.851  0.00  0.00    +0.000 OA
ENDBRANCH  19  26
BRANCH  23  27
ATOM     27  O   UNL     1       7.818   7.010  16.520  0.00  0.00    +0.000 OA
ATOM     28  C   UNL     1       7.499   7.980  17.505  0.00  0.00    +0.000 C 
ENDBRANCH  23  27
BRANCH  24  29
ATOM     29  O   UNL     1       8.107   5.061  14.414  0.00  0.00    +0.000 OA
ATOM     30  C   UNL     1       8.221   5.590  13.105  0.00  0.00    +0.000 C 
ENDBRANCH  24  29
ENDBRANCH   1  21
TORSDOF 6
ENDMDL
MODEL 5
REMARK VINA RESULT:      -7.5      0.904      3.125
REMARK  Name = 
REMARK  12 active torsions:
REMARK  status: ('A' for Active; 'I' for Inactive)
REMARK    1  A    between atoms: C_1  and  O_2
REMARK    2  A    between atoms: O_2  and  C_3
REMARK    3  A    between atoms: C_5  and  C_6
REMARK    4  A    between atoms: C_8  and  C_9
REMARK    5  A    between atoms: C_11  and  O_12
REMARK    6  A    between atoms: O_12  and  C_13
REMARK    7  A    between atoms: C_20  and  C_21
REMARK    8  A    between atoms: C_22  and  C_23
REMARK    9  A    between atoms: C_25  and  O_26
REMARK   10  A    between atoms: O_26  and  C_27
REMARK   11  A    between atoms: C_28  and  O_29
REMARK   12  A    between atoms: O_29  and  C_30
REMARK                            x       y       z     vdW  Elec       q    Type
REMARK                         _______ _______ _______ _____ _____    ______ ____
ROOT
ATOM      1  C   UNL     1       2.053   6.970  18.583  0.00  0.00    +0.000 C 
ATOM      2  O   UNL     1       1.975   8.316  18.072  0.00  0.00    +0.000 OA
ATOM      3  C   UNL     1       1.533   9.183  19.124  0.00  0.00    +0.000 C 
ATOM      4  C   UNL     1       1.217   8.310  20.345  0.00  0.00    +0.000 C 
ATOM      5  C   UNL     1       1.477   9.011  21.674  0.00  0.00    +0.000 C 
ATOM      6  C   UNL     1       2.088   7.087  20.110  0.00  0.00    +0.000 C 
ATOM      7  C   UNL     1       1.570   5.843  20.823  0.00  0.00    +0.000 C 
ENDROOT
BRANCH   3   8
ATOM      8  C   UNL     1       0.301   9.948  18.693  0.00  0.00    +0.000 A 
ATOM      9  C   UNL     1       0.216  11.352  18.858  0.00  0.00    +0.000 A 
ATOM     10  C   UNL     1      -0.817  12.098  18.280  0.00  0.00    +0.000 A 
ATOM     11  C   UNL     1      -1.712  11.417  17.479  0.00  0.00    +0.000 A 
ATOM     12  C   UNL     1      -1.659  10.043  17.357  0.00  0.00    +0.000 A 
ATOM     13  C   UNL     1      -0.699   9.278  17.978  0.00  0.00    +0.000 A 
ATOM     14  O   UNL     1      -2.589   9.559  16.486  0.00  0.00    +0.000 OA
ATOM     15  C   UNL     1      -2.989  10.791  15.863  0.00  0.00    +0.000 C 
ATOM     16  O   UNL     1      -2.675  11.945  16.668  0.00  0.00    +0.000 OA
BRANCH  10  17
ATOM     17  O   UNL     1      -0.771  13.444  18.493  0.00  0.00    +0.000 OA
ATOM     18  C   UNL     1       0.453  13.925  19.039  0.00  0.00    +0.000 C 
ENDBRANCH  10  17
ENDBRANCH   3   8
BRANCH   1  21
ATOM     19  C   UNL     1       4.402   4.250  17.251  0.00  0.00    +0.000 A 
ATOM     20  C   UNL     1       3.330   4.882  17.904  0.00  0.00    +0.000 A 
ATOM     21  C   UNL     1       3.273   6.270  18.035  0.00  0.00    +0.000 A 
ATOM     22  C   UNL     1       4.355   7.016  17.569  0.00  0.00    +0.000 A 
ATOM     23  C   UNL     1       5.475   6.409  16.982  0.00  0.00    +0.000 A 
ATOM     24  C   UNL     1       5.513   5.006  16.816  0.00  0.00    +0.000 A 
BRANCH  19  26
ATOM     25  C   UNL     1       3.423   2.170  17.842  0.00  0.00    +0.000 C 
ATOM     26  O   UNL     1       4.383   2.889  17.068  0.00  0.00    +0.000 OA
ENDBRANCH  19  26
BRANCH  23  27
ATOM     27  O   UNL     1       6.402   7.352  16.615  0.00  0.00    +0.000 OA
ATOM     28  C   UNL     1       7.488   7.644  17.481  0.00  0.00    +0.000 C 
ENDBRANCH  23  27
BRANCH  24  29
ATOM     29  O   UNL     1       6.652   4.502  16.246  0.00  0.00    +0.000 OA
ATOM     30  C   UNL     1       6.776   4.399  14.840  0.00  0.00    +0.000 C 
ENDBRANCH  24  29
ENDBRANCH   1  21
TORSDOF 6
ENDMDL
MODEL 6
REMARK VINA RESULT:      -7.5      1.646      8.833
REMARK  Name = 
REMARK  12 active torsions:
REMARK  status: ('A' for Active; 'I' for Inactive)
REMARK    1  A    between atoms: C_1  and  O_2
REMARK    2  A    between atoms: O_2  and  C_3
REMARK    3  A    between atoms: C_5  and  C_6
REMARK    4  A    between atoms: C_8  and  C_9
REMARK    5  A    between atoms: C_11  and  O_12
REMARK    6  A    between atoms: O_12  and  C_13
REMARK    7  A    between atoms: C_20  and  C_21
REMARK    8  A    between atoms: C_22  and  C_23
REMARK    9  A    between atoms: C_25  and  O_26
REMARK   10  A    between atoms: O_26  and  C_27
REMARK   11  A    between atoms: C_28  and  O_29
REMARK   12  A    between atoms: O_29  and  C_30
REMARK                            x       y       z     vdW  Elec       q    Type
REMARK                         _______ _______ _______ _____ _____    ______ ____
ROOT
ATOM      1  C   UNL     1       2.263   7.769  19.498  0.00  0.00    +0.000 C 
ATOM      2  O   UNL     1       2.849   7.822  18.182  0.00  0.00    +0.000 OA
ATOM      3  C   UNL     1       2.948   6.487  17.667  0.00  0.00    +0.000 C 
ATOM      4  C   UNL     1       2.489   5.528  18.772  0.00  0.00    +0.000 C 
ATOM      5  C   UNL     1       1.819   4.266  18.239  0.00  0.00    +0.000 C 
ATOM      6  C   UNL     1       1.575   6.405  19.613  0.00  0.00    +0.000 C 
ATOM      7  C   UNL     1       1.439   5.915  21.050  0.00  0.00    +0.000 C 
ENDROOT
BRANCH   3   8
ATOM      8  C   UNL     1       4.374   6.182  17.267  0.00  0.00    +0.000 A 
ATOM      9  C   UNL     1       5.295   5.640  18.194  0.00  0.00    +0.000 A 
ATOM     10  C   UNL     1       6.547   5.159  17.792  0.00  0.00    +0.000 A 
ATOM     11  C   UNL     1       6.818   5.168  16.438  0.00  0.00    +0.000 A 
ATOM     12  C   UNL     1       5.941   5.741  15.539  0.00  0.00    +0.000 A 
ATOM     13  C   UNL     1       4.738   6.290  15.919  0.00  0.00    +0.000 A 
ATOM     14  O   UNL     1       6.356   5.607  14.247  0.00  0.00    +0.000 OA
ATOM     15  C   UNL     1       7.394   4.632  14.435  0.00  0.00    +0.000 C 
ATOM     16  O   UNL     1       7.872   4.587  15.794  0.00  0.00    +0.000 OA
BRANCH  10  17
ATOM     17  O   UNL     1       7.331   4.639  18.779  0.00  0.00    +0.000 OA
ATOM     18  C   UNL     1       8.016   5.603  19.573  0.00  0.00    +0.000 C 
ENDBRANCH  10  17
ENDBRANCH   3   8
BRANCH   1  21
ATOM     19  C   UNL     1      -0.436  10.409  18.841  0.00  0.00    +0.000 A 
ATOM     20  C   UNL     1       0.572   9.452  18.629  0.00  0.00    +0.000 A 
ATOM     21  C   UNL     1       1.299   8.914  19.691  0.00  0.00    +0.000 A 
ATOM     22  C   UNL     1       1.055   9.412  20.971  0.00  0.00    +0.000 A 
ATOM     23  C   UNL     1       0.110  10.422  21.204  0.00  0.00    +0.000 A 
ATOM     24  C   UNL     1      -0.652  10.938  20.132  0.00  0.00    +0.000 A 
BRANCH  19  26
ATOM     25  C   UNL     1      -2.439  10.197  17.586  0.00  0.00    +0.000 C 
ATOM     26  O   UNL     1      -1.187  10.854  17.781  0.00  0.00    +0.000 OA
ENDBRANCH  19  26
BRANCH  23  27
ATOM     27  O   UNL     1       0.060  10.743  22.538  0.00  0.00    +0.000 OA
ATOM     28  C   UNL     1      -0.240   9.737  23.492  0.00  0.00    +0.000 C 
ENDBRANCH  23  27
BRANCH  24  29
ATOM     29  O   UNL     1      -1.540  11.931  20.453  0.00  0.00    +0.000 OA
ATOM     30  C   UNL     1      -1.146  13.291  20.438  0.00  0.00    +0.000 C 
ENDBRANCH  24  29
ENDBRANCH   1  21
TORSDOF 6
ENDMDL
MODEL 7
REMARK VINA RESULT:      -7.5      1.456      8.871
REMARK  Name = 
REMARK  12 active torsions:
REMARK  status: ('A' for Active; 'I' for Inactive)
REMARK    1  A    between atoms: C_1  and  O_2
REMARK    2  A    between atoms: O_2  and  C_3
REMARK    3  A    between atoms: C_5  and  C_6
REMARK    4  A    between atoms: C_8  and  C_9
REMARK    5  A    between atoms: C_11  and  O_12
REMARK    6  A    between atoms: O_12  and  C_13
REMARK    7  A    between atoms: C_20  and  C_21
REMARK    8  A    between atoms: C_22  and  C_23
REMARK    9  A    between atoms: C_25  and  O_26
REMARK   10  A    between atoms: O_26  and  C_27
REMARK   11  A    between atoms: C_28  and  O_29
REMARK   12  A    between atoms: O_29  and  C_30
REMARK                            x       y       z     vdW  Elec       q    Type
REMARK                         _______ _______ _______ _____ _____    ______ ____
ROOT
ATOM      1  C   UNL     1       1.793   8.865  19.089  0.00  0.00    +0.000 C 
ATOM      2  O   UNL     1       2.225   8.135  17.923  0.00  0.00    +0.000 OA
ATOM      3  C   UNL     1       2.582   6.804  18.318  0.00  0.00    +0.000 C 
ATOM      4  C   UNL     1       2.461   6.724  19.845  0.00  0.00    +0.000 C 
ATOM      5  C   UNL     1       2.053   5.344  20.349  0.00  0.00    +0.000 C 
ATOM      6  C   UNL     1       1.452   7.818  20.154  0.00  0.00    +0.000 C 
ATOM      7  C   UNL     1       1.567   8.346  21.579  0.00  0.00    +0.000 C 
ENDROOT
BRANCH   3   8
ATOM      8  C   UNL     1       3.996   6.486  17.886  0.00  0.00    +0.000 A 
ATOM      9  C   UNL     1       4.924   5.910  18.785  0.00  0.00    +0.000 A 
ATOM     10  C   UNL     1       6.161   5.419  18.351  0.00  0.00    +0.000 A 
ATOM     11  C   UNL     1       6.410   5.455  16.993  0.00  0.00    +0.000 A 
ATOM     12  C   UNL     1       5.527   6.061  16.122  0.00  0.00    +0.000 A 
ATOM     13  C   UNL     1       4.339   6.619  16.535  0.00  0.00    +0.000 A 
ATOM     14  O   UNL     1       5.917   5.950  14.821  0.00  0.00    +0.000 OA
ATOM     15  C   UNL     1       6.944   4.956  14.969  0.00  0.00    +0.000 C 
ATOM     16  O   UNL     1       7.444   4.873  16.319  0.00  0.00    +0.000 OA
BRANCH  10  17
ATOM     17  O   UNL     1       6.954   4.867  19.313  0.00  0.00    +0.000 OA
ATOM     18  C   UNL     1       8.048   5.676  19.729  0.00  0.00    +0.000 C 
ENDBRANCH  10  17
ENDBRANCH   3   8
BRANCH   1  21
ATOM     19  C   UNL     1      -1.528  10.103  17.633  0.00  0.00    +0.000 A 
ATOM     20  C   UNL     1      -0.355   9.354  17.826  0.00  0.00    +0.000 A 
ATOM     21  C   UNL     1       0.614   9.743  18.752  0.00  0.00    +0.000 A 
ATOM     22  C   UNL     1       0.425  10.948  19.429  0.00  0.00    +0.000 A 
ATOM     23  C   UNL     1      -0.698  11.757  19.202  0.00  0.00    +0.000 A 
ATOM     24  C   UNL     1      -1.696  11.341  18.292  0.00  0.00    +0.000 A 
BRANCH  19  26
ATOM     25  C   UNL     1      -2.593  10.325  15.523  0.00  0.00    +0.000 C 
ATOM     26  O   UNL     1      -2.497   9.645  16.775  0.00  0.00    +0.000 OA
ENDBRANCH  19  26
BRANCH  23  27
ATOM     27  O   UNL     1      -0.650  12.886  19.980  0.00  0.00    +0.000 OA
ATOM     28  C   UNL     1       0.607  13.435  20.344  0.00  0.00    +0.000 C 
ENDBRANCH  23  27
BRANCH  24  29
ATOM     29  O   UNL     1      -2.749  12.201  18.125  0.00  0.00    +0.000 OA
ATOM     30  C   UNL     1      -3.960  12.015  18.835  0.00  0.00    +0.000 C 
ENDBRANCH  24  29
ENDBRANCH   1  21
TORSDOF 6
ENDMDL
MODEL 8
REMARK VINA RESULT:      -7.5      1.747      8.790
REMARK  Name = 
REMARK  12 active torsions:
REMARK  status: ('A' for Active; 'I' for Inactive)
REMARK    1  A    between atoms: C_1  and  O_2
REMARK    2  A    between atoms: O_2  and  C_3
REMARK    3  A    between atoms: C_5  and  C_6
REMARK    4  A    between atoms: C_8  and  C_9
REMARK    5  A    between atoms: C_11  and  O_12
REMARK    6  A    between atoms: O_12  and  C_13
REMARK    7  A    between atoms: C_20  and  C_21
REMARK    8  A    between atoms: C_22  and  C_23
REMARK    9  A    between atoms: C_25  and  O_26
REMARK   10  A    between atoms: O_26  and  C_27
REMARK   11  A    between atoms: C_28  and  O_29
REMARK   12  A    between atoms: O_29  and  C_30
REMARK                            x       y       z     vdW  Elec       q    Type
REMARK                         _______ _______ _______ _____ _____    ______ ____
ROOT
ATOM      1  C   UNL     1       2.353   7.433  19.600  0.00  0.00    +0.000 C 
ATOM      2  O   UNL     1       2.926   7.634  18.293  0.00  0.00    +0.000 OA
ATOM      3  C   UNL     1       3.008   6.367  17.626  0.00  0.00    +0.000 C 
ATOM      4  C   UNL     1       2.551   5.289  18.617  0.00  0.00    +0.000 C 
ATOM      5  C   UNL     1       1.863   4.104  17.947  0.00  0.00    +0.000 C 
ATOM      6  C   UNL     1       1.653   6.071  19.563  0.00  0.00    +0.000 C 
ATOM      7  C   UNL     1       1.526   5.418  20.935  0.00  0.00    +0.000 C 
ENDROOT
BRANCH   3   8
ATOM      8  C   UNL     1       4.427   6.099  17.177  0.00  0.00    +0.000 A 
ATOM      9  C   UNL     1       5.401   5.611  18.081  0.00  0.00    +0.000 A 
ATOM     10  C   UNL     1       6.652   5.161  17.642  0.00  0.00    +0.000 A 
ATOM     11  C   UNL     1       6.870   5.144  16.279  0.00  0.00    +0.000 A 
ATOM     12  C   UNL     1       5.941   5.665  15.400  0.00  0.00    +0.000 A 
ATOM     13  C   UNL     1       4.736   6.184  15.814  0.00  0.00    +0.000 A 
ATOM     14  O   UNL     1       6.310   5.512  14.097  0.00  0.00    +0.000 OA
ATOM     15  C   UNL     1       7.388   4.577  14.268  0.00  0.00    +0.000 C 
ATOM     16  O   UNL     1       7.918   4.582  15.608  0.00  0.00    +0.000 OA
BRANCH  10  17
ATOM     17  O   UNL     1       7.490   4.693  18.609  0.00  0.00    +0.000 OA
ATOM     18  C   UNL     1       7.833   5.639  19.617  0.00  0.00    +0.000 C 
ENDBRANCH  10  17
ENDBRANCH   3   8
BRANCH   1  21
ATOM     19  C   UNL     1       0.441  10.132  21.534  0.00  0.00    +0.000 A 
ATOM     20  C   UNL     1       1.205   8.989  21.247  0.00  0.00    +0.000 A 
ATOM     21  C   UNL     1       1.402   8.555  19.935  0.00  0.00    +0.000 A 
ATOM     22  C   UNL     1       0.749   9.244  18.913  0.00  0.00    +0.000 A 
ATOM     23  C   UNL     1      -0.083  10.343  19.175  0.00  0.00    +0.000 A 
ATOM     24  C   UNL     1      -0.250  10.803  20.501  0.00  0.00    +0.000 A 
BRANCH  19  26
ATOM     25  C   UNL     1      -0.127   9.619  23.781  0.00  0.00    +0.000 C 
ATOM     26  O   UNL     1       0.338  10.577  22.830  0.00  0.00    +0.000 OA
ENDBRANCH  19  26
BRANCH  23  27
ATOM     27  O   UNL     1      -0.612  10.841  18.011  0.00  0.00    +0.000 OA
ATOM     28  C   UNL     1      -1.913  10.447  17.605  0.00  0.00    +0.000 C 
ENDBRANCH  23  27
BRANCH  24  29
ATOM     29  O   UNL     1      -1.091  11.872  20.661  0.00  0.00    +0.000 OA
ATOM     30  C   UNL     1      -0.597  13.198  20.621  0.00  0.00    +0.000 C 
ENDBRANCH  24  29
ENDBRANCH   1  21
TORSDOF 6
ENDMDL
MODEL 9
REMARK VINA RESULT:      -7.3      1.458      8.616
REMARK  Name = 
REMARK  12 active torsions:
REMARK  status: ('A' for Active; 'I' for Inactive)
REMARK    1  A    between atoms: C_1  and  O_2
REMARK    2  A    between atoms: O_2  and  C_3
REMARK    3  A    between atoms: C_5  and  C_6
REMARK    4  A    between atoms: C_8  and  C_9
REMARK    5  A    between atoms: C_11  and  O_12
REMARK    6  A    between atoms: O_12  and  C_13
REMARK    7  A    between atoms: C_20  and  C_21
REMARK    8  A    between atoms: C_22  and  C_23
REMARK    9  A    between atoms: C_25  and  O_26
REMARK   10  A    between atoms: O_26  and  C_27
REMARK   11  A    between atoms: C_28  and  O_29
REMARK   12  A    between atoms: O_29  and  C_30
REMARK                            x       y       z     vdW  Elec       q    Type
REMARK                         _______ _______ _______ _____ _____    ______ ____
ROOT
ATOM      1  C   UNL     1       1.694   8.724  19.317  0.00  0.00    +0.000 C 
ATOM      2  O   UNL     1       2.074   7.882  18.210  0.00  0.00    +0.000 OA
ATOM      3  C   UNL     1       2.334   6.561  18.703  0.00  0.00    +0.000 C 
ATOM      4  C   UNL     1       2.207   6.602  20.231  0.00  0.00    +0.000 C 
ATOM      5  C   UNL     1       1.701   5.296  20.832  0.00  0.00    +0.000 C 
ATOM      6  C   UNL     1       1.278   7.785  20.454  0.00  0.00    +0.000 C 
ATOM      7  C   UNL     1       1.431   8.407  21.837  0.00  0.00    +0.000 C 
ENDROOT
BRANCH   3   8
ATOM      8  C   UNL     1       3.721   6.113  18.303  0.00  0.00    +0.000 A 
ATOM      9  C   UNL     1       4.190   6.275  16.978  0.00  0.00    +0.000 A 
ATOM     10  C   UNL     1       5.532   6.062  16.641  0.00  0.00    +0.000 A 
ATOM     11  C   UNL     1       6.398   5.756  17.673  0.00  0.00    +0.000 A 
ATOM     12  C   UNL     1       5.933   5.550  18.957  0.00  0.00    +0.000 A 
ATOM     13  C   UNL     1       4.607   5.678  19.297  0.00  0.00    +0.000 A 
ATOM     14  O   UNL     1       6.940   5.310  19.844  0.00  0.00    +0.000 OA
ATOM     15  C   UNL     1       8.062   5.704  19.037  0.00  0.00    +0.000 C 
ATOM     16  O   UNL     1       7.761   5.692  17.627  0.00  0.00    +0.000 OA
BRANCH  10  17
ATOM     17  O   UNL     1       5.860   6.276  15.336  0.00  0.00    +0.000 OA
ATOM     18  C   UNL     1       6.135   5.098  14.584  0.00  0.00    +0.000 C 
ENDBRANCH  10  17
ENDBRANCH   3   8
BRANCH   1  21
ATOM     19  C   UNL     1      -1.535  10.083  17.765  0.00  0.00    +0.000 A 
ATOM     20  C   UNL     1      -0.419   9.268  18.018  0.00  0.00    +0.000 A 
ATOM     21  C   UNL     1       0.581   9.657  18.910  0.00  0.00    +0.000 A 
ATOM     22  C   UNL     1       0.485  10.923  19.488  0.00  0.00    +0.000 A 
ATOM     23  C   UNL     1      -0.577  11.792  19.197  0.00  0.00    +0.000 A 
ATOM     24  C   UNL     1      -1.608  11.380  18.322  0.00  0.00    +0.000 A 
BRANCH  19  26
ATOM     25  C   UNL     1      -2.539  10.149  15.616  0.00  0.00    +0.000 C 
ATOM     26  O   UNL     1      -2.540   9.631  16.946  0.00  0.00    +0.000 OA
ENDBRANCH  19  26
BRANCH  23  27
ATOM     27  O   UNL     1      -0.441  12.973  19.882  0.00  0.00    +0.000 OA
ATOM     28  C   UNL     1      -0.974  13.091  21.191  0.00  0.00    +0.000 C 
ENDBRANCH  23  27
BRANCH  24  29
ATOM     29  O   UNL     1      -2.595  12.299  18.086  0.00  0.00    +0.000 OA
ATOM     30  C   UNL     1      -3.852  12.198  18.731  0.00  0.00    +0.000 C 
ENDBRANCH  24  29
ENDBRANCH   1  21
TORSDOF 6
ENDMDL
