MODEL 1
REMARK VINA RESULT:      -9.5      0.000      0.000
REMARK  Name = 
REMARK  7 active torsions:
REMARK  status: ('A' for Active; 'I' for Inactive)
REMARK    1  A    between atoms: C_1  and  C_2
REMARK    2  A    between atoms: C_2  and  C_3
REMARK    3  A    between atoms: C_2  and  C_4
REMARK    4  A    between atoms: C_2  and  C_5
REMARK    5  A    between atoms: N_7  and  C_8
REMARK    6  A    between atoms: C_13  and  C_14
REMARK    7  A    between atoms: C_17  and  C_18
REMARK                            x       y       z     vdW  Elec       q    Type
REMARK                         _______ _______ _______ _____ _____    ______ ____
ROOT
ATOM      1  C   UNL     1       2.256   6.524  19.868  0.00  0.00    +0.000 A 
ATOM      2  C   UNL     1       2.383   7.149  18.612  0.00  0.00    +0.000 A 
ATOM      3  C   UNL     1       1.912   8.450  18.379  0.00  0.00    +0.000 A 
ATOM      4  C   UNL     1       1.311   9.204  19.398  0.00  0.00    +0.000 A 
ATOM      5  C   UNL     1       1.210   8.584  20.651  0.00  0.00    +0.000 A 
ATOM      6  F   UNL     1       0.658   9.232  21.689  0.00  0.00    +0.000 F 
ATOM      7  C   UNL     1       1.641   7.274  20.878  0.00  0.00    +0.000 A 
ENDROOT
BRANCH   4   8
ATOM      8  C   UNL     1       0.781  10.560  19.140  0.00  0.00    +0.000 A 
ATOM      9  C   UNL     1      -0.476  10.779  18.556  0.00  0.00    +0.000 A 
ATOM     10  N   UNL     1      -1.045  11.974  18.251  0.00  0.00    +0.000 NA
ATOM     11  C   UNL     1      -0.262  13.016  18.574  0.00  0.00    +0.000 A 
ATOM     12  N   UNL     1      -0.587  14.326  18.362  0.00  0.00    +0.000 N 
ATOM     13  C   UNL     1       0.425  15.135  18.816  0.00  0.00    +0.000 A 
ATOM     14  C   UNL     1       1.420  14.323  19.320  0.00  0.00    +0.000 A 
ATOM     15  C   UNL     1       0.993  12.977  19.165  0.00  0.00    +0.000 A 
ATOM     16  C   UNL     1       1.529  11.711  19.453  0.00  0.00    +0.000 A 
ATOM     17  H   UNL     1      -1.450  14.624  17.930  0.00  0.00    +0.000 HD
ENDBRANCH   4   8
BRANCH   1  23
ATOM     18  C   UNL     1       3.735   4.462  19.367  0.00  0.00    +0.000 A 
ATOM     19  N   UNL     1       4.069   3.178  19.627  0.00  0.00    +0.000 NA
ATOM     20  C   UNL     1       3.407   2.490  20.572  0.00  0.00    +0.000 A 
ATOM     21  C   UNL     1       2.388   3.031  21.317  0.00  0.00    +0.000 A 
ATOM     22  C   UNL     1       2.042   4.353  21.063  0.00  0.00    +0.000 A 
ATOM     23  C   UNL     1       2.695   5.117  20.065  0.00  0.00    +0.000 A 
BRANCH  18  26
ATOM     24  C   UNL     1       5.825   5.382  18.402  0.00  0.00    +0.000 C 
ATOM     25  O   UNL     1       6.565   5.107  19.344  0.00  0.00    +0.000 OA
ATOM     26  N   UNL     1       4.463   5.120  18.347  0.00  0.00    +0.000 N 
ATOM     27  H   UNL     1       3.952   5.404  17.528  0.00  0.00    +0.000 HD
BRANCH  24  29
ATOM     28  C   UNL     1       5.213   6.861  16.476  0.00  0.00    +0.000 C 
ATOM     29  C   UNL     1       6.391   6.168  17.193  0.00  0.00    +0.000 C 
ATOM     30  C   UNL     1       7.059   5.200  16.205  0.00  0.00    +0.000 C 
ATOM     31  C   UNL     1       7.394   7.244  17.629  0.00  0.00    +0.000 C 
ENDBRANCH  24  29
ENDBRANCH  18  26
ENDBRANCH   1  23
TORSDOF 4
ENDMDL
MODEL 2
REMARK VINA RESULT:      -9.4      2.175      4.150
REMARK  Name = 
REMARK  7 active torsions:
REMARK  status: ('A' for Active; 'I' for Inactive)
REMARK    1  A    between atoms: C_1  and  C_2
REMARK    2  A    between atoms: C_2  and  C_3
REMARK    3  A    between atoms: C_2  and  C_4
REMARK    4  A    between atoms: C_2  and  C_5
REMARK    5  A    between atoms: N_7  and  C_8
REMARK    6  A    between atoms: C_13  and  C_14
REMARK    7  A    between atoms: C_17  and  C_18
REMARK                            x       y       z     vdW  Elec       q    Type
REMARK                         _______ _______ _______ _____ _____    ______ ____
ROOT
ATOM      1  C   UNL     1       3.078   7.211  18.067  0.00  0.00    +0.000 A 
ATOM      2  C   UNL     1       2.693   8.408  17.432  0.00  0.00    +0.000 A 
ATOM      3  C   UNL     1       1.869   9.352  18.064  0.00  0.00    +0.000 A 
ATOM      4  C   UNL     1       1.407   9.159  19.374  0.00  0.00    +0.000 A 
ATOM      5  C   UNL     1       1.814   7.977  20.008  0.00  0.00    +0.000 A 
ATOM      6  F   UNL     1       1.428   7.711  21.266  0.00  0.00    +0.000 F 
ATOM      7  C   UNL     1       2.602   7.015  19.369  0.00  0.00    +0.000 A 
ENDROOT
BRANCH   4   8
ATOM      8  C   UNL     1       0.507  10.137  20.023  0.00  0.00    +0.000 A 
ATOM      9  C   UNL     1       0.714  10.596  21.332  0.00  0.00    +0.000 A 
ATOM     10  N   UNL     1      -0.060  11.466  22.031  0.00  0.00    +0.000 NA
ATOM     11  C   UNL     1      -1.122  11.893  21.328  0.00  0.00    +0.000 A 
ATOM     12  N   UNL     1      -2.067  12.759  21.799  0.00  0.00    +0.000 N 
ATOM     13  C   UNL     1      -3.006  12.996  20.825  0.00  0.00    +0.000 A 
ATOM     14  C   UNL     1      -2.657  12.256  19.714  0.00  0.00    +0.000 A 
ATOM     15  C   UNL     1      -1.465  11.550  20.027  0.00  0.00    +0.000 A 
ATOM     16  C   UNL     1      -0.626  10.644  19.358  0.00  0.00    +0.000 A 
ATOM     17  H   UNL     1      -2.053  13.150  22.729  0.00  0.00    +0.000 HD
ENDBRANCH   4   8
BRANCH   1  23
ATOM     18  C   UNL     1       3.733   4.791  17.429  0.00  0.00    +0.000 A 
ATOM     19  N   UNL     1       4.517   3.945  16.724  0.00  0.00    +0.000 NA
ATOM     20  C   UNL     1       5.473   4.431  15.916  0.00  0.00    +0.000 A 
ATOM     21  C   UNL     1       5.705   5.774  15.752  0.00  0.00    +0.000 A 
ATOM     22  C   UNL     1       4.900   6.654  16.467  0.00  0.00    +0.000 A 
ATOM     23  C   UNL     1       3.890   6.195  17.347  0.00  0.00    +0.000 A 
BRANCH  18  26
ATOM     24  C   UNL     1       3.039   3.581  19.477  0.00  0.00    +0.000 C 
ATOM     25  O   UNL     1       4.161   3.421  19.951  0.00  0.00    +0.000 OA
ATOM     26  N   UNL     1       2.757   4.210  18.272  0.00  0.00    +0.000 N 
ATOM     27  H   UNL     1       1.798   4.271  17.976  0.00  0.00    +0.000 HD
BRANCH  24  29
ATOM     28  C   UNL     1       0.758   4.079  20.384  0.00  0.00    +0.000 C 
ATOM     29  C   UNL     1       1.813   2.967  20.199  0.00  0.00    +0.000 C 
ATOM     30  C   UNL     1       2.225   2.453  21.586  0.00  0.00    +0.000 C 
ATOM     31  C   UNL     1       1.181   1.830  19.386  0.00  0.00    +0.000 C 
ENDBRANCH  24  29
ENDBRANCH  18  26
ENDBRANCH   1  23
TORSDOF 4
ENDMDL
MODEL 3
REMARK VINA RESULT:      -9.4      2.904      8.948
REMARK  Name = 
REMARK  7 active torsions:
REMARK  status: ('A' for Active; 'I' for Inactive)
REMARK    1  A    between atoms: C_1  and  C_2
REMARK    2  A    between atoms: C_2  and  C_3
REMARK    3  A    between atoms: C_2  and  C_4
REMARK    4  A    between atoms: C_2  and  C_5
REMARK    5  A    between atoms: N_7  and  C_8
REMARK    6  A    between atoms: C_13  and  C_14
REMARK    7  A    between atoms: C_17  and  C_18
REMARK                            x       y       z     vdW  Elec       q    Type
REMARK                         _______ _______ _______ _____ _____    ______ ____
ROOT
ATOM      1  C   UNL     1       1.337  10.469  18.955  0.00  0.00    +0.000 A 
ATOM      2  C   UNL     1       2.003   9.946  17.830  0.00  0.00    +0.000 A 
ATOM      3  C   UNL     1       2.454   8.618  17.784  0.00  0.00    +0.000 A 
ATOM      4  C   UNL     1       2.240   7.736  18.853  0.00  0.00    +0.000 A 
ATOM      5  C   UNL     1       1.555   8.257  19.960  0.00  0.00    +0.000 A 
ATOM      6  F   UNL     1       1.296   7.484  21.026  0.00  0.00    +0.000 F 
ATOM      7  C   UNL     1       1.139   9.590  20.027  0.00  0.00    +0.000 A 
ENDROOT
BRANCH   4   8
ATOM      8  C   UNL     1       2.750   6.348  18.819  0.00  0.00    +0.000 A 
ATOM      9  C   UNL     1       3.980   5.984  19.387  0.00  0.00    +0.000 A 
ATOM     10  N   UNL     1       4.552   4.752  19.389  0.00  0.00    +0.000 NA
ATOM     11  C   UNL     1       3.802   3.833  18.761  0.00  0.00    +0.000 A 
ATOM     12  N   UNL     1       4.151   2.521  18.605  0.00  0.00    +0.000 N 
ATOM     13  C   UNL     1       3.159   1.854  17.930  0.00  0.00    +0.000 A 
ATOM     14  C   UNL     1       2.162   2.762  17.640  0.00  0.00    +0.000 A 
ATOM     15  C   UNL     1       2.565   4.021  18.159  0.00  0.00    +0.000 A 
ATOM     16  C   UNL     1       2.026   5.318  18.189  0.00  0.00    +0.000 A 
ATOM     17  H   UNL     1       5.017   2.130  18.946  0.00  0.00    +0.000 HD
ENDBRANCH   4   8
BRANCH   1  23
ATOM     18  C   UNL     1      -0.236  12.460  18.450  0.00  0.00    +0.000 A 
ATOM     19  N   UNL     1      -0.517  13.778  18.558  0.00  0.00    +0.000 NA
ATOM     20  C   UNL     1       0.328  14.593  19.211  0.00  0.00    +0.000 A 
ATOM     21  C   UNL     1       1.489  14.156  19.798  0.00  0.00    +0.000 A 
ATOM     22  C   UNL     1       1.785  12.801  19.698  0.00  0.00    +0.000 A 
ATOM     23  C   UNL     1       0.938  11.901  19.006  0.00  0.00    +0.000 A 
BRANCH  18  26
ATOM     24  C   UNL     1      -2.477  11.452  18.125  0.00  0.00    +0.000 C 
ATOM     25  O   UNL     1      -2.998  11.900  19.144  0.00  0.00    +0.000 OA
ATOM     26  N   UNL     1      -1.161  11.663  17.735  0.00  0.00    +0.000 N 
ATOM     27  H   UNL     1      -0.838  11.233  16.885  0.00  0.00    +0.000 HD
BRANCH  24  29
ATOM     28  C   UNL     1      -2.353  10.002  16.086  0.00  0.00    +0.000 C 
ATOM     29  C   UNL     1      -3.285  10.493  17.215  0.00  0.00    +0.000 C 
ATOM     30  C   UNL     1      -4.463  11.244  16.579  0.00  0.00    +0.000 C 
ATOM     31  C   UNL     1      -3.798   9.270  17.986  0.00  0.00    +0.000 C 
ENDBRANCH  24  29
ENDBRANCH  18  26
ENDBRANCH   1  23
TORSDOF 4
ENDMDL
MODEL 4
REMARK VINA RESULT:      -9.3      2.313      4.318
REMARK  Name = 
REMARK  7 active torsions:
REMARK  status: ('A' for Active; 'I' for Inactive)
REMARK    1  A    between atoms: C_1  and  C_2
REMARK    2  A    between atoms: C_2  and  C_3
REMARK    3  A    between atoms: C_2  and  C_4
REMARK    4  A    between atoms: C_2  and  C_5
REMARK    5  A    between atoms: N_7  and  C_8
REMARK    6  A    between atoms: C_13  and  C_14
REMARK    7  A    between atoms: C_17  and  C_18
REMARK                            x       y       z     vdW  Elec       q    Type
REMARK                         _______ _______ _______ _____ _____    ______ ____
ROOT
ATOM      1  C   UNL     1       3.327   7.037  17.947  0.00  0.00    +0.000 A 
ATOM      2  C   UNL     1       2.891   8.220  17.320  0.00  0.00    +0.000 A 
ATOM      3  C   UNL     1       1.991   9.101  17.938  0.00  0.00    +0.000 A 
ATOM      4  C   UNL     1       1.499   8.857  19.229  0.00  0.00    +0.000 A 
ATOM      5  C   UNL     1       1.956   7.689  19.857  0.00  0.00    +0.000 A 
ATOM      6  F   UNL     1       1.546   7.378  21.096  0.00  0.00    +0.000 F 
ATOM      7  C   UNL     1       2.822   6.788  19.229  0.00  0.00    +0.000 A 
ENDROOT
BRANCH   4   8
ATOM      8  C   UNL     1       0.521   9.766  19.863  0.00  0.00    +0.000 A 
ATOM      9  C   UNL     1      -0.240  10.686  19.126  0.00  0.00    +0.000 A 
ATOM     10  N   UNL     1      -1.142  11.581  19.607  0.00  0.00    +0.000 NA
ATOM     11  C   UNL     1      -1.266  11.521  20.943  0.00  0.00    +0.000 A 
ATOM     12  N   UNL     1      -2.092  12.320  21.682  0.00  0.00    +0.000 N 
ATOM     13  C   UNL     1      -1.988  11.993  23.011  0.00  0.00    +0.000 A 
ATOM     14  C   UNL     1      -1.069  10.970  23.122  0.00  0.00    +0.000 A 
ATOM     15  C   UNL     1      -0.603  10.669  21.815  0.00  0.00    +0.000 A 
ATOM     16  C   UNL     1       0.318   9.767  21.257  0.00  0.00    +0.000 A 
ATOM     17  H   UNL     1      -2.678  13.038  21.282  0.00  0.00    +0.000 HD
ENDBRANCH   4   8
BRANCH   1  23
ATOM     18  C   UNL     1       4.300   4.690  17.461  0.00  0.00    +0.000 A 
ATOM     19  N   UNL     1       5.142   3.902  16.755  0.00  0.00    +0.000 NA
ATOM     20  C   UNL     1       5.930   4.439  15.809  0.00  0.00    +0.000 A 
ATOM     21  C   UNL     1       5.928   5.777  15.503  0.00  0.00    +0.000 A 
ATOM     22  C   UNL     1       5.061   6.596  16.218  0.00  0.00    +0.000 A 
ATOM     23  C   UNL     1       4.222   6.084  17.238  0.00  0.00    +0.000 A 
BRANCH  18  26
ATOM     24  C   UNL     1       2.199   3.647  18.263  0.00  0.00    +0.000 C 
ATOM     25  O   UNL     1       1.547   3.800  17.233  0.00  0.00    +0.000 OA
ATOM     26  N   UNL     1       3.511   4.060  18.453  0.00  0.00    +0.000 N 
ATOM     27  H   UNL     1       3.942   3.895  19.347  0.00  0.00    +0.000 HD
BRANCH  24  29
ATOM     28  C   UNL     1       2.609   2.369  20.378  0.00  0.00    +0.000 C 
ATOM     29  C   UNL     1       1.518   3.035  19.512  0.00  0.00    +0.000 C 
ATOM     30  C   UNL     1       0.513   1.956  19.084  0.00  0.00    +0.000 C 
ATOM     31  C   UNL     1       0.811   4.101  20.359  0.00  0.00    +0.000 C 
ENDBRANCH  24  29
ENDBRANCH  18  26
ENDBRANCH   1  23
TORSDOF 4
ENDMDL
MODEL 5
REMARK VINA RESULT:      -9.3      2.121      4.150
REMARK  Name = 
REMARK  7 active torsions:
REMARK  status: ('A' for Active; 'I' for Inactive)
REMARK    1  A    between atoms: C_1  and  C_2
REMARK    2  A    between atoms: C_2  and  C_3
REMARK    3  A    between atoms: C_2  and  C_4
REMARK    4  A    between atoms: C_2  and  C_5
REMARK    5  A    between atoms: N_7  and  C_8
REMARK    6  A    between atoms: C_13  and  C_14
REMARK    7  A    between atoms: C_17  and  C_18
REMARK                            x       y       z     vdW  Elec       q    Type
REMARK                         _______ _______ _______ _____ _____    ______ ____
ROOT
ATOM      1  C   UNL     1       3.041   7.252  18.103  0.00  0.00    +0.000 A 
ATOM      2  C   UNL     1       2.593   8.402  17.426  0.00  0.00    +0.000 A 
ATOM      3  C   UNL     1       1.702   9.312  18.016  0.00  0.00    +0.000 A 
ATOM      4  C   UNL     1       1.232   9.131  19.325  0.00  0.00    +0.000 A 
ATOM      5  C   UNL     1       1.701   7.996  20.002  0.00  0.00    +0.000 A 
ATOM      6  F   UNL     1       1.312   7.745  21.261  0.00  0.00    +0.000 F 
ATOM      7  C   UNL     1       2.557   7.066  19.404  0.00  0.00    +0.000 A 
ENDROOT
BRANCH   4   8
ATOM      8  C   UNL     1       0.263  10.070  19.930  0.00  0.00    +0.000 A 
ATOM      9  C   UNL     1      -0.538  10.926  19.159  0.00  0.00    +0.000 A 
ATOM     10  N   UNL     1      -1.435  11.841  19.611  0.00  0.00    +0.000 NA
ATOM     11  C   UNL     1      -1.510  11.873  20.951  0.00  0.00    +0.000 A 
ATOM     12  N   UNL     1      -2.321  12.712  21.663  0.00  0.00    +0.000 N 
ATOM     13  C   UNL     1      -2.164  12.479  23.006  0.00  0.00    +0.000 A 
ATOM     14  C   UNL     1      -1.226  11.479  23.155  0.00  0.00    +0.000 A 
ATOM     15  C   UNL     1      -0.803  11.093  21.855  0.00  0.00    +0.000 A 
ATOM     16  C   UNL     1       0.111  10.166  21.327  0.00  0.00    +0.000 A 
ATOM     17  H   UNL     1      -2.933  13.392  21.236  0.00  0.00    +0.000 HD
ENDBRANCH   4   8
BRANCH   1  23
ATOM     18  C   UNL     1       3.816   4.858  17.503  0.00  0.00    +0.000 A 
ATOM     19  N   UNL     1       4.665   4.041  16.840  0.00  0.00    +0.000 NA
ATOM     20  C   UNL     1       5.643   4.563  16.081  0.00  0.00    +0.000 A 
ATOM     21  C   UNL     1       5.833   5.913  15.927  0.00  0.00    +0.000 A 
ATOM     22  C   UNL     1       4.960   6.762  16.599  0.00  0.00    +0.000 A 
ATOM     23  C   UNL     1       3.925   6.266  17.427  0.00  0.00    +0.000 A 
BRANCH  18  26
ATOM     24  C   UNL     1       3.073   3.572  19.488  0.00  0.00    +0.000 C 
ATOM     25  O   UNL     1       4.182   3.404  19.988  0.00  0.00    +0.000 OA
ATOM     26  N   UNL     1       2.821   4.240  18.298  0.00  0.00    +0.000 N 
ATOM     27  H   UNL     1       1.870   4.305  17.975  0.00  0.00    +0.000 HD
BRANCH  24  29
ATOM     28  C   UNL     1       0.765   4.023  20.349  0.00  0.00    +0.000 C 
ATOM     29  C   UNL     1       1.832   2.925  20.152  0.00  0.00    +0.000 C 
ATOM     30  C   UNL     1       2.208   2.362  21.530  0.00  0.00    +0.000 C 
ATOM     31  C   UNL     1       1.229   1.815  19.280  0.00  0.00    +0.000 C 
ENDBRANCH  24  29
ENDBRANCH  18  26
ENDBRANCH   1  23
TORSDOF 4
ENDMDL
MODEL 6
REMARK VINA RESULT:      -9.3      0.899      1.261
REMARK  Name = 
REMARK  7 active torsions:
REMARK  status: ('A' for Active; 'I' for Inactive)
REMARK    1  A    between atoms: C_1  and  C_2
REMARK    2  A    between atoms: C_2  and  C_3
REMARK    3  A    between atoms: C_2  and  C_4
REMARK    4  A    between atoms: C_2  and  C_5
REMARK    5  A    between atoms: N_7  and  C_8
REMARK    6  A    between atoms: C_13  and  C_14
REMARK    7  A    between atoms: C_17  and  C_18
REMARK                            x       y       z     vdW  Elec       q    Type
REMARK                         _______ _______ _______ _____ _____    ______ ____
ROOT
ATOM      1  C   UNL     1       2.156   6.470  19.825  0.00  0.00    +0.000 A 
ATOM      2  C   UNL     1       1.481   7.197  20.823  0.00  0.00    +0.000 A 
ATOM      3  C   UNL     1       1.035   8.511  20.612  0.00  0.00    +0.000 A 
ATOM      4  C   UNL     1       1.221   9.157  19.382  0.00  0.00    +0.000 A 
ATOM      5  C   UNL     1       1.873   8.418  18.384  0.00  0.00    +0.000 A 
ATOM      6  F   UNL     1       2.087   8.951  17.171  0.00  0.00    +0.000 F 
ATOM      7  C   UNL     1       2.354   7.123  18.603  0.00  0.00    +0.000 A 
ENDROOT
BRANCH   4   8
ATOM      8  C   UNL     1       0.785  10.555  19.174  0.00  0.00    +0.000 A 
ATOM      9  C   UNL     1      -0.503  10.883  18.726  0.00  0.00    +0.000 A 
ATOM     10  N   UNL     1      -0.997  12.124  18.476  0.00  0.00    +0.000 NA
ATOM     11  C   UNL     1      -0.096  13.093  18.707  0.00  0.00    +0.000 A 
ATOM     12  N   UNL     1      -0.328  14.427  18.522  0.00  0.00    +0.000 N 
ATOM     13  C   UNL     1       0.793  15.144  18.861  0.00  0.00    +0.000 A 
ATOM     14  C   UNL     1       1.762  14.248  19.261  0.00  0.00    +0.000 A 
ATOM     15  C   UNL     1       1.207  12.944  19.161  0.00  0.00    +0.000 A 
ATOM     16  C   UNL     1       1.659  11.636  19.398  0.00  0.00    +0.000 A 
ATOM     17  H   UNL     1      -1.203  14.800  18.184  0.00  0.00    +0.000 HD
ENDBRANCH   4   8
BRANCH   1  23
ATOM     18  C   UNL     1       3.782   4.491  19.457  0.00  0.00    +0.000 A 
ATOM     19  N   UNL     1       4.195   3.247  19.787  0.00  0.00    +0.000 NA
ATOM     20  C   UNL     1       3.559   2.563  20.753  0.00  0.00    +0.000 A 
ATOM     21  C   UNL     1       2.490   3.068  21.450  0.00  0.00    +0.000 A 
ATOM     22  C   UNL     1       2.062   4.350  21.123  0.00  0.00    +0.000 A 
ATOM     23  C   UNL     1       2.684   5.107  20.101  0.00  0.00    +0.000 A 
BRANCH  18  26
ATOM     24  C   UNL     1       5.851   5.403  18.442  0.00  0.00    +0.000 C 
ATOM     25  O   UNL     1       6.613   5.125  19.365  0.00  0.00    +0.000 OA
ATOM     26  N   UNL     1       4.487   5.147  18.420  0.00  0.00    +0.000 N 
ATOM     27  H   UNL     1       3.957   5.433  17.614  0.00  0.00    +0.000 HD
BRANCH  24  29
ATOM     28  C   UNL     1       5.200   6.900  16.541  0.00  0.00    +0.000 C 
ATOM     29  C   UNL     1       6.390   6.187  17.219  0.00  0.00    +0.000 C 
ATOM     30  C   UNL     1       7.015   5.216  16.208  0.00  0.00    +0.000 C 
ATOM     31  C   UNL     1       7.420   7.249  17.630  0.00  0.00    +0.000 C 
ENDBRANCH  24  29
ENDBRANCH  18  26
ENDBRANCH   1  23
TORSDOF 4
ENDMDL
MODEL 7
REMARK VINA RESULT:      -9.3      2.474      4.419
REMARK  Name = 
REMARK  7 active torsions:
REMARK  status: ('A' for Active; 'I' for Inactive)
REMARK    1  A    between atoms: C_1  and  C_2
REMARK    2  A    between atoms: C_2  and  C_3
REMARK    3  A    between atoms: C_2  and  C_4
REMARK    4  A    between atoms: C_2  and  C_5
REMARK    5  A    between atoms: N_7  and  C_8
REMARK    6  A    between atoms: C_13  and  C_14
REMARK    7  A    between atoms: C_17  and  C_18
REMARK                            x       y       z     vdW  Elec       q    Type
REMARK                         _______ _______ _______ _____ _____    ______ ____
ROOT
ATOM      1  C   UNL     1       2.738   7.356  18.311  0.00  0.00    +0.000 A 
ATOM      2  C   UNL     1       2.453   7.033  19.651  0.00  0.00    +0.000 A 
ATOM      3  C   UNL     1       1.668   7.864  20.466  0.00  0.00    +0.000 A 
ATOM      4  C   UNL     1       1.107   9.051  19.973  0.00  0.00    +0.000 A 
ATOM      5  C   UNL     1       1.375   9.355  18.631  0.00  0.00    +0.000 A 
ATOM      6  F   UNL     1       0.872  10.465  18.070  0.00  0.00    +0.000 F 
ATOM      7  C   UNL     1       2.188   8.550  17.827  0.00  0.00    +0.000 A 
ENDROOT
BRANCH   4   8
ATOM      8  C   UNL     1       0.313   9.945  20.844  0.00  0.00    +0.000 A 
ATOM      9  C   UNL     1       0.385   9.891  22.244  0.00  0.00    +0.000 A 
ATOM     10  N   UNL     1      -0.316  10.641  23.133  0.00  0.00    +0.000 NA
ATOM     11  C   UNL     1      -1.148  11.508  22.534  0.00  0.00    +0.000 A 
ATOM     12  N   UNL     1      -1.978  12.370  23.195  0.00  0.00    +0.000 N 
ATOM     13  C   UNL     1      -2.683  13.122  22.289  0.00  0.00    +0.000 A 
ATOM     14  C   UNL     1      -2.301  12.726  21.024  0.00  0.00    +0.000 A 
ATOM     15  C   UNL     1      -1.332  11.698  21.172  0.00  0.00    +0.000 A 
ATOM     16  C   UNL     1      -0.580  10.890  20.303  0.00  0.00    +0.000 A 
ATOM     17  H   UNL     1      -2.043  12.420  24.201  0.00  0.00    +0.000 HD
ENDBRANCH   4   8
BRANCH   1  23
ATOM     18  C   UNL     1       3.626   5.082  17.456  0.00  0.00    +0.000 A 
ATOM     19  N   UNL     1       4.478   4.386  16.670  0.00  0.00    +0.000 NA
ATOM     20  C   UNL     1       5.360   5.038  15.895  0.00  0.00    +0.000 A 
ATOM     21  C   UNL     1       5.448   6.407  15.846  0.00  0.00    +0.000 A 
ATOM     22  C   UNL     1       4.572   7.132  16.645  0.00  0.00    +0.000 A 
ATOM     23  C   UNL     1       3.634   6.496  17.494  0.00  0.00    +0.000 A 
BRANCH  18  26
ATOM     24  C   UNL     1       3.079   3.739  19.466  0.00  0.00    +0.000 C 
ATOM     25  O   UNL     1       4.196   3.763  19.978  0.00  0.00    +0.000 OA
ATOM     26  N   UNL     1       2.735   4.331  18.259  0.00  0.00    +0.000 N 
ATOM     27  H   UNL     1       1.790   4.234  17.929  0.00  0.00    +0.000 HD
BRANCH  24  29
ATOM     28  C   UNL     1       0.735   3.845  20.343  0.00  0.00    +0.000 C 
ATOM     29  C   UNL     1       1.951   2.917  20.138  0.00  0.00    +0.000 C 
ATOM     30  C   UNL     1       2.416   2.416  21.513  0.00  0.00    +0.000 C 
ATOM     31  C   UNL     1       1.514   1.730  19.269  0.00  0.00    +0.000 C 
ENDBRANCH  24  29
ENDBRANCH  18  26
ENDBRANCH   1  23
TORSDOF 4
ENDMDL
MODEL 8
REMARK VINA RESULT:      -9.2      2.676      4.572
REMARK  Name = 
REMARK  7 active torsions:
REMARK  status: ('A' for Active; 'I' for Inactive)
REMARK    1  A    between atoms: C_1  and  C_2
REMARK    2  A    between atoms: C_2  and  C_3
REMARK    3  A    between atoms: C_2  and  C_4
REMARK    4  A    between atoms: C_2  and  C_5
REMARK    5  A    between atoms: N_7  and  C_8
REMARK    6  A    between atoms: C_13  and  C_14
REMARK    7  A    between atoms: C_17  and  C_18
REMARK                            x       y       z     vdW  Elec       q    Type
REMARK                         _______ _______ _______ _____ _____    ______ ____
ROOT
ATOM      1  C   UNL     1       3.008   7.209  18.145  0.00  0.00    +0.000 A 
ATOM      2  C   UNL     1       2.696   6.827  19.464  0.00  0.00    +0.000 A 
ATOM      3  C   UNL     1       1.905   7.628  20.302  0.00  0.00    +0.000 A 
ATOM      4  C   UNL     1       1.363   8.842  19.856  0.00  0.00    +0.000 A 
ATOM      5  C   UNL     1       1.658   9.205  18.533  0.00  0.00    +0.000 A 
ATOM      6  F   UNL     1       1.176  10.345  18.016  0.00  0.00    +0.000 F 
ATOM      7  C   UNL     1       2.478   8.430  17.707  0.00  0.00    +0.000 A 
ENDROOT
BRANCH   4   8
ATOM      8  C   UNL     1       0.562   9.703  20.752  0.00  0.00    +0.000 A 
ATOM      9  C   UNL     1       0.667   9.638  22.150  0.00  0.00    +0.000 A 
ATOM     10  N   UNL     1      -0.036  10.358  23.062  0.00  0.00    +0.000 NA
ATOM     11  C   UNL     1      -0.907  11.205  22.491  0.00  0.00    +0.000 A 
ATOM     12  N   UNL     1      -1.747  12.034  23.179  0.00  0.00    +0.000 N 
ATOM     13  C   UNL     1      -2.495  12.774  22.296  0.00  0.00    +0.000 A 
ATOM     14  C   UNL     1      -2.130  12.401  21.019  0.00  0.00    +0.000 A 
ATOM     15  C   UNL     1      -1.126  11.402  21.135  0.00  0.00    +0.000 A 
ATOM     16  C   UNL     1      -0.370  10.626  20.241  0.00  0.00    +0.000 A 
ATOM     17  H   UNL     1      -1.792  12.074  24.186  0.00  0.00    +0.000 HD
ENDBRANCH   4   8
BRANCH   1  23
ATOM     18  C   UNL     1       4.074   4.976  17.391  0.00  0.00    +0.000 A 
ATOM     19  N   UNL     1       4.915   4.305  16.573  0.00  0.00    +0.000 NA
ATOM     20  C   UNL     1       5.621   4.972  15.644  0.00  0.00    +0.000 A 
ATOM     21  C   UNL     1       5.532   6.330  15.466  0.00  0.00    +0.000 A 
ATOM     22  C   UNL     1       4.664   7.028  16.298  0.00  0.00    +0.000 A 
ATOM     23  C   UNL     1       3.910   6.378  17.305  0.00  0.00    +0.000 A 
BRANCH  18  26
ATOM     24  C   UNL     1       2.065   3.776  18.209  0.00  0.00    +0.000 C 
ATOM     25  O   UNL     1       1.339   4.014  17.247  0.00  0.00    +0.000 OA
ATOM     26  N   UNL     1       3.374   4.213  18.357  0.00  0.00    +0.000 N 
ATOM     27  H   UNL     1       3.870   3.969  19.197  0.00  0.00    +0.000 HD
BRANCH  24  29
ATOM     28  C   UNL     1       2.660   2.304  20.147  0.00  0.00    +0.000 C 
ATOM     29  C   UNL     1       1.490   3.006  19.425  0.00  0.00    +0.000 C 
ATOM     30  C   UNL     1       0.501   1.934  18.946  0.00  0.00    +0.000 C 
ATOM     31  C   UNL     1       0.801   3.947  20.422  0.00  0.00    +0.000 C 
ENDBRANCH  24  29
ENDBRANCH  18  26
ENDBRANCH   1  23
TORSDOF 4
ENDMDL
MODEL 9
REMARK VINA RESULT:      -9.1      1.227      1.666
REMARK  Name = 
REMARK  7 active torsions:
REMARK  status: ('A' for Active; 'I' for Inactive)
REMARK    1  A    between atoms: C_1  and  C_2
REMARK    2  A    between atoms: C_2  and  C_3
REMARK    3  A    between atoms: C_2  and  C_4
REMARK    4  A    between atoms: C_2  and  C_5
REMARK    5  A    between atoms: N_7  and  C_8
REMARK    6  A    between atoms: C_13  and  C_14
REMARK    7  A    between atoms: C_17  and  C_18
REMARK                            x       y       z     vdW  Elec       q    Type
REMARK                         _______ _______ _______ _____ _____    ______ ____
ROOT
ATOM      1  C   UNL     1       2.237   6.377  19.824  0.00  0.00    +0.000 A 
ATOM      2  C   UNL     1       1.677   7.178  20.838  0.00  0.00    +0.000 A 
ATOM      3  C   UNL     1       1.349   8.526  20.624  0.00  0.00    +0.000 A 
ATOM      4  C   UNL     1       1.542   9.136  19.376  0.00  0.00    +0.000 A 
ATOM      5  C   UNL     1       2.077   8.326  18.365  0.00  0.00    +0.000 A 
ATOM      6  F   UNL     1       2.288   8.821  17.135  0.00  0.00    +0.000 F 
ATOM      7  C   UNL     1       2.442   6.994  18.584  0.00  0.00    +0.000 A 
ENDROOT
BRANCH   4   8
ATOM      8  C   UNL     1       1.232  10.567  19.164  0.00  0.00    +0.000 A 
ATOM      9  C   UNL     1       2.080  11.422  18.444  0.00  0.00    +0.000 A 
ATOM     10  N   UNL     1       1.907  12.749  18.214  0.00  0.00    +0.000 NA
ATOM     11  C   UNL     1       0.779  13.226  18.764  0.00  0.00    +0.000 A 
ATOM     12  N   UNL     1       0.373  14.529  18.696  0.00  0.00    +0.000 N 
ATOM     13  C   UNL     1      -0.825  14.677  19.350  0.00  0.00    +0.000 A 
ATOM     14  C   UNL     1      -1.185  13.444  19.854  0.00  0.00    +0.000 A 
ATOM     15  C   UNL     1      -0.170  12.520  19.491  0.00  0.00    +0.000 A 
ATOM     16  C   UNL     1       0.067  11.151  19.697  0.00  0.00    +0.000 A 
ATOM     17  H   UNL     1       0.898  15.254  18.228  0.00  0.00    +0.000 HD
ENDBRANCH   4   8
BRANCH   1  23
ATOM     18  C   UNL     1       3.722   4.285  19.497  0.00  0.00    +0.000 A 
ATOM     19  N   UNL     1       4.022   3.007  19.824  0.00  0.00    +0.000 NA
ATOM     20  C   UNL     1       3.290   2.360  20.746  0.00  0.00    +0.000 A 
ATOM     21  C   UNL     1       2.229   2.937  21.400  0.00  0.00    +0.000 A 
ATOM     22  C   UNL     1       1.917   4.252  21.077  0.00  0.00    +0.000 A 
ATOM     23  C   UNL     1       2.644   4.974  20.100  0.00  0.00    +0.000 A 
BRANCH  18  26
ATOM     24  C   UNL     1       5.842   5.292  18.701  0.00  0.00    +0.000 C 
ATOM     25  O   UNL     1       6.469   5.187  19.752  0.00  0.00    +0.000 OA
ATOM     26  N   UNL     1       4.525   4.899  18.507  0.00  0.00    +0.000 N 
ATOM     27  H   UNL     1       4.107   5.047  17.604  0.00  0.00    +0.000 HD
BRANCH  24  29
ATOM     28  C   UNL     1       5.397   6.747  16.711  0.00  0.00    +0.000 C 
ATOM     29  C   UNL     1       6.500   5.998  17.489  0.00  0.00    +0.000 C 
ATOM     30  C   UNL     1       7.131   4.956  16.555  0.00  0.00    +0.000 C 
ATOM     31  C   UNL     1       7.560   7.017  17.928  0.00  0.00    +0.000 C 
ENDBRANCH  24  29
ENDBRANCH  18  26
ENDBRANCH   1  23
TORSDOF 4
ENDMDL
