MODEL 1
REMARK VINA RESULT:      -6.9      0.000      0.000
REMARK  Name = 
REMARK  4 active torsions:
REMARK  status: ('A' for Active; 'I' for Inactive)
REMARK    1  A    between atoms: N_6  and  C_7
REMARK    2  A    between atoms: C_7  and  C_8
REMARK    3  A    between atoms: C_8  and  S_9
REMARK    4  A    between atoms: S_9  and  C_12
REMARK                            x       y       z     vdW  Elec       q    Type
REMARK                         _______ _______ _______ _____ _____    ______ ____
ROOT
ATOM      1  S   UNL     1       3.497   5.917  18.349  0.00  0.00    +0.000 S 
ATOM      2  O   UNL     1       3.124   7.157  17.698  0.00  0.00    +0.000 OA
ATOM      3  O   UNL     1       3.703   5.869  19.785  0.00  0.00    +0.000 OA
ENDROOT
BRANCH   1   4
ATOM      4  C   UNL     1       4.996   5.351  17.579  0.00  0.00    +0.000 A 
ATOM      5  C   UNL     1       6.153   5.205  18.353  0.00  0.00    +0.000 A 
ATOM      6  C   UNL     1       7.320   4.721  17.762  0.00  0.00    +0.000 A 
ATOM      7  C   UNL     1       7.328   4.379  16.408  0.00  0.00    +0.000 A 
ATOM      8  C   UNL     1       6.163   4.513  15.651  0.00  0.00    +0.000 A 
ATOM      9 BR   UNL     1       6.176   4.029  13.824  0.00  0.00    +0.000 Br
ATOM     10  C   UNL     1       4.988   4.992  16.229  0.00  0.00    +0.000 A 
ENDBRANCH   1   4
BRANCH   1  11
ATOM     11  C   UNL     1       2.303   4.667  17.931  0.00  0.00    +0.000 C 
BRANCH  11  12
ATOM     12  C   UNL     1       2.845   3.298  18.318  0.00  0.00    +0.000 C 
BRANCH  12  18
ATOM     13  O   UNL     1       4.675   2.343  20.377  0.00  0.00    +0.000 OA
ATOM     14  C   UNL     1       3.492   2.531  20.605  0.00  0.00    +0.000 C 
ATOM     15  O   UNL     1       2.921   2.426  21.843  0.00  0.00    +0.000 OA
ATOM     16  C   UNL     1       1.507   2.614  21.696  0.00  0.00    +0.000 C 
ATOM     17  C   UNL     1       1.349   3.320  20.372  0.00  0.00    +0.000 C 
ATOM     18  N   UNL     1       2.545   2.928  19.692  0.00  0.00    +0.000 N 
ENDBRANCH  12  18
ENDBRANCH  11  12
ENDBRANCH   1  11
TORSDOF 4
ENDMDL
MODEL 2
REMARK VINA RESULT:      -6.8      3.271      5.337
REMARK  Name = 
REMARK  4 active torsions:
REMARK  status: ('A' for Active; 'I' for Inactive)
REMARK    1  A    between atoms: N_6  and  C_7
REMARK    2  A    between atoms: C_7  and  C_8
REMARK    3  A    between atoms: C_8  and  S_9
REMARK    4  A    between atoms: S_9  and  C_12
REMARK                            x       y       z     vdW  Elec       q    Type
REMARK                         _______ _______ _______ _____ _____    ______ ____
ROOT
ATOM      1  S   UNL     1       2.511   3.113  18.153  0.00  0.00    +0.000 S 
ATOM      2  O   UNL     1       2.249   3.282  16.737  0.00  0.00    +0.000 OA
ATOM      3  O   UNL     1       1.784   2.123  18.926  0.00  0.00    +0.000 OA
ENDROOT
BRANCH   1   4
ATOM      4  C   UNL     1       2.244   4.691  18.927  0.00  0.00    +0.000 A 
ATOM      5  C   UNL     1       1.978   4.746  20.299  0.00  0.00    +0.000 A 
ATOM      6  C   UNL     1       1.810   5.985  20.919  0.00  0.00    +0.000 A 
ATOM      7  C   UNL     1       1.915   7.159  20.172  0.00  0.00    +0.000 A 
ATOM      8  C   UNL     1       2.200   7.092  18.807  0.00  0.00    +0.000 A 
ATOM      9 BR   UNL     1       2.361   8.688  17.807  0.00  0.00    +0.000 Br
ATOM     10  C   UNL     1       2.373   5.861  18.175  0.00  0.00    +0.000 A 
ENDBRANCH   1   4
BRANCH   1  11
ATOM     11  C   UNL     1       4.249   2.812  18.384  0.00  0.00    +0.000 C 
BRANCH  11  12
ATOM     12  C   UNL     1       4.986   4.140  18.472  0.00  0.00    +0.000 C 
BRANCH  12  18
ATOM     13  O   UNL     1       7.856   4.646  18.577  0.00  0.00    +0.000 OA
ATOM     14  C   UNL     1       7.258   4.549  17.519  0.00  0.00    +0.000 C 
ATOM     15  O   UNL     1       7.861   4.554  16.291  0.00  0.00    +0.000 OA
ATOM     16  C   UNL     1       6.832   4.526  15.292  0.00  0.00    +0.000 C 
ATOM     17  C   UNL     1       5.611   4.010  16.013  0.00  0.00    +0.000 C 
ATOM     18  N   UNL     1       5.905   4.364  17.367  0.00  0.00    +0.000 N 
ENDBRANCH  12  18
ENDBRANCH  11  12
ENDBRANCH   1  11
TORSDOF 4
ENDMDL
MODEL 3
REMARK VINA RESULT:      -6.7      4.011      6.572
REMARK  Name = 
REMARK  4 active torsions:
REMARK  status: ('A' for Active; 'I' for Inactive)
REMARK    1  A    between atoms: N_6  and  C_7
REMARK    2  A    between atoms: C_7  and  C_8
REMARK    3  A    between atoms: C_8  and  S_9
REMARK    4  A    between atoms: S_9  and  C_12
REMARK                            x       y       z     vdW  Elec       q    Type
REMARK                         _______ _______ _______ _____ _____    ______ ____
ROOT
ATOM      1  S   UNL     1       5.349   5.329  17.748  0.00  0.00    +0.000 S 
ATOM      2  O   UNL     1       6.068   5.620  18.972  0.00  0.00    +0.000 OA
ATOM      3  O   UNL     1       4.782   6.400  16.950  0.00  0.00    +0.000 OA
ENDROOT
BRANCH   1   4
ATOM      4  C   UNL     1       4.023   4.223  18.170  0.00  0.00    +0.000 A 
ATOM      5  C   UNL     1       3.462   3.414  17.177  0.00  0.00    +0.000 A 
ATOM      6  C   UNL     1       2.449   2.514  17.512  0.00  0.00    +0.000 A 
ATOM      7  C   UNL     1       2.007   2.420  18.833  0.00  0.00    +0.000 A 
ATOM      8  C   UNL     1       2.588   3.221  19.819  0.00  0.00    +0.000 A 
ATOM      9 BR   UNL     1       1.998   3.073  21.609  0.00  0.00    +0.000 Br
ATOM     10  C   UNL     1       3.602   4.122  19.498  0.00  0.00    +0.000 A 
ENDBRANCH   1   4
BRANCH   1  11
ATOM     11  C   UNL     1       6.394   4.357  16.686  0.00  0.00    +0.000 C 
BRANCH  11  12
ATOM     12  C   UNL     1       7.039   5.260  15.644  0.00  0.00    +0.000 C 
BRANCH  12  18
ATOM     13  O   UNL     1       8.606   5.924  13.277  0.00  0.00    +0.000 OA
ATOM     14  C   UNL     1       7.687   5.124  13.236  0.00  0.00    +0.000 C 
ATOM     15  O   UNL     1       7.362   4.381  12.135  0.00  0.00    +0.000 OA
ATOM     16  C   UNL     1       6.172   3.639  12.436  0.00  0.00    +0.000 C 
ATOM     17  C   UNL     1       6.102   3.622  13.943  0.00  0.00    +0.000 C 
ATOM     18  N   UNL     1       6.861   4.786  14.281  0.00  0.00    +0.000 N 
ENDBRANCH  12  18
ENDBRANCH  11  12
ENDBRANCH   1  11
TORSDOF 4
ENDMDL
MODEL 4
REMARK VINA RESULT:      -6.7      3.360      5.476
REMARK  Name = 
REMARK  4 active torsions:
REMARK  status: ('A' for Active; 'I' for Inactive)
REMARK    1  A    between atoms: N_6  and  C_7
REMARK    2  A    between atoms: C_7  and  C_8
REMARK    3  A    between atoms: C_8  and  S_9
REMARK    4  A    between atoms: S_9  and  C_12
REMARK                            x       y       z     vdW  Elec       q    Type
REMARK                         _______ _______ _______ _____ _____    ______ ____
ROOT
ATOM      1  S   UNL     1       3.350   3.683  17.939  0.00  0.00    +0.000 S 
ATOM      2  O   UNL     1       2.358   3.276  16.964  0.00  0.00    +0.000 OA
ATOM      3  O   UNL     1       3.815   2.755  18.952  0.00  0.00    +0.000 OA
ENDROOT
BRANCH   1   4
ATOM      4  C   UNL     1       2.701   5.107  18.783  0.00  0.00    +0.000 A 
ATOM      5  C   UNL     1       2.306   4.992  20.120  0.00  0.00    +0.000 A 
ATOM      6  C   UNL     1       1.836   6.117  20.798  0.00  0.00    +0.000 A 
ATOM      7  C   UNL     1       1.768   7.349  20.145  0.00  0.00    +0.000 A 
ATOM      8  C   UNL     1       2.183   7.455  18.816  0.00  0.00    +0.000 A 
ATOM      9 BR   UNL     1       2.108   9.131  17.945  0.00  0.00    +0.000 Br
ATOM     10  C   UNL     1       2.657   6.340  18.127  0.00  0.00    +0.000 A 
ENDBRANCH   1   4
BRANCH   1  11
ATOM     11  C   UNL     1       4.777   4.309  17.080  0.00  0.00    +0.000 C 
BRANCH  11  12
ATOM     12  C   UNL     1       5.984   4.269  18.007  0.00  0.00    +0.000 C 
BRANCH  12  18
ATOM     13  O   UNL     1       7.682   5.289  20.146  0.00  0.00    +0.000 OA
ATOM     14  C   UNL     1       7.527   5.900  19.102  0.00  0.00    +0.000 C 
ATOM     15  O   UNL     1       8.196   7.046  18.773  0.00  0.00    +0.000 OA
ATOM     16  C   UNL     1       7.673   7.523  17.525  0.00  0.00    +0.000 C 
ATOM     17  C   UNL     1       7.001   6.321  16.907  0.00  0.00    +0.000 C 
ATOM     18  N   UNL     1       6.710   5.528  18.061  0.00  0.00    +0.000 N 
ENDBRANCH  12  18
ENDBRANCH  11  12
ENDBRANCH   1  11
TORSDOF 4
ENDMDL
MODEL 5
REMARK VINA RESULT:      -6.6      4.117      6.012
REMARK  Name = 
REMARK  4 active torsions:
REMARK  status: ('A' for Active; 'I' for Inactive)
REMARK    1  A    between atoms: N_6  and  C_7
REMARK    2  A    between atoms: C_7  and  C_8
REMARK    3  A    between atoms: C_8  and  S_9
REMARK    4  A    between atoms: S_9  and  C_12
REMARK                            x       y       z     vdW  Elec       q    Type
REMARK                         _______ _______ _______ _____ _____    ______ ____
ROOT
ATOM      1  S   UNL     1       2.890   5.210  19.134  0.00  0.00    +0.000 S 
ATOM      2  O   UNL     1       1.747   4.354  19.381  0.00  0.00    +0.000 OA
ATOM      3  O   UNL     1       4.054   5.159  19.999  0.00  0.00    +0.000 OA
ENDROOT
BRANCH   1   4
ATOM      4  C   UNL     1       2.299   6.887  19.139  0.00  0.00    +0.000 A 
ATOM      5  C   UNL     1       2.298   7.618  17.946  0.00  0.00    +0.000 A 
ATOM      6  C   UNL     1       1.796   8.920  17.937  0.00  0.00    +0.000 A 
ATOM      7  C   UNL     1       1.291   9.482  19.111  0.00  0.00    +0.000 A 
ATOM      8  C   UNL     1       1.280   8.735  20.290  0.00  0.00    +0.000 A 
ATOM      9 BR   UNL     1       0.576   9.497  21.871  0.00  0.00    +0.000 Br
ATOM     10  C   UNL     1       1.776   7.433  20.314  0.00  0.00    +0.000 A 
ENDBRANCH   1   4
BRANCH   1  11
ATOM     11  C   UNL     1       3.445   4.958  17.462  0.00  0.00    +0.000 C 
BRANCH  11  12
ATOM     12  C   UNL     1       4.560   3.922  17.449  0.00  0.00    +0.000 C 
BRANCH  12  18
ATOM     13  O   UNL     1       7.309   4.473  18.254  0.00  0.00    +0.000 OA
ATOM     14  C   UNL     1       6.964   4.494  17.085  0.00  0.00    +0.000 C 
ATOM     15  O   UNL     1       7.821   4.664  16.033  0.00  0.00    +0.000 OA
ATOM     16  C   UNL     1       7.041   4.738  14.832  0.00  0.00    +0.000 C 
ATOM     17  C   UNL     1       5.718   4.110  15.196  0.00  0.00    +0.000 C 
ATOM     18  N   UNL     1       5.688   4.300  16.613  0.00  0.00    +0.000 N 
ENDBRANCH  12  18
ENDBRANCH  11  12
ENDBRANCH   1  11
TORSDOF 4
ENDMDL
MODEL 6
REMARK VINA RESULT:      -6.5      3.296      5.207
REMARK  Name = 
REMARK  4 active torsions:
REMARK  status: ('A' for Active; 'I' for Inactive)
REMARK    1  A    between atoms: N_6  and  C_7
REMARK    2  A    between atoms: C_7  and  C_8
REMARK    3  A    between atoms: C_8  and  S_9
REMARK    4  A    between atoms: S_9  and  C_12
REMARK                            x       y       z     vdW  Elec       q    Type
REMARK                         _______ _______ _______ _____ _____    ______ ____
ROOT
ATOM      1  S   UNL     1       2.453   3.178  18.270  0.00  0.00    +0.000 S 
ATOM      2  O   UNL     1       2.129   3.300  16.862  0.00  0.00    +0.000 OA
ATOM      3  O   UNL     1       1.771   2.207  19.104  0.00  0.00    +0.000 OA
ENDROOT
BRANCH   1   4
ATOM      4  C   UNL     1       2.203   4.777  19.005  0.00  0.00    +0.000 A 
ATOM      5  C   UNL     1       1.922   4.868  20.372  0.00  0.00    +0.000 A 
ATOM      6  C   UNL     1       1.767   6.124  20.961  0.00  0.00    +0.000 A 
ATOM      7  C   UNL     1       1.899   7.279  20.189  0.00  0.00    +0.000 A 
ATOM      8  C   UNL     1       2.198   7.175  18.829  0.00  0.00    +0.000 A 
ATOM      9 BR   UNL     1       2.396   8.745  17.795  0.00  0.00    +0.000 Br
ATOM     10  C   UNL     1       2.358   5.928  18.228  0.00  0.00    +0.000 A 
ENDBRANCH   1   4
BRANCH   1  11
ATOM     11  C   UNL     1       4.203   2.901  18.434  0.00  0.00    +0.000 C 
BRANCH  11  12
ATOM     12  C   UNL     1       4.945   3.699  17.372  0.00  0.00    +0.000 C 
BRANCH  12  18
ATOM     13  O   UNL     1       7.412   4.480  16.029  0.00  0.00    +0.000 OA
ATOM     14  C   UNL     1       7.163   4.829  17.171  0.00  0.00    +0.000 C 
ATOM     15  O   UNL     1       7.935   5.692  17.898  0.00  0.00    +0.000 OA
ATOM     16  C   UNL     1       7.383   5.776  19.219  0.00  0.00    +0.000 C 
ATOM     17  C   UNL     1       5.962   5.289  19.073  0.00  0.00    +0.000 C 
ATOM     18  N   UNL     1       6.057   4.470  17.904  0.00  0.00    +0.000 N 
ENDBRANCH  12  18
ENDBRANCH  11  12
ENDBRANCH   1  11
TORSDOF 4
ENDMDL
MODEL 7
REMARK VINA RESULT:      -6.5      3.307      5.551
REMARK  Name = 
REMARK  4 active torsions:
REMARK  status: ('A' for Active; 'I' for Inactive)
REMARK    1  A    between atoms: N_6  and  C_7
REMARK    2  A    between atoms: C_7  and  C_8
REMARK    3  A    between atoms: C_8  and  S_9
REMARK    4  A    between atoms: S_9  and  C_12
REMARK                            x       y       z     vdW  Elec       q    Type
REMARK                         _______ _______ _______ _____ _____    ______ ____
ROOT
ATOM      1  S   UNL     1       3.203   3.426  17.938  0.00  0.00    +0.000 S 
ATOM      2  O   UNL     1       2.028   2.732  17.449  0.00  0.00    +0.000 OA
ATOM      3  O   UNL     1       4.146   2.757  18.813  0.00  0.00    +0.000 OA
ENDROOT
BRANCH   1   4
ATOM      4  C   UNL     1       2.635   4.884  18.783  0.00  0.00    +0.000 A 
ATOM      5  C   UNL     1       2.258   4.794  20.127  0.00  0.00    +0.000 A 
ATOM      6  C   UNL     1       1.853   5.944  20.807  0.00  0.00    +0.000 A 
ATOM      7  C   UNL     1       1.832   7.174  20.148  0.00  0.00    +0.000 A 
ATOM      8  C   UNL     1       2.229   7.253  18.811  0.00  0.00    +0.000 A 
ATOM      9 BR   UNL     1       2.218   8.927  17.932  0.00  0.00    +0.000 Br
ATOM     10  C   UNL     1       2.639   6.114  18.121  0.00  0.00    +0.000 A 
ENDBRANCH   1   4
BRANCH   1  11
ATOM     11  C   UNL     1       4.111   4.065  16.548  0.00  0.00    +0.000 C 
BRANCH  11  12
ATOM     12  C   UNL     1       5.582   3.702  16.694  0.00  0.00    +0.000 C 
BRANCH  12  18
ATOM     13  O   UNL     1       6.989   5.447  14.828  0.00  0.00    +0.000 OA
ATOM     14  C   UNL     1       7.016   5.638  16.032  0.00  0.00    +0.000 C 
ATOM     15  O   UNL     1       7.598   6.723  16.627  0.00  0.00    +0.000 OA
ATOM     16  C   UNL     1       7.521   6.545  18.048  0.00  0.00    +0.000 C 
ATOM     17  C   UNL     1       6.424   5.528  18.248  0.00  0.00    +0.000 C 
ATOM     18  N   UNL     1       6.431   4.846  16.991  0.00  0.00    +0.000 N 
ENDBRANCH  12  18
ENDBRANCH  11  12
ENDBRANCH   1  11
TORSDOF 4
ENDMDL
MODEL 8
REMARK VINA RESULT:      -6.5      2.962      3.767
REMARK  Name = 
REMARK  4 active torsions:
REMARK  status: ('A' for Active; 'I' for Inactive)
REMARK    1  A    between atoms: N_6  and  C_7
REMARK    2  A    between atoms: C_7  and  C_8
REMARK    3  A    between atoms: C_8  and  S_9
REMARK    4  A    between atoms: S_9  and  C_12
REMARK                            x       y       z     vdW  Elec       q    Type
REMARK                         _______ _______ _______ _____ _____    ______ ____
ROOT
ATOM      1  S   UNL     1       6.833   5.047  16.330  0.00  0.00    +0.000 S 
ATOM      2  O   UNL     1       6.644   6.462  16.580  0.00  0.00    +0.000 OA
ATOM      3  O   UNL     1       7.942   4.332  16.933  0.00  0.00    +0.000 OA
ENDROOT
BRANCH   1   4
ATOM      4  C   UNL     1       6.963   4.838  14.570  0.00  0.00    +0.000 A 
ATOM      5  C   UNL     1       7.886   5.607  13.853  0.00  0.00    +0.000 A 
ATOM      6  C   UNL     1       8.020   5.417  12.477  0.00  0.00    +0.000 A 
ATOM      7  C   UNL     1       7.242   4.459  11.825  0.00  0.00    +0.000 A 
ATOM      8  C   UNL     1       6.336   3.686  12.555  0.00  0.00    +0.000 A 
ATOM      9 BR   UNL     1       5.300   2.377  11.667  0.00  0.00    +0.000 Br
ATOM     10  C   UNL     1       6.194   3.863  13.930  0.00  0.00    +0.000 A 
ENDBRANCH   1   4
BRANCH   1  11
ATOM     11  C   UNL     1       5.337   4.183  16.754  0.00  0.00    +0.000 C 
BRANCH  11  12
ATOM     12  C   UNL     1       4.208   5.187  16.941  0.00  0.00    +0.000 C 
BRANCH  12  18
ATOM     13  O   UNL     1       1.754   3.635  17.214  0.00  0.00    +0.000 OA
ATOM     14  C   UNL     1       2.294   4.160  18.174  0.00  0.00    +0.000 C 
ATOM     15  O   UNL     1       1.888   3.997  19.469  0.00  0.00    +0.000 OA
ATOM     16  C   UNL     1       2.695   4.846  20.297  0.00  0.00    +0.000 C 
ATOM     17  C   UNL     1       3.918   5.144  19.464  0.00  0.00    +0.000 C 
ATOM     18  N   UNL     1       3.418   4.950  18.138  0.00  0.00    +0.000 N 
ENDBRANCH  12  18
ENDBRANCH  11  12
ENDBRANCH   1  11
TORSDOF 4
ENDMDL
MODEL 9
REMARK VINA RESULT:      -6.5      4.177      6.221
REMARK  Name = 
REMARK  4 active torsions:
REMARK  status: ('A' for Active; 'I' for Inactive)
REMARK    1  A    between atoms: N_6  and  C_7
REMARK    2  A    between atoms: C_7  and  C_8
REMARK    3  A    between atoms: C_8  and  S_9
REMARK    4  A    between atoms: S_9  and  C_12
REMARK                            x       y       z     vdW  Elec       q    Type
REMARK                         _______ _______ _______ _____ _____    ______ ____
ROOT
ATOM      1  S   UNL     1       3.174   5.388  18.975  0.00  0.00    +0.000 S 
ATOM      2  O   UNL     1       2.645   4.770  17.776  0.00  0.00    +0.000 OA
ATOM      3  O   UNL     1       3.030   4.742  20.266  0.00  0.00    +0.000 OA
ENDROOT
BRANCH   1   4
ATOM      4  C   UNL     1       2.435   7.000  19.104  0.00  0.00    +0.000 A 
ATOM      5  C   UNL     1       2.380   7.822  17.973  0.00  0.00    +0.000 A 
ATOM      6  C   UNL     1       1.763   9.071  18.059  0.00  0.00    +0.000 A 
ATOM      7  C   UNL     1       1.200   9.490  19.266  0.00  0.00    +0.000 A 
ATOM      8  C   UNL     1       1.246   8.653  20.382  0.00  0.00    +0.000 A 
ATOM      9 BR   UNL     1       0.462   9.219  22.007  0.00  0.00    +0.000 Br
ATOM     10  C   UNL     1       1.856   7.402  20.310  0.00  0.00    +0.000 A 
ENDBRANCH   1   4
BRANCH   1  11
ATOM     11  C   UNL     1       4.903   5.729  18.731  0.00  0.00    +0.000 C 
BRANCH  11  12
ATOM     12  C   UNL     1       5.583   4.503  18.139  0.00  0.00    +0.000 C 
BRANCH  12  18
ATOM     13  O   UNL     1       7.690   6.300  17.227  0.00  0.00    +0.000 OA
ATOM     14  C   UNL     1       7.106   5.552  16.461  0.00  0.00    +0.000 C 
ATOM     15  O   UNL     1       7.434   5.390  15.143  0.00  0.00    +0.000 OA
ATOM     16  C   UNL     1       6.464   4.517  14.548  0.00  0.00    +0.000 C 
ATOM     17  C   UNL     1       5.836   3.792  15.713  0.00  0.00    +0.000 C 
ATOM     18  N   UNL     1       6.070   4.710  16.784  0.00  0.00    +0.000 N 
ENDBRANCH  12  18
ENDBRANCH  11  12
ENDBRANCH   1  11
TORSDOF 4
ENDMDL
