MODEL 1
REMARK VINA RESULT:      -8.9      0.000      0.000
REMARK  Name = 
REMARK  9 active torsions:
REMARK  status: ('A' for Active; 'I' for Inactive)
REMARK    1  A    between atoms: C_1  and  C_2
REMARK    2  A    between atoms: C_2  and  C_3
REMARK    3  A    between atoms: C_3  and  S_4
REMARK    4  A    between atoms: S_4  and  N_7
REMARK    5  A    between atoms: N_7  and  C_8
REMARK    6  A    between atoms: C_13  and  C_14
REMARK    7  A    between atoms: C_14  and  C_16
REMARK    8  A    between atoms: C_22  and  C_23
REMARK    9  A    between atoms: C_26  and  C_27
REMARK                            x       y       z     vdW  Elec       q    Type
REMARK                         _______ _______ _______ _____ _____    ______ ____
ROOT
ATOM      1  C   UNL     1       1.387   8.833  19.681  0.00  0.00    +0.000 A 
ATOM      2  C   UNL     1       0.842   8.531  20.923  0.00  0.00    +0.000 A 
ATOM      3  N   UNL     1       1.284   7.290  21.305  0.00  0.00    +0.000 N 
ATOM      4  C   UNL     1       2.058   6.749  20.321  0.00  0.00    +0.000 A 
ATOM      5  N   UNL     1       2.617   5.531  20.384  0.00  0.00    +0.000 NA
ATOM      6  C   UNL     1       3.351   5.230  19.281  0.00  0.00    +0.000 A 
ATOM      7  C   UNL     1       3.578   6.047  18.166  0.00  0.00    +0.000 A 
ATOM      8  C   UNL     1       2.946   7.310  18.185  0.00  0.00    +0.000 A 
ATOM      9  C   UNL     1       2.154   7.680  19.293  0.00  0.00    +0.000 A 
ATOM     10  H   UNL     1       1.082   6.816  22.174  0.00  0.00    +0.000 HD
ENDROOT
BRANCH   7  11
ATOM     11  C   UNL     1       4.436   5.622  17.036  0.00  0.00    +0.000 A 
ATOM     12  C   UNL     1       4.616   4.269  16.704  0.00  0.00    +0.000 A 
ATOM     13  C   UNL     1       5.395   3.894  15.608  0.00  0.00    +0.000 A 
ATOM     14  C   UNL     1       6.000   4.891  14.862  0.00  0.00    +0.000 A 
ATOM     15  N   UNL     1       5.885   6.217  15.145  0.00  0.00    +0.000 NA
ATOM     16  C   UNL     1       5.108   6.536  16.212  0.00  0.00    +0.000 A 
BRANCH  14  17
ATOM     17  C   UNL     1       6.817   4.529  13.660  0.00  0.00    +0.000 C 
ATOM     18  N   UNL     1       7.894   5.336  13.417  0.00  0.00    +0.000 N 
ATOM     19  O   UNL     1       6.544   3.582  12.932  0.00  0.00    +0.000 OA
ATOM     20  H   UNL     1       8.075   6.125  14.028  0.00  0.00    +0.000 HD
ATOM     21  H   UNL     1       8.471   5.170  12.605  0.00  0.00    +0.000 HD
ENDBRANCH  14  17
ENDBRANCH   7  11
BRANCH   1  22
ATOM     22  C   UNL     1       1.197  10.067  18.906  0.00  0.00    +0.000 C 
ATOM     23  O   UNL     1       2.019  10.410  18.063  0.00  0.00    +0.000 OA
BRANCH  22  29
ATOM     24  C   UNL     1      -1.066  12.752  20.376  0.00  0.00    +0.000 A 
ATOM     25  C   UNL     1      -2.248  12.542  19.669  0.00  0.00    +0.000 A 
ATOM     26  C   UNL     1      -2.303  11.534  18.708  0.00  0.00    +0.000 A 
ATOM     27  C   UNL     1      -1.186  10.730  18.471  0.00  0.00    +0.000 A 
ATOM     28  F   UNL     1      -1.328   9.734  17.586  0.00  0.00    +0.000 F 
ATOM     29  C   UNL     1       0.018  10.935  19.147  0.00  0.00    +0.000 A 
ATOM     30  C   UNL     1       0.058  11.943  20.120  0.00  0.00    +0.000 A 
ATOM     31  F   UNL     1       1.184  12.195  20.808  0.00  0.00    +0.000 F 
BRANCH  24  32
ATOM     32  N   UNL     1      -1.049  13.748  21.417  0.00  0.00    +0.000 N 
ATOM     33  H   UNL     1      -0.119  14.168  21.533  0.00  0.00    +0.000 HD
BRANCH  32  34
ATOM     34  S   UNL     1      -1.505  13.201  22.968  0.00  0.00    +0.000 S 
ATOM     35  O   UNL     1      -0.734  14.008  23.890  0.00  0.00    +0.000 OA
ATOM     36  O   UNL     1      -1.476  11.755  23.001  0.00  0.00    +0.000 OA
BRANCH  34  37
ATOM     37  C   UNL     1      -3.219  13.742  23.058  0.00  0.00    +0.000 C 
BRANCH  37  39
ATOM     38  C   UNL     1      -4.536  12.389  24.753  0.00  0.00    +0.000 C 
ATOM     39  C   UNL     1      -3.737  13.657  24.493  0.00  0.00    +0.000 C 
ENDBRANCH  37  39
ENDBRANCH  34  37
ENDBRANCH  32  34
ENDBRANCH  24  32
ENDBRANCH  22  29
ENDBRANCH   1  22
TORSDOF 8
ENDMDL
MODEL 2
REMARK VINA RESULT:      -8.8      3.814     10.560
REMARK  Name = 
REMARK  9 active torsions:
REMARK  status: ('A' for Active; 'I' for Inactive)
REMARK    1  A    between atoms: C_1  and  C_2
REMARK    2  A    between atoms: C_2  and  C_3
REMARK    3  A    between atoms: C_3  and  S_4
REMARK    4  A    between atoms: S_4  and  N_7
REMARK    5  A    between atoms: N_7  and  C_8
REMARK    6  A    between atoms: C_13  and  C_14
REMARK    7  A    between atoms: C_14  and  C_16
REMARK    8  A    between atoms: C_22  and  C_23
REMARK    9  A    between atoms: C_26  and  C_27
REMARK                            x       y       z     vdW  Elec       q    Type
REMARK                         _______ _______ _______ _____ _____    ______ ____
ROOT
ATOM      1  C   UNL     1       2.254   7.646  18.973  0.00  0.00    +0.000 A 
ATOM      2  C   UNL     1       3.012   7.873  17.831  0.00  0.00    +0.000 A 
ATOM      3  N   UNL     1       2.809   9.166  17.420  0.00  0.00    +0.000 N 
ATOM      4  C   UNL     1       1.896   9.773  18.231  0.00  0.00    +0.000 A 
ATOM      5  N   UNL     1       1.465  11.033  18.073  0.00  0.00    +0.000 NA
ATOM      6  C   UNL     1       0.564  11.407  19.019  0.00  0.00    +0.000 A 
ATOM      7  C   UNL     1       0.097  10.638  20.092  0.00  0.00    +0.000 A 
ATOM      8  C   UNL     1       0.601   9.322  20.177  0.00  0.00    +0.000 A 
ATOM      9  C   UNL     1       1.528   8.863  19.216  0.00  0.00    +0.000 A 
ATOM     10  H   UNL     1       3.249   9.629  16.638  0.00  0.00    +0.000 HD
ENDROOT
BRANCH   7  11
ATOM     11  C   UNL     1      -0.861  11.171  21.089  0.00  0.00    +0.000 A 
ATOM     12  C   UNL     1      -0.816  10.797  22.442  0.00  0.00    +0.000 A 
ATOM     13  C   UNL     1      -1.701  11.346  23.371  0.00  0.00    +0.000 A 
ATOM     14  C   UNL     1      -2.639  12.262  22.921  0.00  0.00    +0.000 A 
ATOM     15  N   UNL     1      -2.750  12.647  21.622  0.00  0.00    +0.000 NA
ATOM     16  C   UNL     1      -1.860  12.097  20.756  0.00  0.00    +0.000 A 
BRANCH  14  17
ATOM     17  C   UNL     1      -3.585  12.895  23.894  0.00  0.00    +0.000 C 
ATOM     18  N   UNL     1      -4.450  12.037  24.515  0.00  0.00    +0.000 N 
ATOM     19  O   UNL     1      -3.597  14.099  24.120  0.00  0.00    +0.000 OA
ATOM     20  H   UNL     1      -4.426  11.050  24.285  0.00  0.00    +0.000 HD
ATOM     21  H   UNL     1      -5.138  12.400  25.160  0.00  0.00    +0.000 HD
ENDBRANCH  14  17
ENDBRANCH   7  11
BRANCH   1  22
ATOM     22  C   UNL     1       2.183   6.406  19.757  0.00  0.00    +0.000 C 
ATOM     23  O   UNL     1       1.593   6.377  20.833  0.00  0.00    +0.000 OA
BRANCH  22  29
ATOM     24  C   UNL     1       4.881   3.925  18.732  0.00  0.00    +0.000 A 
ATOM     25  C   UNL     1       4.119   2.848  18.285  0.00  0.00    +0.000 A 
ATOM     26  C   UNL     1       2.729   2.927  18.328  0.00  0.00    +0.000 A 
ATOM     27  C   UNL     1       2.107   4.086  18.799  0.00  0.00    +0.000 A 
ATOM     28  F   UNL     1       0.768   4.124  18.747  0.00  0.00    +0.000 F 
ATOM     29  C   UNL     1       2.847   5.169  19.276  0.00  0.00    +0.000 A 
ATOM     30  C   UNL     1       4.245   5.084  19.216  0.00  0.00    +0.000 A 
ATOM     31  F   UNL     1       5.018   6.089  19.658  0.00  0.00    +0.000 F 
BRANCH  24  32
ATOM     32  N   UNL     1       6.316   3.856  18.611  0.00  0.00    +0.000 N 
ATOM     33  H   UNL     1       6.790   4.141  19.476  0.00  0.00    +0.000 HD
BRANCH  32  34
ATOM     34  S   UNL     1       6.999   4.813  17.374  0.00  0.00    +0.000 S 
ATOM     35  O   UNL     1       5.883   5.184  16.531  0.00  0.00    +0.000 OA
ATOM     36  O   UNL     1       8.176   4.157  16.848  0.00  0.00    +0.000 OA
BRANCH  34  37
ATOM     37  C   UNL     1       7.517   6.275  18.286  0.00  0.00    +0.000 C 
BRANCH  37  39
ATOM     38  C   UNL     1       8.184   8.713  18.059  0.00  0.00    +0.000 C 
ATOM     39  C   UNL     1       7.686   7.467  17.343  0.00  0.00    +0.000 C 
ENDBRANCH  37  39
ENDBRANCH  34  37
ENDBRANCH  32  34
ENDBRANCH  24  32
ENDBRANCH  22  29
ENDBRANCH   1  22
TORSDOF 8
ENDMDL
MODEL 3
REMARK VINA RESULT:      -8.8      1.182      1.439
REMARK  Name = 
REMARK  9 active torsions:
REMARK  status: ('A' for Active; 'I' for Inactive)
REMARK    1  A    between atoms: C_1  and  C_2
REMARK    2  A    between atoms: C_2  and  C_3
REMARK    3  A    between atoms: C_3  and  S_4
REMARK    4  A    between atoms: S_4  and  N_7
REMARK    5  A    between atoms: N_7  and  C_8
REMARK    6  A    between atoms: C_13  and  C_14
REMARK    7  A    between atoms: C_14  and  C_16
REMARK    8  A    between atoms: C_22  and  C_23
REMARK    9  A    between atoms: C_26  and  C_27
REMARK                            x       y       z     vdW  Elec       q    Type
REMARK                         _______ _______ _______ _____ _____    ______ ____
ROOT
ATOM      1  C   UNL     1       1.128   9.076  19.788  0.00  0.00    +0.000 A 
ATOM      2  C   UNL     1       0.608   8.821  21.051  0.00  0.00    +0.000 A 
ATOM      3  N   UNL     1       1.097   7.617  21.491  0.00  0.00    +0.000 N 
ATOM      4  C   UNL     1       1.878   7.053  20.526  0.00  0.00    +0.000 A 
ATOM      5  N   UNL     1       2.480   5.860  20.644  0.00  0.00    +0.000 NA
ATOM      6  C   UNL     1       3.213   5.527  19.549  0.00  0.00    +0.000 A 
ATOM      7  C   UNL     1       3.399   6.292  18.390  0.00  0.00    +0.000 A 
ATOM      8  C   UNL     1       2.723   7.532  18.353  0.00  0.00    +0.000 A 
ATOM      9  C   UNL     1       1.930   7.931  19.450  0.00  0.00    +0.000 A 
ATOM     10  H   UNL     1       0.922   7.182  22.385  0.00  0.00    +0.000 HD
ENDROOT
BRANCH   7  11
ATOM     11  C   UNL     1       4.259   5.838  17.273  0.00  0.00    +0.000 A 
ATOM     12  C   UNL     1       4.466   4.477  16.997  0.00  0.00    +0.000 A 
ATOM     13  C   UNL     1       5.246   4.073  15.912  0.00  0.00    +0.000 A 
ATOM     14  C   UNL     1       5.824   5.051  15.120  0.00  0.00    +0.000 A 
ATOM     15  N   UNL     1       5.682   6.384  15.348  0.00  0.00    +0.000 NA
ATOM     16  C   UNL     1       4.905   6.731  16.406  0.00  0.00    +0.000 A 
BRANCH  14  17
ATOM     17  C   UNL     1       6.641   4.656  13.928  0.00  0.00    +0.000 C 
ATOM     18  N   UNL     1       6.308   3.458  13.359  0.00  0.00    +0.000 N 
ATOM     19  O   UNL     1       7.553   5.346  13.490  0.00  0.00    +0.000 OA
ATOM     20  H   UNL     1       5.562   2.902  13.764  0.00  0.00    +0.000 HD
ATOM     21  H   UNL     1       6.838   3.113  12.572  0.00  0.00    +0.000 HD
ENDBRANCH  14  17
ENDBRANCH   7  11
BRANCH   1  22
ATOM     22  C   UNL     1       0.886  10.261  18.953  0.00  0.00    +0.000 C 
ATOM     23  O   UNL     1       1.804  10.788  18.333  0.00  0.00    +0.000 OA
BRANCH  22  29
ATOM     24  C   UNL     1      -2.165  12.411  19.697  0.00  0.00    +0.000 A 
ATOM     25  C   UNL     1      -3.076  11.943  18.752  0.00  0.00    +0.000 A 
ATOM     26  C   UNL     1      -2.692  10.937  17.869  0.00  0.00    +0.000 A 
ATOM     27  C   UNL     1      -1.409  10.390  17.944  0.00  0.00    +0.000 A 
ATOM     28  F   UNL     1      -1.128   9.377  17.113  0.00  0.00    +0.000 F 
ATOM     29  C   UNL     1      -0.469  10.857  18.864  0.00  0.00    +0.000 A 
ATOM     30  C   UNL     1      -0.870  11.861  19.756  0.00  0.00    +0.000 A 
ATOM     31  F   UNL     1      -0.016  12.357  20.666  0.00  0.00    +0.000 F 
BRANCH  24  32
ATOM     32  N   UNL     1      -2.601  13.399  20.651  0.00  0.00    +0.000 N 
ATOM     33  H   UNL     1      -1.821  13.965  21.004  0.00  0.00    +0.000 HD
BRANCH  32  34
ATOM     34  S   UNL     1      -3.391  12.789  22.035  0.00  0.00    +0.000 S 
ATOM     35  O   UNL     1      -2.435  11.892  22.646  0.00  0.00    +0.000 OA
ATOM     36  O   UNL     1      -4.729  12.364  21.682  0.00  0.00    +0.000 OA
BRANCH  34  37
ATOM     37  C   UNL     1      -3.511  14.259  23.066  0.00  0.00    +0.000 C 
BRANCH  37  39
ATOM     38  C   UNL     1      -1.174  14.965  23.756  0.00  0.00    +0.000 C 
ATOM     39  C   UNL     1      -2.446  14.237  24.162  0.00  0.00    +0.000 C 
ENDBRANCH  37  39
ENDBRANCH  34  37
ENDBRANCH  32  34
ENDBRANCH  24  32
ENDBRANCH  22  29
ENDBRANCH   1  22
TORSDOF 8
ENDMDL
MODEL 4
REMARK VINA RESULT:      -8.7      2.537      3.952
REMARK  Name = 
REMARK  9 active torsions:
REMARK  status: ('A' for Active; 'I' for Inactive)
REMARK    1  A    between atoms: C_1  and  C_2
REMARK    2  A    between atoms: C_2  and  C_3
REMARK    3  A    between atoms: C_3  and  S_4
REMARK    4  A    between atoms: S_4  and  N_7
REMARK    5  A    between atoms: N_7  and  C_8
REMARK    6  A    between atoms: C_13  and  C_14
REMARK    7  A    between atoms: C_14  and  C_16
REMARK    8  A    between atoms: C_22  and  C_23
REMARK    9  A    between atoms: C_26  and  C_27
REMARK                            x       y       z     vdW  Elec       q    Type
REMARK                         _______ _______ _______ _____ _____    ______ ____
ROOT
ATOM      1  C   UNL     1       1.368   8.730  19.863  0.00  0.00    +0.000 A 
ATOM      2  C   UNL     1       0.794   8.376  21.078  0.00  0.00    +0.000 A 
ATOM      3  N   UNL     1       1.200   7.105  21.400  0.00  0.00    +0.000 N 
ATOM      4  C   UNL     1       1.979   6.600  20.401  0.00  0.00    +0.000 A 
ATOM      5  N   UNL     1       2.509   5.368  20.408  0.00  0.00    +0.000 NA
ATOM      6  C   UNL     1       3.257   5.108  19.303  0.00  0.00    +0.000 A 
ATOM      7  C   UNL     1       3.523   5.978  18.238  0.00  0.00    +0.000 A 
ATOM      8  C   UNL     1       2.919   7.253  18.314  0.00  0.00    +0.000 A 
ATOM      9  C   UNL     1       2.115   7.582  19.426  0.00  0.00    +0.000 A 
ATOM     10  H   UNL     1       0.971   6.591  22.238  0.00  0.00    +0.000 HD
ENDROOT
BRANCH   7  11
ATOM     11  C   UNL     1       4.392   5.593  17.102  0.00  0.00    +0.000 A 
ATOM     12  C   UNL     1       4.608   4.251  16.749  0.00  0.00    +0.000 A 
ATOM     13  C   UNL     1       5.396   3.914  15.648  0.00  0.00    +0.000 A 
ATOM     14  C   UNL     1       5.973   4.939  14.916  0.00  0.00    +0.000 A 
ATOM     15  N   UNL     1       5.823   6.256  15.219  0.00  0.00    +0.000 NA
ATOM     16  C   UNL     1       5.038   6.538  16.291  0.00  0.00    +0.000 A 
BRANCH  14  17
ATOM     17  C   UNL     1       6.800   4.617  13.709  0.00  0.00    +0.000 C 
ATOM     18  N   UNL     1       6.451   3.472  13.047  0.00  0.00    +0.000 N 
ATOM     19  O   UNL     1       7.732   5.318  13.337  0.00  0.00    +0.000 OA
ATOM     20  H   UNL     1       5.688   2.904  13.399  0.00  0.00    +0.000 HD
ATOM     21  H   UNL     1       6.985   3.177  12.243  0.00  0.00    +0.000 HD
ENDBRANCH  14  17
ENDBRANCH   7  11
BRANCH   1  22
ATOM     22  C   UNL     1       1.220  10.008  19.153  0.00  0.00    +0.000 C 
ATOM     23  O   UNL     1       2.086  10.397  18.376  0.00  0.00    +0.000 OA
BRANCH  22  29
ATOM     24  C   UNL     1      -2.056  11.858  18.578  0.00  0.00    +0.000 A 
ATOM     25  C   UNL     1      -2.199  12.557  19.774  0.00  0.00    +0.000 A 
ATOM     26  C   UNL     1      -1.234  12.417  20.769  0.00  0.00    +0.000 A 
ATOM     27  C   UNL     1      -0.124  11.595  20.559  0.00  0.00    +0.000 A 
ATOM     28  F   UNL     1       0.801  11.561  21.528  0.00  0.00    +0.000 F 
ATOM     29  C   UNL     1       0.030  10.865  19.380  0.00  0.00    +0.000 A 
ATOM     30  C   UNL     1      -0.940  11.023  18.381  0.00  0.00    +0.000 A 
ATOM     31  F   UNL     1      -0.854  10.349  17.222  0.00  0.00    +0.000 F 
BRANCH  24  32
ATOM     32  N   UNL     1      -3.024  12.071  17.531  0.00  0.00    +0.000 N 
ATOM     33  H   UNL     1      -3.535  12.953  17.653  0.00  0.00    +0.000 HD
BRANCH  32  34
ATOM     34  S   UNL     1      -4.219  10.862  17.375  0.00  0.00    +0.000 S 
ATOM     35  O   UNL     1      -5.449  11.497  17.796  0.00  0.00    +0.000 OA
ATOM     36  O   UNL     1      -3.745   9.631  17.969  0.00  0.00    +0.000 OA
BRANCH  34  37
ATOM     37  C   UNL     1      -4.290  10.645  15.590  0.00  0.00    +0.000 C 
BRANCH  37  39
ATOM     38  C   UNL     1      -2.876   9.816  13.653  0.00  0.00    +0.000 C 
ATOM     39  C   UNL     1      -3.225   9.653  15.124  0.00  0.00    +0.000 C 
ENDBRANCH  37  39
ENDBRANCH  34  37
ENDBRANCH  32  34
ENDBRANCH  24  32
ENDBRANCH  22  29
ENDBRANCH   1  22
TORSDOF 8
ENDMDL
MODEL 5
REMARK VINA RESULT:      -8.6      2.590      3.406
REMARK  Name = 
REMARK  9 active torsions:
REMARK  status: ('A' for Active; 'I' for Inactive)
REMARK    1  A    between atoms: C_1  and  C_2
REMARK    2  A    between atoms: C_2  and  C_3
REMARK    3  A    between atoms: C_3  and  S_4
REMARK    4  A    between atoms: S_4  and  N_7
REMARK    5  A    between atoms: N_7  and  C_8
REMARK    6  A    between atoms: C_13  and  C_14
REMARK    7  A    between atoms: C_14  and  C_16
REMARK    8  A    between atoms: C_22  and  C_23
REMARK    9  A    between atoms: C_26  and  C_27
REMARK                            x       y       z     vdW  Elec       q    Type
REMARK                         _______ _______ _______ _____ _____    ______ ____
ROOT
ATOM      1  C   UNL     1       1.542   8.529  19.705  0.00  0.00    +0.000 A 
ATOM      2  C   UNL     1       1.009   8.171  20.937  0.00  0.00    +0.000 A 
ATOM      3  N   UNL     1       1.454   6.914  21.259  0.00  0.00    +0.000 N 
ATOM      4  C   UNL     1       2.218   6.419  20.244  0.00  0.00    +0.000 A 
ATOM      5  N   UNL     1       2.778   5.199  20.247  0.00  0.00    +0.000 NA
ATOM      6  C   UNL     1       3.502   4.948  19.125  0.00  0.00    +0.000 A 
ATOM      7  C   UNL     1       3.719   5.815  18.046  0.00  0.00    +0.000 A 
ATOM      8  C   UNL     1       3.087   7.075  18.128  0.00  0.00    +0.000 A 
ATOM      9  C   UNL     1       2.305   7.395  19.258  0.00  0.00    +0.000 A 
ATOM     10  H   UNL     1       1.260   6.402  22.107  0.00  0.00    +0.000 HD
ENDROOT
BRANCH   7  11
ATOM     11  C   UNL     1       4.567   5.441  16.890  0.00  0.00    +0.000 A 
ATOM     12  C   UNL     1       4.854   4.102  16.578  0.00  0.00    +0.000 A 
ATOM     13  C   UNL     1       5.619   3.772  15.458  0.00  0.00    +0.000 A 
ATOM     14  C   UNL     1       6.103   4.801  14.668  0.00  0.00    +0.000 A 
ATOM     15  N   UNL     1       5.881   6.118  14.929  0.00  0.00    +0.000 NA
ATOM     16  C   UNL     1       5.121   6.391  16.021  0.00  0.00    +0.000 A 
BRANCH  14  17
ATOM     17  C   UNL     1       6.901   4.485  13.441  0.00  0.00    +0.000 C 
ATOM     18  N   UNL     1       6.587   3.305  12.825  0.00  0.00    +0.000 N 
ATOM     19  O   UNL     1       7.783   5.220  13.014  0.00  0.00    +0.000 OA
ATOM     20  H   UNL     1       5.868   2.710  13.220  0.00  0.00    +0.000 HD
ATOM     21  H   UNL     1       7.108   3.012  12.010  0.00  0.00    +0.000 HD
ENDBRANCH  14  17
ENDBRANCH   7  11
BRANCH   1  22
ATOM     22  C   UNL     1       1.345   9.796  18.988  0.00  0.00    +0.000 C 
ATOM     23  O   UNL     1       2.153  10.171  18.145  0.00  0.00    +0.000 OA
BRANCH  22  29
ATOM     24  C   UNL     1      -1.921  11.711  18.598  0.00  0.00    +0.000 A 
ATOM     25  C   UNL     1      -2.013  12.365  19.825  0.00  0.00    +0.000 A 
ATOM     26  C   UNL     1      -1.017  12.174  20.780  0.00  0.00    +0.000 A 
ATOM     27  C   UNL     1       0.073  11.346  20.500  0.00  0.00    +0.000 A 
ATOM     28  F   UNL     1       1.030  11.262  21.434  0.00  0.00    +0.000 F 
ATOM     29  C   UNL     1       0.176  10.660  19.290  0.00  0.00    +0.000 A 
ATOM     30  C   UNL     1      -0.824  10.869  18.331  0.00  0.00    +0.000 A 
ATOM     31  F   UNL     1      -0.788  10.240  17.145  0.00  0.00    +0.000 F 
BRANCH  24  32
ATOM     32  N   UNL     1      -2.921  11.977  17.594  0.00  0.00    +0.000 N 
ATOM     33  H   UNL     1      -3.398  12.872  17.753  0.00  0.00    +0.000 HD
BRANCH  32  34
ATOM     34  S   UNL     1      -4.160  10.812  17.461  0.00  0.00    +0.000 S 
ATOM     35  O   UNL     1      -3.582   9.590  17.977  0.00  0.00    +0.000 OA
ATOM     36  O   UNL     1      -4.755  10.885  16.144  0.00  0.00    +0.000 OA
BRANCH  34  37
ATOM     37  C   UNL     1      -5.357  11.410  18.664  0.00  0.00    +0.000 C 
BRANCH  37  39
ATOM     38  C   UNL     1      -7.204  12.861  17.704  0.00  0.00    +0.000 C 
ATOM     39  C   UNL     1      -6.759  11.450  18.057  0.00  0.00    +0.000 C 
ENDBRANCH  37  39
ENDBRANCH  34  37
ENDBRANCH  32  34
ENDBRANCH  24  32
ENDBRANCH  22  29
ENDBRANCH   1  22
TORSDOF 8
ENDMDL
MODEL 6
REMARK VINA RESULT:      -8.4      3.769     10.643
REMARK  Name = 
REMARK  9 active torsions:
REMARK  status: ('A' for Active; 'I' for Inactive)
REMARK    1  A    between atoms: C_1  and  C_2
REMARK    2  A    between atoms: C_2  and  C_3
REMARK    3  A    between atoms: C_3  and  S_4
REMARK    4  A    between atoms: S_4  and  N_7
REMARK    5  A    between atoms: N_7  and  C_8
REMARK    6  A    between atoms: C_13  and  C_14
REMARK    7  A    between atoms: C_14  and  C_16
REMARK    8  A    between atoms: C_22  and  C_23
REMARK    9  A    between atoms: C_26  and  C_27
REMARK                            x       y       z     vdW  Elec       q    Type
REMARK                         _______ _______ _______ _____ _____    ______ ____
ROOT
ATOM      1  C   UNL     1       2.118   7.654  19.148  0.00  0.00    +0.000 A 
ATOM      2  C   UNL     1       2.852   7.846  17.984  0.00  0.00    +0.000 A 
ATOM      3  N   UNL     1       2.634   9.124  17.534  0.00  0.00    +0.000 N 
ATOM      4  C   UNL     1       1.734   9.753  18.343  0.00  0.00    +0.000 A 
ATOM      5  N   UNL     1       1.294  11.006  18.151  0.00  0.00    +0.000 NA
ATOM      6  C   UNL     1       0.410  11.406  19.102  0.00  0.00    +0.000 A 
ATOM      7  C   UNL     1      -0.031  10.672  20.211  0.00  0.00    +0.000 A 
ATOM      8  C   UNL     1       0.482   9.362  20.329  0.00  0.00    +0.000 A 
ATOM      9  C   UNL     1       1.391   8.875  19.365  0.00  0.00    +0.000 A 
ATOM     10  H   UNL     1       3.055   9.562  16.728  0.00  0.00    +0.000 HD
ENDROOT
BRANCH   7  11
ATOM     11  C   UNL     1      -0.971  11.235  21.208  0.00  0.00    +0.000 A 
ATOM     12  C   UNL     1      -1.889  12.247  20.880  0.00  0.00    +0.000 A 
ATOM     13  C   UNL     1      -2.794  12.731  21.825  0.00  0.00    +0.000 A 
ATOM     14  C   UNL     1      -2.757  12.197  23.103  0.00  0.00    +0.000 A 
ATOM     15  N   UNL     1      -1.878  11.234  23.490  0.00  0.00    +0.000 NA
ATOM     16  C   UNL     1      -1.024  10.784  22.534  0.00  0.00    +0.000 A 
BRANCH  14  17
ATOM     17  C   UNL     1      -3.734  12.670  24.135  0.00  0.00    +0.000 C 
ATOM     18  N   UNL     1      -3.830  14.027  24.275  0.00  0.00    +0.000 N 
ATOM     19  O   UNL     1      -4.401  11.903  24.818  0.00  0.00    +0.000 OA
ATOM     20  H   UNL     1      -3.245  14.630  23.707  0.00  0.00    +0.000 HD
ATOM     21  H   UNL     1      -4.446  14.415  24.975  0.00  0.00    +0.000 HD
ENDBRANCH  14  17
ENDBRANCH   7  11
BRANCH   1  22
ATOM     22  C   UNL     1       2.070   6.441  19.976  0.00  0.00    +0.000 C 
ATOM     23  O   UNL     1       1.494   6.444  21.059  0.00  0.00    +0.000 OA
BRANCH  22  29
ATOM     24  C   UNL     1       4.766   3.987  18.881  0.00  0.00    +0.000 A 
ATOM     25  C   UNL     1       4.014   2.849  18.598  0.00  0.00    +0.000 A 
ATOM     26  C   UNL     1       2.632   2.880  18.773  0.00  0.00    +0.000 A 
ATOM     27  C   UNL     1       2.007   4.049  19.213  0.00  0.00    +0.000 A 
ATOM     28  F   UNL     1       0.669   4.033  19.292  0.00  0.00    +0.000 F 
ATOM     29  C   UNL     1       2.740   5.195  19.527  0.00  0.00    +0.000 A 
ATOM     30  C   UNL     1       4.127   5.157  19.335  0.00  0.00    +0.000 A 
ATOM     31  F   UNL     1       4.893   6.223  19.618  0.00  0.00    +0.000 F 
BRANCH  24  32
ATOM     32  N   UNL     1       6.184   3.962  18.623  0.00  0.00    +0.000 N 
ATOM     33  H   UNL     1       6.701   4.592  19.249  0.00  0.00    +0.000 HD
BRANCH  32  34
ATOM     34  S   UNL     1       6.653   4.397  17.041  0.00  0.00    +0.000 S 
ATOM     35  O   UNL     1       5.713   3.722  16.174  0.00  0.00    +0.000 OA
ATOM     36  O   UNL     1       8.084   4.237  16.898  0.00  0.00    +0.000 OA
BRANCH  34  37
ATOM     37  C   UNL     1       6.269   6.155  17.015  0.00  0.00    +0.000 C 
BRANCH  37  39
ATOM     38  C   UNL     1       8.004   6.943  18.690  0.00  0.00    +0.000 C 
ATOM     39  C   UNL     1       7.530   6.987  17.246  0.00  0.00    +0.000 C 
ENDBRANCH  37  39
ENDBRANCH  34  37
ENDBRANCH  32  34
ENDBRANCH  24  32
ENDBRANCH  22  29
ENDBRANCH   1  22
TORSDOF 8
ENDMDL
MODEL 7
REMARK VINA RESULT:      -8.4      3.704     10.798
REMARK  Name = 
REMARK  9 active torsions:
REMARK  status: ('A' for Active; 'I' for Inactive)
REMARK    1  A    between atoms: C_1  and  C_2
REMARK    2  A    between atoms: C_2  and  C_3
REMARK    3  A    between atoms: C_3  and  S_4
REMARK    4  A    between atoms: S_4  and  N_7
REMARK    5  A    between atoms: N_7  and  C_8
REMARK    6  A    between atoms: C_13  and  C_14
REMARK    7  A    between atoms: C_14  and  C_16
REMARK    8  A    between atoms: C_22  and  C_23
REMARK    9  A    between atoms: C_26  and  C_27
REMARK                            x       y       z     vdW  Elec       q    Type
REMARK                         _______ _______ _______ _____ _____    ______ ____
ROOT
ATOM      1  C   UNL     1       2.203   7.668  19.102  0.00  0.00    +0.000 A 
ATOM      2  C   UNL     1       2.961   7.878  17.956  0.00  0.00    +0.000 A 
ATOM      3  N   UNL     1       2.735   9.155  17.508  0.00  0.00    +0.000 N 
ATOM      4  C   UNL     1       1.807   9.766  18.299  0.00  0.00    +0.000 A 
ATOM      5  N   UNL     1       1.354  11.014  18.103  0.00  0.00    +0.000 NA
ATOM      6  C   UNL     1       0.443  11.396  19.036  0.00  0.00    +0.000 A 
ATOM      7  C   UNL     1      -0.014  10.650  20.130  0.00  0.00    +0.000 A 
ATOM      8  C   UNL     1       0.515   9.346  20.253  0.00  0.00    +0.000 A 
ATOM      9  C   UNL     1       1.453   8.878  19.308  0.00  0.00    +0.000 A 
ATOM     10  H   UNL     1       3.169   9.603  16.714  0.00  0.00    +0.000 HD
ENDROOT
BRANCH   7  11
ATOM     11  C   UNL     1      -0.985  11.193  21.107  0.00  0.00    +0.000 A 
ATOM     12  C   UNL     1      -0.851  10.978  22.489  0.00  0.00    +0.000 A 
ATOM     13  C   UNL     1      -1.755  11.536  23.395  0.00  0.00    +0.000 A 
ATOM     14  C   UNL     1      -2.798  12.299  22.896  0.00  0.00    +0.000 A 
ATOM     15  N   UNL     1      -2.996  12.524  21.569  0.00  0.00    +0.000 NA
ATOM     16  C   UNL     1      -2.086  11.972  20.725  0.00  0.00    +0.000 A 
BRANCH  14  17
ATOM     17  C   UNL     1      -3.768  12.940  23.839  0.00  0.00    +0.000 C 
ATOM     18  N   UNL     1      -5.086  12.657  23.607  0.00  0.00    +0.000 N 
ATOM     19  O   UNL     1      -3.418  13.675  24.754  0.00  0.00    +0.000 OA
ATOM     20  H   UNL     1      -5.340  12.063  22.826  0.00  0.00    +0.000 HD
ATOM     21  H   UNL     1      -5.798  13.081  24.185  0.00  0.00    +0.000 HD
ENDBRANCH  14  17
ENDBRANCH   7  11
BRANCH   1  22
ATOM     22  C   UNL     1       2.154   6.450  19.921  0.00  0.00    +0.000 C 
ATOM     23  O   UNL     1       1.585   6.449  21.008  0.00  0.00    +0.000 OA
BRANCH  22  29
ATOM     24  C   UNL     1       4.836   3.965  18.866  0.00  0.00    +0.000 A 
ATOM     25  C   UNL     1       4.070   2.858  18.506  0.00  0.00    +0.000 A 
ATOM     26  C   UNL     1       2.682   2.920  18.618  0.00  0.00    +0.000 A 
ATOM     27  C   UNL     1       2.066   4.089  19.069  0.00  0.00    +0.000 A 
ATOM     28  F   UNL     1       0.727   4.106  19.085  0.00  0.00    +0.000 F 
ATOM     29  C   UNL     1       2.812   5.203  19.460  0.00  0.00    +0.000 A 
ATOM     30  C   UNL     1       4.206   5.135  19.332  0.00  0.00    +0.000 A 
ATOM     31  F   UNL     1       4.984   6.169  19.689  0.00  0.00    +0.000 F 
BRANCH  24  32
ATOM     32  N   UNL     1       6.264   3.911  18.675  0.00  0.00    +0.000 N 
ATOM     33  H   UNL     1       6.773   4.374  19.437  0.00  0.00    +0.000 HD
BRANCH  32  34
ATOM     34  S   UNL     1       6.842   4.622  17.235  0.00  0.00    +0.000 S 
ATOM     35  O   UNL     1       8.203   4.149  17.105  0.00  0.00    +0.000 OA
ATOM     36  O   UNL     1       6.512   6.031  17.224  0.00  0.00    +0.000 OA
BRANCH  34  37
ATOM     37  C   UNL     1       5.845   3.791  15.989  0.00  0.00    +0.000 C 
BRANCH  37  39
ATOM     38  C   UNL     1       6.967   4.814  13.956  0.00  0.00    +0.000 C 
ATOM     39  C   UNL     1       5.679   4.674  14.753  0.00  0.00    +0.000 C 
ENDBRANCH  37  39
ENDBRANCH  34  37
ENDBRANCH  32  34
ENDBRANCH  24  32
ENDBRANCH  22  29
ENDBRANCH   1  22
TORSDOF 8
ENDMDL
MODEL 8
REMARK VINA RESULT:      -8.3      1.325      1.426
REMARK  Name = 
REMARK  9 active torsions:
REMARK  status: ('A' for Active; 'I' for Inactive)
REMARK    1  A    between atoms: C_1  and  C_2
REMARK    2  A    between atoms: C_2  and  C_3
REMARK    3  A    between atoms: C_3  and  S_4
REMARK    4  A    between atoms: S_4  and  N_7
REMARK    5  A    between atoms: N_7  and  C_8
REMARK    6  A    between atoms: C_13  and  C_14
REMARK    7  A    between atoms: C_14  and  C_16
REMARK    8  A    between atoms: C_22  and  C_23
REMARK    9  A    between atoms: C_26  and  C_27
REMARK                            x       y       z     vdW  Elec       q    Type
REMARK                         _______ _______ _______ _____ _____    ______ ____
ROOT
ATOM      1  C   UNL     1       1.348   8.750  19.694  0.00  0.00    +0.000 A 
ATOM      2  C   UNL     1       0.824   8.441  20.943  0.00  0.00    +0.000 A 
ATOM      3  N   UNL     1       1.299   7.212  21.325  0.00  0.00    +0.000 N 
ATOM      4  C   UNL     1       2.075   6.686  20.336  0.00  0.00    +0.000 A 
ATOM      5  N   UNL     1       2.664   5.482  20.398  0.00  0.00    +0.000 NA
ATOM      6  C   UNL     1       3.395   5.193  19.289  0.00  0.00    +0.000 A 
ATOM      7  C   UNL     1       3.591   6.010  18.168  0.00  0.00    +0.000 A 
ATOM      8  C   UNL     1       2.929   7.258  18.189  0.00  0.00    +0.000 A 
ATOM      9  C   UNL     1       2.139   7.614  19.303  0.00  0.00    +0.000 A 
ATOM     10  H   UNL     1       1.117   6.738  22.198  0.00  0.00    +0.000 HD
ENDROOT
BRANCH   7  11
ATOM     11  C   UNL     1       4.447   5.601  17.032  0.00  0.00    +0.000 A 
ATOM     12  C   UNL     1       4.644   4.251  16.695  0.00  0.00    +0.000 A 
ATOM     13  C   UNL     1       5.421   3.890  15.593  0.00  0.00    +0.000 A 
ATOM     14  C   UNL     1       6.007   4.898  14.845  0.00  0.00    +0.000 A 
ATOM     15  N   UNL     1       5.875   6.221  15.133  0.00  0.00    +0.000 NA
ATOM     16  C   UNL     1       5.101   6.526  16.206  0.00  0.00    +0.000 A 
BRANCH  14  17
ATOM     17  C   UNL     1       6.822   4.551  13.637  0.00  0.00    +0.000 C 
ATOM     18  N   UNL     1       7.906   5.353  13.410  0.00  0.00    +0.000 N 
ATOM     19  O   UNL     1       6.540   3.621  12.892  0.00  0.00    +0.000 OA
ATOM     20  H   UNL     1       8.094   6.128  14.036  0.00  0.00    +0.000 HD
ATOM     21  H   UNL     1       8.482   5.196  12.595  0.00  0.00    +0.000 HD
ENDBRANCH  14  17
ENDBRANCH   7  11
BRANCH   1  22
ATOM     22  C   UNL     1       1.121   9.975  18.916  0.00  0.00    +0.000 C 
ATOM     23  O   UNL     1       1.983  10.403  18.154  0.00  0.00    +0.000 OA
BRANCH  22  29
ATOM     24  C   UNL     1      -1.554  12.311  20.287  0.00  0.00    +0.000 A 
ATOM     25  C   UNL     1      -2.588  12.122  19.373  0.00  0.00    +0.000 A 
ATOM     26  C   UNL     1      -2.409  11.242  18.307  0.00  0.00    +0.000 A 
ATOM     27  C   UNL     1      -1.208  10.543  18.168  0.00  0.00    +0.000 A 
ATOM     28  F   UNL     1      -1.128   9.661  17.163  0.00  0.00    +0.000 F 
ATOM     29  C   UNL     1      -0.147  10.733  19.055  0.00  0.00    +0.000 A 
ATOM     30  C   UNL     1      -0.342  11.610  20.131  0.00  0.00    +0.000 A 
ATOM     31  F   UNL     1       0.637  11.840  21.021  0.00  0.00    +0.000 F 
BRANCH  24  32
ATOM     32  N   UNL     1      -1.781  13.166  21.424  0.00  0.00    +0.000 N 
ATOM     33  H   UNL     1      -2.667  12.951  21.897  0.00  0.00    +0.000 HD
BRANCH  32  34
ATOM     34  S   UNL     1      -1.831  14.839  21.089  0.00  0.00    +0.000 S 
ATOM     35  O   UNL     1      -3.239  15.164  21.020  0.00  0.00    +0.000 OA
ATOM     36  O   UNL     1      -0.917  15.146  20.011  0.00  0.00    +0.000 OA
BRANCH  34  37
ATOM     37  C   UNL     1      -1.175  15.537  22.612  0.00  0.00    +0.000 C 
BRANCH  37  39
ATOM     38  C   UNL     1      -2.493  14.839  24.665  0.00  0.00    +0.000 C 
ATOM     39  C   UNL     1      -1.305  14.540  23.763  0.00  0.00    +0.000 C 
ENDBRANCH  37  39
ENDBRANCH  34  37
ENDBRANCH  32  34
ENDBRANCH  24  32
ENDBRANCH  22  29
ENDBRANCH   1  22
TORSDOF 8
ENDMDL
MODEL 9
REMARK VINA RESULT:      -8.3      2.520      4.059
REMARK  Name = 
REMARK  9 active torsions:
REMARK  status: ('A' for Active; 'I' for Inactive)
REMARK    1  A    between atoms: C_1  and  C_2
REMARK    2  A    between atoms: C_2  and  C_3
REMARK    3  A    between atoms: C_3  and  S_4
REMARK    4  A    between atoms: S_4  and  N_7
REMARK    5  A    between atoms: N_7  and  C_8
REMARK    6  A    between atoms: C_13  and  C_14
REMARK    7  A    between atoms: C_14  and  C_16
REMARK    8  A    between atoms: C_22  and  C_23
REMARK    9  A    between atoms: C_26  and  C_27
REMARK                            x       y       z     vdW  Elec       q    Type
REMARK                         _______ _______ _______ _____ _____    ______ ____
ROOT
ATOM      1  C   UNL     1       1.194   8.921  20.115  0.00  0.00    +0.000 A 
ATOM      2  C   UNL     1       0.645   8.557  21.339  0.00  0.00    +0.000 A 
ATOM      3  N   UNL     1       1.050   7.281  21.638  0.00  0.00    +0.000 N 
ATOM      4  C   UNL     1       1.803   6.782  20.617  0.00  0.00    +0.000 A 
ATOM      5  N   UNL     1       2.326   5.546  20.599  0.00  0.00    +0.000 NA
ATOM      6  C   UNL     1       3.046   5.294  19.475  0.00  0.00    +0.000 A 
ATOM      7  C   UNL     1       3.293   6.173  18.413  0.00  0.00    +0.000 A 
ATOM      8  C   UNL     1       2.700   7.451  18.516  0.00  0.00    +0.000 A 
ATOM      9  C   UNL     1       1.923   7.773  19.650  0.00  0.00    +0.000 A 
ATOM     10  H   UNL     1       0.838   6.760  22.477  0.00  0.00    +0.000 HD
ENDROOT
BRANCH   7  11
ATOM     11  C   UNL     1       4.134   5.795  17.253  0.00  0.00    +0.000 A 
ATOM     12  C   UNL     1       4.653   6.752  16.366  0.00  0.00    +0.000 A 
ATOM     13  C   UNL     1       5.479   6.376  15.304  0.00  0.00    +0.000 A 
ATOM     14  C   UNL     1       5.762   5.031  15.139  0.00  0.00    +0.000 A 
ATOM     15  N   UNL     1       5.271   4.054  15.948  0.00  0.00    +0.000 NA
ATOM     16  C   UNL     1       4.483   4.466  16.974  0.00  0.00    +0.000 A 
BRANCH  14  17
ATOM     17  C   UNL     1       6.670   4.593  14.031  0.00  0.00    +0.000 C 
ATOM     18  N   UNL     1       7.817   5.324  13.888  0.00  0.00    +0.000 N 
ATOM     19  O   UNL     1       6.408   3.652  13.291  0.00  0.00    +0.000 OA
ATOM     20  H   UNL     1       7.988   6.111  14.504  0.00  0.00    +0.000 HD
ATOM     21  H   UNL     1       8.460   5.105  13.140  0.00  0.00    +0.000 HD
ENDBRANCH  14  17
ENDBRANCH   7  11
BRANCH   1  22
ATOM     22  C   UNL     1       1.038  10.207  19.422  0.00  0.00    +0.000 C 
ATOM     23  O   UNL     1       1.938  10.652  18.718  0.00  0.00    +0.000 OA
BRANCH  22  29
ATOM     24  C   UNL     1      -2.277  11.912  18.652  0.00  0.00    +0.000 A 
ATOM     25  C   UNL     1      -2.532  12.585  19.845  0.00  0.00    +0.000 A 
ATOM     26  C   UNL     1      -1.630  12.473  20.901  0.00  0.00    +0.000 A 
ATOM     27  C   UNL     1      -0.471  11.707  20.755  0.00  0.00    +0.000 A 
ATOM     28  F   UNL     1       0.388  11.700  21.784  0.00  0.00    +0.000 F 
ATOM     29  C   UNL     1      -0.204  11.004  19.580  0.00  0.00    +0.000 A 
ATOM     30  C   UNL     1      -1.111  11.133  18.519  0.00  0.00    +0.000 A 
ATOM     31  F   UNL     1      -0.916  10.484  17.361  0.00  0.00    +0.000 F 
BRANCH  24  32
ATOM     32  N   UNL     1      -3.181  12.098  17.545  0.00  0.00    +0.000 N 
ATOM     33  H   UNL     1      -3.766  12.933  17.661  0.00  0.00    +0.000 HD
BRANCH  32  34
ATOM     34  S   UNL     1      -4.266  10.812  17.256  0.00  0.00    +0.000 S 
ATOM     35  O   UNL     1      -5.565  11.330  17.624  0.00  0.00    +0.000 OA
ATOM     36  O   UNL     1      -3.735   9.592  17.825  0.00  0.00    +0.000 OA
BRANCH  34  37
ATOM     37  C   UNL     1      -4.209  10.680  15.463  0.00  0.00    +0.000 C 
BRANCH  37  39
ATOM     38  C   UNL     1      -2.902   9.724  13.508  0.00  0.00    +0.000 C 
ATOM     39  C   UNL     1      -2.979   9.889  15.018  0.00  0.00    +0.000 C 
ENDBRANCH  37  39
ENDBRANCH  34  37
ENDBRANCH  32  34
ENDBRANCH  24  32
ENDBRANCH  22  29
ENDBRANCH   1  22
TORSDOF 8
ENDMDL
