MODEL 1
REMARK VINA RESULT:      -7.9      0.000      0.000
REMARK  Name = 
REMARK  12 active torsions:
REMARK  status: ('A' for Active; 'I' for Inactive)
REMARK    1  A    between atoms: C_1  and  O_2
REMARK    2  A    between atoms: O_2  and  C_3
REMARK    3  A    between atoms: C_4  and  N_5
REMARK    4  A    between atoms: C_8  and  O_9
REMARK    5  A    between atoms: O_9  and  C_10
REMARK    6  A    between atoms: C_13  and  C_14
REMARK    7  A    between atoms: C_14  and  C_15
REMARK    8  A    between atoms: C_14  and  N_16
REMARK    9  A    between atoms: C_17  and  C_18
REMARK   10  A    between atoms: C_26  and  O_27
REMARK   11  A    between atoms: O_27  and  C_28
REMARK   12  A    between atoms: C_28  and  C_29
REMARK                            x       y       z     vdW  Elec       q    Type
REMARK                         _______ _______ _______ _____ _____    ______ ____
ROOT
ATOM      1  N   UNL     1       4.258   5.652  19.604  0.00  0.00    +0.000 N 
ATOM      2  C   UNL     1       3.339   4.606  20.098  0.00  0.00    +0.000 C 
ATOM      3  C   UNL     1       1.970   4.970  19.529  0.00  0.00    +0.000 C 
ATOM      4  C   UNL     1       1.981   6.488  19.577  0.00  0.00    +0.000 C 
ATOM      5  C   UNL     1       3.426   6.805  19.155  0.00  0.00    +0.000 C 
ENDROOT
BRANCH   1   7
ATOM      6  C   UNL     1       5.065   4.513  17.533  0.00  0.00    +0.000 A 
ATOM      7  C   UNL     1       5.282   5.286  18.703  0.00  0.00    +0.000 A 
ATOM      8  C   UNL     1       6.607   5.710  18.939  0.00  0.00    +0.000 A 
ATOM      9  C   UNL     1       7.624   5.375  18.061  0.00  0.00    +0.000 A 
ATOM     10  N   UNL     1       7.447   4.606  16.980  0.00  0.00    +0.000 NA
ATOM     11  C   UNL     1       6.184   4.190  16.735  0.00  0.00    +0.000 A 
BRANCH   6  13
ATOM     12  C   UNL     1       3.395   2.817  17.276  0.00  0.00    +0.000 C 
ATOM     13  O   UNL     1       3.867   4.113  16.995  0.00  0.00    +0.000 OA
ENDBRANCH   6  13
BRANCH  11  14
ATOM     14  O   UNL     1       5.982   3.398  15.610  0.00  0.00    +0.000 OA
BRANCH  14  15
ATOM     15  C   UNL     1       6.122   4.146  14.398  0.00  0.00    +0.000 C 
BRANCH  15  16
ATOM     16  C   UNL     1       6.035   3.222  13.226  0.00  0.00    +0.000 C 
ATOM     17  C   UNL     1       5.315   3.625  11.955  0.00  0.00    +0.000 C 
ATOM     18  C   UNL     1       6.798   3.565  12.001  0.00  0.00    +0.000 C 
ATOM     19  F   UNL     1       7.472   2.596  11.297  0.00  0.00    +0.000 F 
ATOM     20  F   UNL     1       7.532   4.725  11.909  0.00  0.00    +0.000 F 
ENDBRANCH  15  16
ENDBRANCH  14  15
ENDBRANCH  11  14
ENDBRANCH   1   7
BRANCH   4  21
ATOM     21  O   UNL     1       1.763   6.965  20.915  0.00  0.00    +0.000 OA
BRANCH  21  22
ATOM     22  C   UNL     1       1.198   8.204  21.017  0.00  0.00    +0.000 A 
ATOM     23  C   UNL     1       0.724   8.761  22.203  0.00  0.00    +0.000 A 
ATOM     24  C   UNL     1       0.147  10.033  22.212  0.00  0.00    +0.000 A 
ATOM     25  C   UNL     1       0.037  10.776  21.031  0.00  0.00    +0.000 A 
ATOM     26  C   UNL     1       0.557  10.231  19.845  0.00  0.00    +0.000 A 
ATOM     27  C   UNL     1       1.139   8.957  19.842  0.00  0.00    +0.000 A 
BRANCH  25  28
ATOM     28  C   UNL     1      -0.665  12.123  21.054  0.00  0.00    +0.000 C 
ATOM     29  C   UNL     1      -1.769  12.152  19.991  0.00  0.00    +0.000 C 
BRANCH  28  30
ATOM     30  N   UNL     1       0.297  13.197  20.879  0.00  0.00    +0.000 N 
ATOM     31  C   UNL     1       0.510  14.152  21.846  0.00  0.00    +0.000 C 
ATOM     32  C   UNL     1       1.552  15.169  21.467  0.00  0.00    +0.000 C 
ATOM     33  O   UNL     1      -0.109  14.213  22.902  0.00  0.00    +0.000 OA
ATOM     34  H   UNL     1       0.949  13.130  20.109  0.00  0.00    +0.000 HD
ENDBRANCH  28  30
ENDBRANCH  25  28
ENDBRANCH  21  22
ENDBRANCH   4  21
TORSDOF 9
ENDMDL
MODEL 2
REMARK VINA RESULT:      -7.8      0.717      1.133
REMARK  Name = 
REMARK  12 active torsions:
REMARK  status: ('A' for Active; 'I' for Inactive)
REMARK    1  A    between atoms: C_1  and  O_2
REMARK    2  A    between atoms: O_2  and  C_3
REMARK    3  A    between atoms: C_4  and  N_5
REMARK    4  A    between atoms: C_8  and  O_9
REMARK    5  A    between atoms: O_9  and  C_10
REMARK    6  A    between atoms: C_13  and  C_14
REMARK    7  A    between atoms: C_14  and  C_15
REMARK    8  A    between atoms: C_14  and  N_16
REMARK    9  A    between atoms: C_17  and  C_18
REMARK   10  A    between atoms: C_26  and  O_27
REMARK   11  A    between atoms: O_27  and  C_28
REMARK   12  A    between atoms: C_28  and  C_29
REMARK                            x       y       z     vdW  Elec       q    Type
REMARK                         _______ _______ _______ _____ _____    ______ ____
ROOT
ATOM      1  N   UNL     1       4.307   5.717  19.397  0.00  0.00    +0.000 N 
ATOM      2  C   UNL     1       3.412   4.691  19.969  0.00  0.00    +0.000 C 
ATOM      3  C   UNL     1       2.026   5.012  19.416  0.00  0.00    +0.000 C 
ATOM      4  C   UNL     1       2.022   6.530  19.384  0.00  0.00    +0.000 C 
ATOM      5  C   UNL     1       3.452   6.837  18.909  0.00  0.00    +0.000 C 
ENDROOT
BRANCH   1   7
ATOM      6  C   UNL     1       5.068   4.503  17.352  0.00  0.00    +0.000 A 
ATOM      7  C   UNL     1       5.312   5.313  18.491  0.00  0.00    +0.000 A 
ATOM      8  C   UNL     1       6.644   5.734  18.688  0.00  0.00    +0.000 A 
ATOM      9  C   UNL     1       7.642   5.361  17.804  0.00  0.00    +0.000 A 
ATOM     10  N   UNL     1       7.441   4.558  16.753  0.00  0.00    +0.000 NA
ATOM     11  C   UNL     1       6.170   4.143  16.546  0.00  0.00    +0.000 A 
BRANCH   6  13
ATOM     12  C   UNL     1       3.398   2.799  17.154  0.00  0.00    +0.000 C 
ATOM     13  O   UNL     1       3.858   4.094  16.850  0.00  0.00    +0.000 OA
ENDBRANCH   6  13
BRANCH  11  14
ATOM     14  O   UNL     1       5.942   3.315  15.452  0.00  0.00    +0.000 OA
BRANCH  14  15
ATOM     15  C   UNL     1       6.026   4.030  14.214  0.00  0.00    +0.000 C 
BRANCH  15  16
ATOM     16  C   UNL     1       5.221   3.322  13.173  0.00  0.00    +0.000 C 
ATOM     17  C   UNL     1       4.891   3.981  11.848  0.00  0.00    +0.000 C 
ATOM     18  C   UNL     1       5.901   2.895  11.926  0.00  0.00    +0.000 C 
ATOM     19  F   UNL     1       5.641   1.667  11.366  0.00  0.00    +0.000 F 
ATOM     20  F   UNL     1       7.228   3.178  11.695  0.00  0.00    +0.000 F 
ENDBRANCH  15  16
ENDBRANCH  14  15
ENDBRANCH  11  14
ENDBRANCH   1   7
BRANCH   4  21
ATOM     21  O   UNL     1       1.833   7.077  20.699  0.00  0.00    +0.000 OA
BRANCH  21  22
ATOM     22  C   UNL     1       1.271   8.320  20.748  0.00  0.00    +0.000 A 
ATOM     23  C   UNL     1       1.063   9.138  19.640  0.00  0.00    +0.000 A 
ATOM     24  C   UNL     1       0.494  10.405  19.786  0.00  0.00    +0.000 A 
ATOM     25  C   UNL     1       0.115  10.877  21.049  0.00  0.00    +0.000 A 
ATOM     26  C   UNL     1       0.283  10.032  22.158  0.00  0.00    +0.000 A 
ATOM     27  C   UNL     1       0.851   8.761  22.006  0.00  0.00    +0.000 A 
BRANCH  25  28
ATOM     28  C   UNL     1      -0.430  12.288  21.191  0.00  0.00    +0.000 C 
ATOM     29  C   UNL     1      -1.934  12.295  20.900  0.00  0.00    +0.000 C 
BRANCH  28  30
ATOM     30  N   UNL     1       0.303  13.202  20.332  0.00  0.00    +0.000 N 
ATOM     31  C   UNL     1       1.243  14.075  20.826  0.00  0.00    +0.000 C 
ATOM     32  C   UNL     1       1.888  14.927  19.768  0.00  0.00    +0.000 C 
ATOM     33  O   UNL     1       1.513  14.194  22.015  0.00  0.00    +0.000 OA
ATOM     34  H   UNL     1       0.248  13.060  19.331  0.00  0.00    +0.000 HD
ENDBRANCH  28  30
ENDBRANCH  25  28
ENDBRANCH  21  22
ENDBRANCH   4  21
TORSDOF 9
ENDMDL
MODEL 3
REMARK VINA RESULT:      -7.6      1.601      2.151
REMARK  Name = 
REMARK  12 active torsions:
REMARK  status: ('A' for Active; 'I' for Inactive)
REMARK    1  A    between atoms: C_1  and  O_2
REMARK    2  A    between atoms: O_2  and  C_3
REMARK    3  A    between atoms: C_4  and  N_5
REMARK    4  A    between atoms: C_8  and  O_9
REMARK    5  A    between atoms: O_9  and  C_10
REMARK    6  A    between atoms: C_13  and  C_14
REMARK    7  A    between atoms: C_14  and  C_15
REMARK    8  A    between atoms: C_14  and  N_16
REMARK    9  A    between atoms: C_17  and  C_18
REMARK   10  A    between atoms: C_26  and  O_27
REMARK   11  A    between atoms: O_27  and  C_28
REMARK   12  A    between atoms: C_28  and  C_29
REMARK                            x       y       z     vdW  Elec       q    Type
REMARK                         _______ _______ _______ _____ _____    ______ ____
ROOT
ATOM      1  N   UNL     1       3.516   5.879  19.337  0.00  0.00    +0.000 N 
ATOM      2  C   UNL     1       2.876   5.367  20.566  0.00  0.00    +0.000 C 
ATOM      3  C   UNL     1       1.430   5.852  20.501  0.00  0.00    +0.000 C 
ATOM      4  C   UNL     1       1.566   7.224  19.863  0.00  0.00    +0.000 C 
ATOM      5  C   UNL     1       2.651   6.971  18.803  0.00  0.00    +0.000 C 
ENDROOT
BRANCH   1   7
ATOM      6  C   UNL     1       5.073   5.174  17.516  0.00  0.00    +0.000 A 
ATOM      7  C   UNL     1       3.956   4.955  18.364  0.00  0.00    +0.000 A 
ATOM      8  C   UNL     1       3.283   3.725  18.211  0.00  0.00    +0.000 A 
ATOM      9  C   UNL     1       3.708   2.797  17.274  0.00  0.00    +0.000 A 
ATOM     10  N   UNL     1       4.727   3.007  16.432  0.00  0.00    +0.000 NA
ATOM     11  C   UNL     1       5.386   4.180  16.563  0.00  0.00    +0.000 A 
BRANCH   6  13
ATOM     12  C   UNL     1       7.092   6.086  18.422  0.00  0.00    +0.000 C 
ATOM     13  O   UNL     1       5.982   6.201  17.565  0.00  0.00    +0.000 OA
ENDBRANCH   6  13
BRANCH  11  14
ATOM     14  O   UNL     1       6.454   4.409  15.702  0.00  0.00    +0.000 OA
BRANCH  14  15
ATOM     15  C   UNL     1       6.013   4.785  14.393  0.00  0.00    +0.000 C 
BRANCH  15  16
ATOM     16  C   UNL     1       5.985   3.579  13.509  0.00  0.00    +0.000 C 
ATOM     17  C   UNL     1       5.224   3.579  12.199  0.00  0.00    +0.000 C 
ATOM     18  C   UNL     1       6.708   3.637  12.216  0.00  0.00    +0.000 C 
ATOM     19  F   UNL     1       7.446   2.567  11.772  0.00  0.00    +0.000 F 
ATOM     20  F   UNL     1       7.351   4.780  11.800  0.00  0.00    +0.000 F 
ENDBRANCH  15  16
ENDBRANCH  14  15
ENDBRANCH  11  14
ENDBRANCH   1   7
BRANCH   4  21
ATOM     21  O   UNL     1       2.048   8.190  20.811  0.00  0.00    +0.000 OA
BRANCH  21  22
ATOM     22  C   UNL     1       1.135   9.113  21.233  0.00  0.00    +0.000 A 
ATOM     23  C   UNL     1       0.588   9.156  22.513  0.00  0.00    +0.000 A 
ATOM     24  C   UNL     1      -0.353  10.130  22.853  0.00  0.00    +0.000 A 
ATOM     25  C   UNL     1      -0.762  11.086  21.917  0.00  0.00    +0.000 A 
ATOM     26  C   UNL     1      -0.175  11.070  20.641  0.00  0.00    +0.000 A 
ATOM     27  C   UNL     1       0.772  10.094  20.306  0.00  0.00    +0.000 A 
BRANCH  25  28
ATOM     28  C   UNL     1      -1.844  12.087  22.288  0.00  0.00    +0.000 C 
ATOM     29  C   UNL     1      -2.613  12.510  21.032  0.00  0.00    +0.000 C 
BRANCH  28  30
ATOM     30  N   UNL     1      -1.266  13.219  22.990  0.00  0.00    +0.000 N 
ATOM     31  C   UNL     1      -1.972  13.936  23.928  0.00  0.00    +0.000 C 
ATOM     32  C   UNL     1      -1.186  15.064  24.538  0.00  0.00    +0.000 C 
ATOM     33  O   UNL     1      -3.142  13.722  24.221  0.00  0.00    +0.000 OA
ATOM     34  H   UNL     1      -0.267  13.364  22.917  0.00  0.00    +0.000 HD
ENDBRANCH  28  30
ENDBRANCH  25  28
ENDBRANCH  21  22
ENDBRANCH   4  21
TORSDOF 9
ENDMDL
MODEL 4
REMARK VINA RESULT:      -7.6      3.454      5.509
REMARK  Name = 
REMARK  12 active torsions:
REMARK  status: ('A' for Active; 'I' for Inactive)
REMARK    1  A    between atoms: C_1  and  O_2
REMARK    2  A    between atoms: O_2  and  C_3
REMARK    3  A    between atoms: C_4  and  N_5
REMARK    4  A    between atoms: C_8  and  O_9
REMARK    5  A    between atoms: O_9  and  C_10
REMARK    6  A    between atoms: C_13  and  C_14
REMARK    7  A    between atoms: C_14  and  C_15
REMARK    8  A    between atoms: C_14  and  N_16
REMARK    9  A    between atoms: C_17  and  C_18
REMARK   10  A    between atoms: C_26  and  O_27
REMARK   11  A    between atoms: O_27  and  C_28
REMARK   12  A    between atoms: C_28  and  C_29
REMARK                            x       y       z     vdW  Elec       q    Type
REMARK                         _______ _______ _______ _____ _____    ______ ____
ROOT
ATOM      1  N   UNL     1       1.329   8.904  21.005  0.00  0.00    +0.000 N 
ATOM      2  C   UNL     1       1.579   9.119  22.445  0.00  0.00    +0.000 C 
ATOM      3  C   UNL     1       0.197   9.279  23.074  0.00  0.00    +0.000 C 
ATOM      4  C   UNL     1      -0.574  10.031  22.003  0.00  0.00    +0.000 C 
ATOM      5  C   UNL     1      -0.063   9.357  20.718  0.00  0.00    +0.000 C 
ENDROOT
BRANCH   1   7
ATOM      6  C   UNL     1       2.319   7.509  19.185  0.00  0.00    +0.000 A 
ATOM      7  C   UNL     1       1.665   7.656  20.436  0.00  0.00    +0.000 A 
ATOM      8  C   UNL     1       1.366   6.466  21.131  0.00  0.00    +0.000 A 
ATOM      9  C   UNL     1       1.701   5.232  20.599  0.00  0.00    +0.000 A 
ATOM     10  N   UNL     1       2.271   5.072  19.399  0.00  0.00    +0.000 NA
ATOM     11  C   UNL     1       2.567   6.201  18.716  0.00  0.00    +0.000 A 
BRANCH   6  13
ATOM     12  C   UNL     1       1.983   9.322  17.658  0.00  0.00    +0.000 C 
ATOM     13  O   UNL     1       2.853   8.493  18.390  0.00  0.00    +0.000 OA
ENDBRANCH   6  13
BRANCH  11  14
ATOM     14  O   UNL     1       3.169   6.052  17.471  0.00  0.00    +0.000 OA
BRANCH  14  15
ATOM     15  C   UNL     1       3.642   4.717  17.263  0.00  0.00    +0.000 C 
BRANCH  15  16
ATOM     16  C   UNL     1       5.136   4.720  17.197  0.00  0.00    +0.000 C 
ATOM     17  C   UNL     1       5.875   4.094  16.031  0.00  0.00    +0.000 C 
ATOM     18  C   UNL     1       5.793   5.570  16.175  0.00  0.00    +0.000 C 
ATOM     19  F   UNL     1       6.918   6.298  16.481  0.00  0.00    +0.000 F 
ATOM     20  F   UNL     1       5.063   6.305  15.270  0.00  0.00    +0.000 F 
ENDBRANCH  15  16
ENDBRANCH  14  15
ENDBRANCH  11  14
ENDBRANCH   1   7
BRANCH   4  21
ATOM     21  O   UNL     1      -0.212  11.421  21.984  0.00  0.00    +0.000 OA
BRANCH  21  22
ATOM     22  C   UNL     1      -1.135  12.281  22.506  0.00  0.00    +0.000 A 
ATOM     23  C   UNL     1      -2.316  11.888  23.132  0.00  0.00    +0.000 A 
ATOM     24  C   UNL     1      -3.211  12.839  23.625  0.00  0.00    +0.000 A 
ATOM     25  C   UNL     1      -2.939  14.207  23.505  0.00  0.00    +0.000 A 
ATOM     26  C   UNL     1      -1.726  14.600  22.915  0.00  0.00    +0.000 A 
ATOM     27  C   UNL     1      -0.829  13.642  22.425  0.00  0.00    +0.000 A 
BRANCH  25  28
ATOM     28  C   UNL     1      -3.965  15.222  23.979  0.00  0.00    +0.000 C 
ATOM     29  C   UNL     1      -3.376  16.063  25.116  0.00  0.00    +0.000 C 
BRANCH  28  30
ATOM     30  N   UNL     1      -5.195  14.553  24.368  0.00  0.00    +0.000 N 
ATOM     31  C   UNL     1      -6.336  14.620  23.603  0.00  0.00    +0.000 C 
ATOM     32  C   UNL     1      -7.494  13.853  24.182  0.00  0.00    +0.000 C 
ATOM     33  O   UNL     1      -6.436  15.271  22.570  0.00  0.00    +0.000 OA
ATOM     34  H   UNL     1      -5.151  13.878  25.120  0.00  0.00    +0.000 HD
ENDBRANCH  28  30
ENDBRANCH  25  28
ENDBRANCH  21  22
ENDBRANCH   4  21
TORSDOF 9
ENDMDL
MODEL 5
REMARK VINA RESULT:      -7.6      1.200      1.617
REMARK  Name = 
REMARK  12 active torsions:
REMARK  status: ('A' for Active; 'I' for Inactive)
REMARK    1  A    between atoms: C_1  and  O_2
REMARK    2  A    between atoms: O_2  and  C_3
REMARK    3  A    between atoms: C_4  and  N_5
REMARK    4  A    between atoms: C_8  and  O_9
REMARK    5  A    between atoms: O_9  and  C_10
REMARK    6  A    between atoms: C_13  and  C_14
REMARK    7  A    between atoms: C_14  and  C_15
REMARK    8  A    between atoms: C_14  and  N_16
REMARK    9  A    between atoms: C_17  and  C_18
REMARK   10  A    between atoms: C_26  and  O_27
REMARK   11  A    between atoms: O_27  and  C_28
REMARK   12  A    between atoms: C_28  and  C_29
REMARK                            x       y       z     vdW  Elec       q    Type
REMARK                         _______ _______ _______ _____ _____    ______ ____
ROOT
ATOM      1  N   UNL     1       4.332   5.804  19.476  0.00  0.00    +0.000 N 
ATOM      2  C   UNL     1       3.446   4.779  20.065  0.00  0.00    +0.000 C 
ATOM      3  C   UNL     1       2.061   5.065  19.491  0.00  0.00    +0.000 C 
ATOM      4  C   UNL     1       2.036   6.583  19.421  0.00  0.00    +0.000 C 
ATOM      5  C   UNL     1       3.466   6.899  18.952  0.00  0.00    +0.000 C 
ENDROOT
BRANCH   1   7
ATOM      6  C   UNL     1       5.125   4.581  17.447  0.00  0.00    +0.000 A 
ATOM      7  C   UNL     1       5.352   5.391  18.590  0.00  0.00    +0.000 A 
ATOM      8  C   UNL     1       6.682   5.805  18.812  0.00  0.00    +0.000 A 
ATOM      9  C   UNL     1       7.695   5.425  17.947  0.00  0.00    +0.000 A 
ATOM     10  N   UNL     1       7.508   4.621  16.894  0.00  0.00    +0.000 NA
ATOM     11  C   UNL     1       6.240   4.214  16.663  0.00  0.00    +0.000 A 
BRANCH   6  13
ATOM     12  C   UNL     1       3.429   2.904  17.253  0.00  0.00    +0.000 C 
ATOM     13  O   UNL     1       3.922   4.180  16.922  0.00  0.00    +0.000 OA
ENDBRANCH   6  13
BRANCH  11  14
ATOM     14  O   UNL     1       6.027   3.386  15.566  0.00  0.00    +0.000 OA
BRANCH  14  15
ATOM     15  C   UNL     1       6.076   4.110  14.332  0.00  0.00    +0.000 C 
BRANCH  15  16
ATOM     16  C   UNL     1       5.485   3.279  13.240  0.00  0.00    +0.000 C 
ATOM     17  C   UNL     1       4.879   3.914  12.004  0.00  0.00    +0.000 C 
ATOM     18  C   UNL     1       6.191   3.222  11.937  0.00  0.00    +0.000 C 
ATOM     19  F   UNL     1       6.313   2.037  11.252  0.00  0.00    +0.000 F 
ATOM     20  F   UNL     1       7.335   3.950  11.705  0.00  0.00    +0.000 F 
ENDBRANCH  15  16
ENDBRANCH  14  15
ENDBRANCH  11  14
ENDBRANCH   1   7
BRANCH   4  21
ATOM     21  O   UNL     1       1.826   7.158  20.720  0.00  0.00    +0.000 OA
BRANCH  21  22
ATOM     22  C   UNL     1       1.255   8.399  20.733  0.00  0.00    +0.000 A 
ATOM     23  C   UNL     1       0.747   9.022  21.871  0.00  0.00    +0.000 A 
ATOM     24  C   UNL     1       0.167  10.290  21.789  0.00  0.00    +0.000 A 
ATOM     25  C   UNL     1       0.088  10.962  20.564  0.00  0.00    +0.000 A 
ATOM     26  C   UNL     1       0.643  10.351  19.427  0.00  0.00    +0.000 A 
ATOM     27  C   UNL     1       1.227   9.081  19.515  0.00  0.00    +0.000 A 
BRANCH  25  28
ATOM     28  C   UNL     1      -0.618  12.305  20.487  0.00  0.00    +0.000 C 
ATOM     29  C   UNL     1       0.417  13.434  20.439  0.00  0.00    +0.000 C 
BRANCH  28  30
ATOM     30  N   UNL     1      -1.544  12.453  21.597  0.00  0.00    +0.000 N 
ATOM     31  C   UNL     1      -2.902  12.554  21.407  0.00  0.00    +0.000 C 
ATOM     32  C   UNL     1      -3.680  12.694  22.687  0.00  0.00    +0.000 C 
ATOM     33  O   UNL     1      -3.444  12.573  20.308  0.00  0.00    +0.000 OA
ATOM     34  H   UNL     1      -1.193  12.294  22.532  0.00  0.00    +0.000 HD
ENDBRANCH  28  30
ENDBRANCH  25  28
ENDBRANCH  21  22
ENDBRANCH   4  21
TORSDOF 9
ENDMDL
MODEL 6
REMARK VINA RESULT:      -7.6      2.007      2.870
REMARK  Name = 
REMARK  12 active torsions:
REMARK  status: ('A' for Active; 'I' for Inactive)
REMARK    1  A    between atoms: C_1  and  O_2
REMARK    2  A    between atoms: O_2  and  C_3
REMARK    3  A    between atoms: C_4  and  N_5
REMARK    4  A    between atoms: C_8  and  O_9
REMARK    5  A    between atoms: O_9  and  C_10
REMARK    6  A    between atoms: C_13  and  C_14
REMARK    7  A    between atoms: C_14  and  C_15
REMARK    8  A    between atoms: C_14  and  N_16
REMARK    9  A    between atoms: C_17  and  C_18
REMARK   10  A    between atoms: C_26  and  O_27
REMARK   11  A    between atoms: O_27  and  C_28
REMARK   12  A    between atoms: C_28  and  C_29
REMARK                            x       y       z     vdW  Elec       q    Type
REMARK                         _______ _______ _______ _____ _____    ______ ____
ROOT
ATOM      1  N   UNL     1       3.835   6.834  18.329  0.00  0.00    +0.000 N 
ATOM      2  C   UNL     1       3.161   6.552  19.613  0.00  0.00    +0.000 C 
ATOM      3  C   UNL     1       1.686   6.863  19.372  0.00  0.00    +0.000 C 
ATOM      4  C   UNL     1       1.745   8.062  18.441  0.00  0.00    +0.000 C 
ATOM      5  C   UNL     1       2.917   7.684  17.518  0.00  0.00    +0.000 C 
ENDROOT
BRANCH   1   7
ATOM      6  C   UNL     1       5.624   5.870  16.878  0.00  0.00    +0.000 A 
ATOM      7  C   UNL     1       4.418   5.762  17.618  0.00  0.00    +0.000 A 
ATOM      8  C   UNL     1       3.804   4.492  17.638  0.00  0.00    +0.000 A 
ATOM      9  C   UNL     1       4.367   3.423  16.961  0.00  0.00    +0.000 A 
ATOM     10  N   UNL     1       5.476   3.518  16.217  0.00  0.00    +0.000 NA
ATOM     11  C   UNL     1       6.080   4.727  16.185  0.00  0.00    +0.000 A 
BRANCH   6  13
ATOM     12  C   UNL     1       7.467   7.064  17.829  0.00  0.00    +0.000 C 
ATOM     13  O   UNL     1       6.491   6.933  16.825  0.00  0.00    +0.000 OA
ENDBRANCH   6  13
BRANCH  11  14
ATOM     14  O   UNL     1       7.239   4.839  15.424  0.00  0.00    +0.000 OA
BRANCH  14  15
ATOM     15  C   UNL     1       6.949   5.033  14.036  0.00  0.00    +0.000 C 
BRANCH  15  16
ATOM     16  C   UNL     1       6.612   3.719  13.407  0.00  0.00    +0.000 C 
ATOM     17  C   UNL     1       5.434   3.575  12.464  0.00  0.00    +0.000 C 
ATOM     18  C   UNL     1       6.826   3.561  11.948  0.00  0.00    +0.000 C 
ATOM     19  F   UNL     1       7.361   2.404  11.436  0.00  0.00    +0.000 F 
ATOM     20  F   UNL     1       7.276   4.601  11.168  0.00  0.00    +0.000 F 
ENDBRANCH  15  16
ENDBRANCH  14  15
ENDBRANCH  11  14
ENDBRANCH   1   7
BRANCH   4  21
ATOM     21  O   UNL     1       2.077   9.260  19.160  0.00  0.00    +0.000 OA
BRANCH  21  22
ATOM     22  C   UNL     1       1.026  10.073  19.474  0.00  0.00    +0.000 A 
ATOM     23  C   UNL     1       0.038  10.470  18.575  0.00  0.00    +0.000 A 
ATOM     24  C   UNL     1      -0.995  11.317  18.981  0.00  0.00    +0.000 A 
ATOM     25  C   UNL     1      -1.063  11.781  20.300  0.00  0.00    +0.000 A 
ATOM     26  C   UNL     1      -0.092  11.342  21.215  0.00  0.00    +0.000 A 
ATOM     27  C   UNL     1       0.940  10.489  20.804  0.00  0.00    +0.000 A 
BRANCH  25  28
ATOM     28  C   UNL     1      -2.153  12.763  20.696  0.00  0.00    +0.000 C 
ATOM     29  C   UNL     1      -1.759  14.178  20.262  0.00  0.00    +0.000 C 
BRANCH  28  30
ATOM     30  N   UNL     1      -2.417  12.676  22.122  0.00  0.00    +0.000 N 
ATOM     31  C   UNL     1      -3.681  12.463  22.619  0.00  0.00    +0.000 C 
ATOM     32  C   UNL     1      -3.733  12.401  24.122  0.00  0.00    +0.000 C 
ATOM     33  O   UNL     1      -4.688  12.374  21.926  0.00  0.00    +0.000 OA
ATOM     34  H   UNL     1      -1.626  12.588  22.747  0.00  0.00    +0.000 HD
ENDBRANCH  28  30
ENDBRANCH  25  28
ENDBRANCH  21  22
ENDBRANCH   4  21
TORSDOF 9
ENDMDL
MODEL 7
REMARK VINA RESULT:      -7.5      2.076      2.723
REMARK  Name = 
REMARK  12 active torsions:
REMARK  status: ('A' for Active; 'I' for Inactive)
REMARK    1  A    between atoms: C_1  and  O_2
REMARK    2  A    between atoms: O_2  and  C_3
REMARK    3  A    between atoms: C_4  and  N_5
REMARK    4  A    between atoms: C_8  and  O_9
REMARK    5  A    between atoms: O_9  and  C_10
REMARK    6  A    between atoms: C_13  and  C_14
REMARK    7  A    between atoms: C_14  and  C_15
REMARK    8  A    between atoms: C_14  and  N_16
REMARK    9  A    between atoms: C_17  and  C_18
REMARK   10  A    between atoms: C_26  and  O_27
REMARK   11  A    between atoms: O_27  and  C_28
REMARK   12  A    between atoms: C_28  and  C_29
REMARK                            x       y       z     vdW  Elec       q    Type
REMARK                         _______ _______ _______ _____ _____    ______ ____
ROOT
ATOM      1  N   UNL     1       3.337   5.728  19.582  0.00  0.00    +0.000 N 
ATOM      2  C   UNL     1       2.753   5.178  20.823  0.00  0.00    +0.000 C 
ATOM      3  C   UNL     1       1.280   5.581  20.789  0.00  0.00    +0.000 C 
ATOM      4  C   UNL     1       1.326   6.960  20.153  0.00  0.00    +0.000 C 
ATOM      5  C   UNL     1       2.401   6.770  19.069  0.00  0.00    +0.000 C 
ENDROOT
BRANCH   1   7
ATOM      6  C   UNL     1       4.883   5.122  17.717  0.00  0.00    +0.000 A 
ATOM      7  C   UNL     1       3.809   4.832  18.599  0.00  0.00    +0.000 A 
ATOM      8  C   UNL     1       3.215   3.559  18.468  0.00  0.00    +0.000 A 
ATOM      9  C   UNL     1       3.672   2.659  17.520  0.00  0.00    +0.000 A 
ATOM     10  N   UNL     1       4.649   2.933  16.647  0.00  0.00    +0.000 NA
ATOM     11  C   UNL     1       5.233   4.148  16.756  0.00  0.00    +0.000 A 
BRANCH   6  13
ATOM     12  C   UNL     1       5.377   7.347  16.988  0.00  0.00    +0.000 C 
ATOM     13  O   UNL     1       5.722   6.207  17.737  0.00  0.00    +0.000 OA
ENDBRANCH   6  13
BRANCH  11  14
ATOM     14  O   UNL     1       6.257   4.444  15.863  0.00  0.00    +0.000 OA
BRANCH  14  15
ATOM     15  C   UNL     1       6.305   3.512  14.778  0.00  0.00    +0.000 C 
BRANCH  15  16
ATOM     16  C   UNL     1       5.947   4.209  13.504  0.00  0.00    +0.000 C 
ATOM     17  C   UNL     1       6.868   4.174  12.301  0.00  0.00    +0.000 C 
ATOM     18  C   UNL     1       5.613   3.382  12.320  0.00  0.00    +0.000 C 
ATOM     19  F   UNL     1       4.568   3.723  11.494  0.00  0.00    +0.000 F 
ATOM     20  F   UNL     1       5.672   2.008  12.358  0.00  0.00    +0.000 F 
ENDBRANCH  15  16
ENDBRANCH  14  15
ENDBRANCH  11  14
ENDBRANCH   1   7
BRANCH   4  21
ATOM     21  O   UNL     1       1.772   7.950  21.093  0.00  0.00    +0.000 OA
BRANCH  21  22
ATOM     22  C   UNL     1       0.920   8.997  21.300  0.00  0.00    +0.000 A 
ATOM     23  C   UNL     1       0.428   9.380  22.546  0.00  0.00    +0.000 A 
ATOM     24  C   UNL     1      -0.453  10.458  22.663  0.00  0.00    +0.000 A 
ATOM     25  C   UNL     1      -0.855  11.178  21.532  0.00  0.00    +0.000 A 
ATOM     26  C   UNL     1      -0.321  10.818  20.283  0.00  0.00    +0.000 A 
ATOM     27  C   UNL     1       0.565   9.739  20.172  0.00  0.00    +0.000 A 
BRANCH  25  28
ATOM     28  C   UNL     1      -1.874  12.296  21.676  0.00  0.00    +0.000 C 
ATOM     29  C   UNL     1      -1.234  13.634  21.295  0.00  0.00    +0.000 C 
BRANCH  28  30
ATOM     30  N   UNL     1      -2.422  12.310  23.022  0.00  0.00    +0.000 N 
ATOM     31  C   UNL     1      -3.774  12.388  23.260  0.00  0.00    +0.000 C 
ATOM     32  C   UNL     1      -4.129  12.382  24.721  0.00  0.00    +0.000 C 
ATOM     33  O   UNL     1      -4.623  12.496  22.382  0.00  0.00    +0.000 OA
ATOM     34  H   UNL     1      -1.805  12.072  23.788  0.00  0.00    +0.000 HD
ENDBRANCH  28  30
ENDBRANCH  25  28
ENDBRANCH  21  22
ENDBRANCH   4  21
TORSDOF 9
ENDMDL
MODEL 8
REMARK VINA RESULT:      -7.5      1.660      2.608
REMARK  Name = 
REMARK  12 active torsions:
REMARK  status: ('A' for Active; 'I' for Inactive)
REMARK    1  A    between atoms: C_1  and  O_2
REMARK    2  A    between atoms: O_2  and  C_3
REMARK    3  A    between atoms: C_4  and  N_5
REMARK    4  A    between atoms: C_8  and  O_9
REMARK    5  A    between atoms: O_9  and  C_10
REMARK    6  A    between atoms: C_13  and  C_14
REMARK    7  A    between atoms: C_14  and  C_15
REMARK    8  A    between atoms: C_14  and  N_16
REMARK    9  A    between atoms: C_17  and  C_18
REMARK   10  A    between atoms: C_26  and  O_27
REMARK   11  A    between atoms: O_27  and  C_28
REMARK   12  A    between atoms: C_28  and  C_29
REMARK                            x       y       z     vdW  Elec       q    Type
REMARK                         _______ _______ _______ _____ _____    ______ ____
ROOT
ATOM      1  N   UNL     1       3.614   5.846  19.177  0.00  0.00    +0.000 N 
ATOM      2  C   UNL     1       3.051   5.294  20.426  0.00  0.00    +0.000 C 
ATOM      3  C   UNL     1       1.568   5.655  20.394  0.00  0.00    +0.000 C 
ATOM      4  C   UNL     1       1.573   7.028  19.743  0.00  0.00    +0.000 C 
ATOM      5  C   UNL     1       2.648   6.856  18.657  0.00  0.00    +0.000 C 
ENDROOT
BRANCH   1   7
ATOM      6  C   UNL     1       5.265   5.198  17.418  0.00  0.00    +0.000 A 
ATOM      7  C   UNL     1       4.107   4.952  18.201  0.00  0.00    +0.000 A 
ATOM      8  C   UNL     1       3.446   3.727  17.976  0.00  0.00    +0.000 A 
ATOM      9  C   UNL     1       3.920   2.829  17.034  0.00  0.00    +0.000 A 
ATOM     10  N   UNL     1       4.980   3.065  16.252  0.00  0.00    +0.000 NA
ATOM     11  C   UNL     1       5.629   4.234  16.453  0.00  0.00    +0.000 A 
BRANCH   6  13
ATOM     12  C   UNL     1       7.217   6.095  18.474  0.00  0.00    +0.000 C 
ATOM     13  O   UNL     1       6.168   6.224  17.545  0.00  0.00    +0.000 OA
ENDBRANCH   6  13
BRANCH  11  14
ATOM     14  O   UNL     1       6.739   4.490  15.655  0.00  0.00    +0.000 OA
BRANCH  14  15
ATOM     15  C   UNL     1       6.366   4.841  14.318  0.00  0.00    +0.000 C 
BRANCH  15  16
ATOM     16  C   UNL     1       6.259   3.603  13.487  0.00  0.00    +0.000 C 
ATOM     17  C   UNL     1       5.306   3.522  12.312  0.00  0.00    +0.000 C 
ATOM     18  C   UNL     1       6.769   3.644  12.095  0.00  0.00    +0.000 C 
ATOM     19  F   UNL     1       7.481   2.590  11.574  0.00  0.00    +0.000 F 
ATOM     20  F   UNL     1       7.285   4.796  11.549  0.00  0.00    +0.000 F 
ENDBRANCH  15  16
ENDBRANCH  14  15
ENDBRANCH  11  14
ENDBRANCH   1   7
BRANCH   4  21
ATOM     21  O   UNL     1       1.995   8.040  20.670  0.00  0.00    +0.000 OA
BRANCH  21  22
ATOM     22  C   UNL     1       1.111   9.059  20.879  0.00  0.00    +0.000 A 
ATOM     23  C   UNL     1       0.602   9.882  19.876  0.00  0.00    +0.000 A 
ATOM     24  C   UNL     1      -0.290  10.911  20.184  0.00  0.00    +0.000 A 
ATOM     25  C   UNL     1      -0.695  11.135  21.504  0.00  0.00    +0.000 A 
ATOM     26  C   UNL     1      -0.217  10.275  22.507  0.00  0.00    +0.000 A 
ATOM     27  C   UNL     1       0.674   9.242  22.193  0.00  0.00    +0.000 A 
BRANCH  25  28
ATOM     28  C   UNL     1      -1.605  12.310  21.822  0.00  0.00    +0.000 C 
ATOM     29  C   UNL     1      -1.804  12.417  23.338  0.00  0.00    +0.000 C 
BRANCH  28  30
ATOM     30  N   UNL     1      -2.864  12.182  21.108  0.00  0.00    +0.000 N 
ATOM     31  C   UNL     1      -3.549  13.275  20.634  0.00  0.00    +0.000 C 
ATOM     32  C   UNL     1      -4.825  12.922  19.920  0.00  0.00    +0.000 C 
ATOM     33  O   UNL     1      -3.196  14.437  20.804  0.00  0.00    +0.000 OA
ATOM     34  H   UNL     1      -3.141  11.260  20.798  0.00  0.00    +0.000 HD
ENDBRANCH  28  30
ENDBRANCH  25  28
ENDBRANCH  21  22
ENDBRANCH   4  21
TORSDOF 9
ENDMDL
MODEL 9
REMARK VINA RESULT:      -7.4      4.609     10.891
REMARK  Name = 
REMARK  12 active torsions:
REMARK  status: ('A' for Active; 'I' for Inactive)
REMARK    1  A    between atoms: C_1  and  O_2
REMARK    2  A    between atoms: O_2  and  C_3
REMARK    3  A    between atoms: C_4  and  N_5
REMARK    4  A    between atoms: C_8  and  O_9
REMARK    5  A    between atoms: O_9  and  C_10
REMARK    6  A    between atoms: C_13  and  C_14
REMARK    7  A    between atoms: C_14  and  C_15
REMARK    8  A    between atoms: C_14  and  N_16
REMARK    9  A    between atoms: C_17  and  C_18
REMARK   10  A    between atoms: C_26  and  O_27
REMARK   11  A    between atoms: O_27  and  C_28
REMARK   12  A    between atoms: C_28  and  C_29
REMARK                            x       y       z     vdW  Elec       q    Type
REMARK                         _______ _______ _______ _____ _____    ______ ____
ROOT
ATOM      1  N   UNL     1      -0.524  10.148  21.575  0.00  0.00    +0.000 N 
ATOM      2  C   UNL     1      -0.115   9.474  22.825  0.00  0.00    +0.000 C 
ATOM      3  C   UNL     1       1.335   9.052  22.599  0.00  0.00    +0.000 C 
ATOM      4  C   UNL     1       1.347   8.669  21.129  0.00  0.00    +0.000 C 
ATOM      5  C   UNL     1       0.449   9.756  20.515  0.00  0.00    +0.000 C 
ENDROOT
BRANCH   1   7
ATOM      6  C   UNL     1      -0.988  12.332  20.456  0.00  0.00    +0.000 A 
ATOM      7  C   UNL     1      -0.820  11.528  21.614  0.00  0.00    +0.000 A 
ATOM      8  C   UNL     1      -0.985  12.175  22.856  0.00  0.00    +0.000 A 
ATOM      9  C   UNL     1      -1.291  13.524  22.917  0.00  0.00    +0.000 A 
ATOM     10  N   UNL     1      -1.403  14.309  21.839  0.00  0.00    +0.000 NA
ATOM     11  C   UNL     1      -1.250  13.708  20.637  0.00  0.00    +0.000 A 
BRANCH   6  13
ATOM     12  C   UNL     1      -2.250  11.436  18.631  0.00  0.00    +0.000 C 
ATOM     13  O   UNL     1      -1.036  11.927  19.146  0.00  0.00    +0.000 OA
ENDBRANCH   6  13
BRANCH  11  14
ATOM     14  O   UNL     1      -1.373  14.508  19.506  0.00  0.00    +0.000 OA
BRANCH  14  15
ATOM     15  C   UNL     1      -0.796  15.802  19.702  0.00  0.00    +0.000 C 
BRANCH  15  16
ATOM     16  C   UNL     1      -0.257  16.312  18.403  0.00  0.00    +0.000 C 
ATOM     17  C   UNL     1      -0.673  17.661  17.852  0.00  0.00    +0.000 C 
ATOM     18  C   UNL     1       0.679  17.462  18.432  0.00  0.00    +0.000 C 
ATOM     19  F   UNL     1       1.789  17.487  17.622  0.00  0.00    +0.000 F 
ATOM     20  F   UNL     1       1.016  18.088  19.609  0.00  0.00    +0.000 F 
ENDBRANCH  15  16
ENDBRANCH  14  15
ENDBRANCH  11  14
ENDBRANCH   1   7
BRANCH   4  21
ATOM     21  O   UNL     1       0.740   7.383  20.924  0.00  0.00    +0.000 OA
BRANCH  21  22
ATOM     22  C   UNL     1       1.574   6.398  20.478  0.00  0.00    +0.000 A 
ATOM     23  C   UNL     1       1.448   5.049  20.802  0.00  0.00    +0.000 A 
ATOM     24  C   UNL     1       2.358   4.111  20.311  0.00  0.00    +0.000 A 
ATOM     25  C   UNL     1       3.413   4.505  19.480  0.00  0.00    +0.000 A 
ATOM     26  C   UNL     1       3.511   5.858  19.117  0.00  0.00    +0.000 A 
ATOM     27  C   UNL     1       2.593   6.796  19.609  0.00  0.00    +0.000 A 
BRANCH  25  28
ATOM     28  C   UNL     1       4.434   3.477  19.023  0.00  0.00    +0.000 C 
ATOM     29  C   UNL     1       4.381   2.249  19.939  0.00  0.00    +0.000 C 
BRANCH  28  30
ATOM     30  N   UNL     1       5.759   4.069  18.970  0.00  0.00    +0.000 N 
ATOM     31  C   UNL     1       6.361   4.409  17.782  0.00  0.00    +0.000 C 
ATOM     32  C   UNL     1       7.728   5.013  17.951  0.00  0.00    +0.000 C 
ATOM     33  O   UNL     1       5.869   4.207  16.678  0.00  0.00    +0.000 OA
ATOM     34  H   UNL     1       6.164   4.405  19.835  0.00  0.00    +0.000 HD
ENDBRANCH  28  30
ENDBRANCH  25  28
ENDBRANCH  21  22
ENDBRANCH   4  21
TORSDOF 9
ENDMDL
