MODEL 1
REMARK VINA RESULT:      -7.5      0.000      0.000
REMARK  Name = 
REMARK  9 active torsions:
REMARK  status: ('A' for Active; 'I' for Inactive)
REMARK    1  A    between atoms: C_1  and  C_2
REMARK    2  A    between atoms: C_4  and  N_5
REMARK    3  A    between atoms: C_13  and  C_14
REMARK    4  A    between atoms: C_15  and  O_16
REMARK    5  A    between atoms: O_16  and  C_17
REMARK    6  A    between atoms: C_20  and  O_21
REMARK    7  A    between atoms: C_22  and  C_23
REMARK    8  A    between atoms: C_23  and  C_24
REMARK    9  A    between atoms: C_23  and  C_25
REMARK                            x       y       z     vdW  Elec       q    Type
REMARK                         _______ _______ _______ _____ _____    ______ ____
ROOT
ATOM      1  C   UNL     1       0.470   9.192  22.413  0.00  0.00    +0.000 C 
ATOM      2  C   UNL     1       0.991   8.632  21.118  0.00  0.00    +0.000 A 
ATOM      3  C   UNL     1       1.235   7.249  21.087  0.00  0.00    +0.000 A 
ATOM      4  C   UNL     1       1.864   6.639  19.999  0.00  0.00    +0.000 A 
ATOM      5  C   UNL     1       2.213   7.413  18.893  0.00  0.00    +0.000 A 
ATOM      6  C   UNL     1       1.881   8.778  18.844  0.00  0.00    +0.000 A 
ATOM      7  C   UNL     1       2.175   9.557  17.588  0.00  0.00    +0.000 C 
ATOM      8  C   UNL     1       1.270   9.392  19.962  0.00  0.00    +0.000 A 
ENDROOT
BRANCH   4   9
ATOM      9  N   UNL     1       2.171   5.256  20.063  0.00  0.00    +0.000 N 
ATOM     10  C   UNL     1       1.108   4.344  20.472  0.00  0.00    +0.000 C 
ATOM     11  C   UNL     1       1.323   2.958  19.886  0.00  0.00    +0.000 C 
ATOM     12  C   UNL     1       2.706   2.507  20.297  0.00  0.00    +0.000 C 
ATOM     13  N   UNL     1       3.684   3.483  19.893  0.00  0.00    +0.000 N 
ATOM     14  C   UNL     1       3.473   4.829  19.834  0.00  0.00    +0.000 C 
ATOM     15  O   UNL     1       4.433   5.558  19.585  0.00  0.00    +0.000 OA
ATOM     16  H   UNL     1       4.662   3.227  19.831  0.00  0.00    +0.000 HD
ENDBRANCH   4   9
BRANCH   8  17
ATOM     17  O   UNL     1       1.086  10.759  19.852  0.00  0.00    +0.000 OA
BRANCH  17  18
ATOM     18  C   UNL     1      -0.173  11.273  19.653  0.00  0.00    +0.000 A 
ATOM     19  C   UNL     1      -0.614  12.202  20.593  0.00  0.00    +0.000 A 
ATOM     20  C   UNL     1      -1.918  12.692  20.529  0.00  0.00    +0.000 A 
ATOM     21  C   UNL     1      -2.775  12.254  19.516  0.00  0.00    +0.000 A 
ATOM     22  C   UNL     1      -2.335  11.367  18.523  0.00  0.00    +0.000 A 
ATOM     23  C   UNL     1      -1.003  10.914  18.588  0.00  0.00    +0.000 A 
BRANCH  22  24
ATOM     24  C   UNL     1      -3.255  10.871  17.417  0.00  0.00    +0.000 C 
ATOM     25  C   UNL     1      -2.580  10.988  16.047  0.00  0.00    +0.000 C 
ATOM     26  C   UNL     1      -3.721   9.429  17.657  0.00  0.00    +0.000 C 
ENDBRANCH  22  24
BRANCH  21  27
ATOM     27  O   UNL     1      -4.067  12.700  19.493  0.00  0.00    +0.000 OA
ATOM     28  H   UNL     1      -4.632  12.051  19.942  0.00  0.00    +0.000 HD
ENDBRANCH  21  27
ENDBRANCH  17  18
ENDBRANCH   8  17
TORSDOF 5
ENDMDL
MODEL 2
REMARK VINA RESULT:      -7.3      5.159      9.126
REMARK  Name = 
REMARK  9 active torsions:
REMARK  status: ('A' for Active; 'I' for Inactive)
REMARK    1  A    between atoms: C_1  and  C_2
REMARK    2  A    between atoms: C_4  and  N_5
REMARK    3  A    between atoms: C_13  and  C_14
REMARK    4  A    between atoms: C_15  and  O_16
REMARK    5  A    between atoms: O_16  and  C_17
REMARK    6  A    between atoms: C_20  and  O_21
REMARK    7  A    between atoms: C_22  and  C_23
REMARK    8  A    between atoms: C_23  and  C_24
REMARK    9  A    between atoms: C_23  and  C_25
REMARK                            x       y       z     vdW  Elec       q    Type
REMARK                         _______ _______ _______ _____ _____    ______ ____
ROOT
ATOM      1  C   UNL     1       6.614   6.592  17.341  0.00  0.00    +0.000 C 
ATOM      2  C   UNL     1       5.185   6.147  17.489  0.00  0.00    +0.000 A 
ATOM      3  C   UNL     1       4.297   7.076  18.057  0.00  0.00    +0.000 A 
ATOM      4  C   UNL     1       2.985   6.728  18.389  0.00  0.00    +0.000 A 
ATOM      5  C   UNL     1       2.528   5.442  18.103  0.00  0.00    +0.000 A 
ATOM      6  C   UNL     1       3.355   4.525  17.432  0.00  0.00    +0.000 A 
ATOM      7  C   UNL     1       2.791   3.183  17.041  0.00  0.00    +0.000 C 
ATOM      8  C   UNL     1       4.690   4.876  17.126  0.00  0.00    +0.000 A 
ENDROOT
BRANCH   4   9
ATOM      9  N   UNL     1       2.163   7.677  19.048  0.00  0.00    +0.000 N 
ATOM     10  C   UNL     1       1.678   7.343  20.383  0.00  0.00    +0.000 C 
ATOM     11  C   UNL     1       1.415   8.600  21.198  0.00  0.00    +0.000 C 
ATOM     12  C   UNL     1       0.463   9.460  20.400  0.00  0.00    +0.000 C 
ATOM     13  N   UNL     1       0.998   9.703  19.086  0.00  0.00    +0.000 N 
ATOM     14  C   UNL     1       1.771   8.830  18.379  0.00  0.00    +0.000 C 
ATOM     15  O   UNL     1       2.063   9.119  17.218  0.00  0.00    +0.000 OA
ATOM     16  H   UNL     1       0.646  10.471  18.527  0.00  0.00    +0.000 HD
ENDBRANCH   4   9
BRANCH   8  17
ATOM     17  O   UNL     1       5.450   3.864  16.565  0.00  0.00    +0.000 OA
BRANCH  17  18
ATOM     18  C   UNL     1       5.999   4.025  15.315  0.00  0.00    +0.000 A 
ATOM     19  C   UNL     1       7.118   4.851  15.237  0.00  0.00    +0.000 A 
ATOM     20  C   UNL     1       7.674   5.155  13.995  0.00  0.00    +0.000 A 
ATOM     21  C   UNL     1       7.108   4.623  12.833  0.00  0.00    +0.000 A 
ATOM     22  C   UNL     1       6.020   3.741  12.891  0.00  0.00    +0.000 A 
ATOM     23  C   UNL     1       5.499   3.420  14.160  0.00  0.00    +0.000 A 
BRANCH  22  24
ATOM     24  C   UNL     1       5.383   3.158  11.637  0.00  0.00    +0.000 C 
ATOM     25  C   UNL     1       5.739   1.677  11.477  0.00  0.00    +0.000 C 
ATOM     26  C   UNL     1       3.861   3.343  11.623  0.00  0.00    +0.000 C 
ENDBRANCH  22  24
BRANCH  21  27
ATOM     27  O   UNL     1       7.627   4.970  11.616  0.00  0.00    +0.000 OA
ATOM     28  H   UNL     1       8.416   4.431  11.445  0.00  0.00    +0.000 HD
ENDBRANCH  21  27
ENDBRANCH  17  18
ENDBRANCH   8  17
TORSDOF 5
ENDMDL
MODEL 3
REMARK VINA RESULT:      -7.2      0.350      1.747
REMARK  Name = 
REMARK  9 active torsions:
REMARK  status: ('A' for Active; 'I' for Inactive)
REMARK    1  A    between atoms: C_1  and  C_2
REMARK    2  A    between atoms: C_4  and  N_5
REMARK    3  A    between atoms: C_13  and  C_14
REMARK    4  A    between atoms: C_15  and  O_16
REMARK    5  A    between atoms: O_16  and  C_17
REMARK    6  A    between atoms: C_20  and  O_21
REMARK    7  A    between atoms: C_22  and  C_23
REMARK    8  A    between atoms: C_23  and  C_24
REMARK    9  A    between atoms: C_23  and  C_25
REMARK                            x       y       z     vdW  Elec       q    Type
REMARK                         _______ _______ _______ _____ _____    ______ ____
ROOT
ATOM      1  C   UNL     1       2.069   9.556  17.638  0.00  0.00    +0.000 C 
ATOM      2  C   UNL     1       1.838   8.861  18.951  0.00  0.00    +0.000 A 
ATOM      3  C   UNL     1       2.131   7.488  18.993  0.00  0.00    +0.000 A 
ATOM      4  C   UNL     1       1.813   6.702  20.104  0.00  0.00    +0.000 A 
ATOM      5  C   UNL     1       1.237   7.306  21.221  0.00  0.00    +0.000 A 
ATOM      6  C   UNL     1       1.035   8.696  21.257  0.00  0.00    +0.000 A 
ATOM      7  C   UNL     1       0.514   9.326  22.522  0.00  0.00    +0.000 C 
ATOM      8  C   UNL     1       1.334   9.478  20.117  0.00  0.00    +0.000 A 
ENDROOT
BRANCH   4   9
ATOM      9  N   UNL     1       2.044   5.304  20.052  0.00  0.00    +0.000 N 
ATOM     10  C   UNL     1       0.925   4.420  20.361  0.00  0.00    +0.000 C 
ATOM     11  C   UNL     1       1.079   3.080  19.659  0.00  0.00    +0.000 C 
ATOM     12  C   UNL     1       2.426   2.520  20.054  0.00  0.00    +0.000 C 
ATOM     13  N   UNL     1       3.464   3.471  19.755  0.00  0.00    +0.000 N 
ATOM     14  C   UNL     1       3.326   4.827  19.809  0.00  0.00    +0.000 C 
ATOM     15  O   UNL     1       4.329   5.521  19.643  0.00  0.00    +0.000 OA
ATOM     16  H   UNL     1       4.427   3.168  19.687  0.00  0.00    +0.000 HD
ENDBRANCH   4   9
BRANCH   8  17
ATOM     17  O   UNL     1       0.997  10.816  20.218  0.00  0.00    +0.000 OA
BRANCH  17  18
ATOM     18  C   UNL     1      -0.250  11.245  19.830  0.00  0.00    +0.000 A 
ATOM     19  C   UNL     1      -0.800  12.289  20.572  0.00  0.00    +0.000 A 
ATOM     20  C   UNL     1      -2.103  12.714  20.316  0.00  0.00    +0.000 A 
ATOM     21  C   UNL     1      -2.850  12.094  19.311  0.00  0.00    +0.000 A 
ATOM     22  C   UNL     1      -2.298  11.083  18.511  0.00  0.00    +0.000 A 
ATOM     23  C   UNL     1      -0.968  10.697  18.764  0.00  0.00    +0.000 A 
BRANCH  22  24
ATOM     24  C   UNL     1      -3.098  10.390  17.418  0.00  0.00    +0.000 C 
ATOM     25  C   UNL     1      -2.183   9.911  16.287  0.00  0.00    +0.000 C 
ATOM     26  C   UNL     1      -3.925   9.218  17.963  0.00  0.00    +0.000 C 
ENDBRANCH  22  24
BRANCH  21  27
ATOM     27  O   UNL     1      -4.145  12.482  19.104  0.00  0.00    +0.000 OA
ATOM     28  H   UNL     1      -4.240  13.413  19.362  0.00  0.00    +0.000 HD
ENDBRANCH  21  27
ENDBRANCH  17  18
ENDBRANCH   8  17
TORSDOF 5
ENDMDL
MODEL 4
REMARK VINA RESULT:      -7.1      0.803      2.228
REMARK  Name = 
REMARK  9 active torsions:
REMARK  status: ('A' for Active; 'I' for Inactive)
REMARK    1  A    between atoms: C_1  and  C_2
REMARK    2  A    between atoms: C_4  and  N_5
REMARK    3  A    between atoms: C_13  and  C_14
REMARK    4  A    between atoms: C_15  and  O_16
REMARK    5  A    between atoms: O_16  and  C_17
REMARK    6  A    between atoms: C_20  and  O_21
REMARK    7  A    between atoms: C_22  and  C_23
REMARK    8  A    between atoms: C_23  and  C_24
REMARK    9  A    between atoms: C_23  and  C_25
REMARK                            x       y       z     vdW  Elec       q    Type
REMARK                         _______ _______ _______ _____ _____    ______ ____
ROOT
ATOM      1  C   UNL     1       0.370   9.004  22.302  0.00  0.00    +0.000 C 
ATOM      2  C   UNL     1       0.970   8.459  21.034  0.00  0.00    +0.000 A 
ATOM      3  C   UNL     1       1.339   7.104  21.048  0.00  0.00    +0.000 A 
ATOM      4  C   UNL     1       2.046   6.524  19.992  0.00  0.00    +0.000 A 
ATOM      5  C   UNL     1       2.348   7.297  18.871  0.00  0.00    +0.000 A 
ATOM      6  C   UNL     1       1.895   8.623  18.775  0.00  0.00    +0.000 A 
ATOM      7  C   UNL     1       2.146   9.391  17.503  0.00  0.00    +0.000 C 
ATOM      8  C   UNL     1       1.205   9.209  19.862  0.00  0.00    +0.000 A 
ENDROOT
BRANCH   4   9
ATOM      9  N   UNL     1       2.476   5.177  20.103  0.00  0.00    +0.000 N 
ATOM     10  C   UNL     1       1.562   4.223  20.722  0.00  0.00    +0.000 C 
ATOM     11  C   UNL     1       1.810   2.815  20.205  0.00  0.00    +0.000 C 
ATOM     12  C   UNL     1       3.270   2.503  20.439  0.00  0.00    +0.000 C 
ATOM     13  N   UNL     1       4.096   3.515  19.833  0.00  0.00    +0.000 N 
ATOM     14  C   UNL     1       3.764   4.832  19.715  0.00  0.00    +0.000 C 
ATOM     15  O   UNL     1       4.614   5.610  19.281  0.00  0.00    +0.000 OA
ATOM     16  H   UNL     1       5.073   3.329  19.646  0.00  0.00    +0.000 HD
ENDBRANCH   4   9
BRANCH   8  17
ATOM     17  O   UNL     1       0.900  10.550  19.709  0.00  0.00    +0.000 OA
BRANCH  17  18
ATOM     18  C   UNL     1      -0.399  10.942  19.491  0.00  0.00    +0.000 A 
ATOM     19  C   UNL     1      -0.991  10.481  18.317  0.00  0.00    +0.000 A 
ATOM     20  C   UNL     1      -2.268  10.917  17.963  0.00  0.00    +0.000 A 
ATOM     21  C   UNL     1      -2.951  11.810  18.794  0.00  0.00    +0.000 A 
ATOM     22  C   UNL     1      -2.401  12.240  20.010  0.00  0.00    +0.000 A 
ATOM     23  C   UNL     1      -1.126  11.757  20.363  0.00  0.00    +0.000 A 
BRANCH  22  24
ATOM     24  C   UNL     1      -3.124  13.219  20.923  0.00  0.00    +0.000 C 
ATOM     25  C   UNL     1      -3.184  12.689  22.359  0.00  0.00    +0.000 C 
ATOM     26  C   UNL     1      -2.484  14.612  20.898  0.00  0.00    +0.000 C 
ENDBRANCH  22  24
BRANCH  21  27
ATOM     27  O   UNL     1      -4.180  12.272  18.412  0.00  0.00    +0.000 OA
ATOM     28  H   UNL     1      -4.309  13.162  18.778  0.00  0.00    +0.000 HD
ENDBRANCH  21  27
ENDBRANCH  17  18
ENDBRANCH   8  17
TORSDOF 5
ENDMDL
MODEL 5
REMARK VINA RESULT:      -7.1      0.992      1.025
REMARK  Name = 
REMARK  9 active torsions:
REMARK  status: ('A' for Active; 'I' for Inactive)
REMARK    1  A    between atoms: C_1  and  C_2
REMARK    2  A    between atoms: C_4  and  N_5
REMARK    3  A    between atoms: C_13  and  C_14
REMARK    4  A    between atoms: C_15  and  O_16
REMARK    5  A    between atoms: O_16  and  C_17
REMARK    6  A    between atoms: C_20  and  O_21
REMARK    7  A    between atoms: C_22  and  C_23
REMARK    8  A    between atoms: C_23  and  C_24
REMARK    9  A    between atoms: C_23  and  C_25
REMARK                            x       y       z     vdW  Elec       q    Type
REMARK                         _______ _______ _______ _____ _____    ______ ____
ROOT
ATOM      1  C   UNL     1       0.304   8.900  22.312  0.00  0.00    +0.000 C 
ATOM      2  C   UNL     1       0.898   8.376  21.033  0.00  0.00    +0.000 A 
ATOM      3  C   UNL     1       1.106   6.989  20.962  0.00  0.00    +0.000 A 
ATOM      4  C   UNL     1       1.792   6.403  19.894  0.00  0.00    +0.000 A 
ATOM      5  C   UNL     1       2.237   7.209  18.847  0.00  0.00    +0.000 A 
ATOM      6  C   UNL     1       1.946   8.584  18.832  0.00  0.00    +0.000 A 
ATOM      7  C   UNL     1       2.346   9.402  17.632  0.00  0.00    +0.000 C 
ATOM      8  C   UNL     1       1.276   9.172  19.930  0.00  0.00    +0.000 A 
ENDROOT
BRANCH   4   9
ATOM      9  N   UNL     1       2.056   5.010  19.922  0.00  0.00    +0.000 N 
ATOM     10  C   UNL     1       2.596   4.448  21.156  0.00  0.00    +0.000 C 
ATOM     11  C   UNL     1       2.217   2.982  21.298  0.00  0.00    +0.000 C 
ATOM     12  C   UNL     1       2.688   2.275  20.048  0.00  0.00    +0.000 C 
ATOM     13  N   UNL     1       2.145   2.920  18.881  0.00  0.00    +0.000 N 
ATOM     14  C   UNL     1       1.890   4.255  18.769  0.00  0.00    +0.000 C 
ATOM     15  O   UNL     1       1.536   4.690  17.672  0.00  0.00    +0.000 OA
ATOM     16  H   UNL     1       2.119   2.431  17.995  0.00  0.00    +0.000 HD
ENDBRANCH   4   9
BRANCH   8  17
ATOM     17  O   UNL     1       1.137  10.547  19.865  0.00  0.00    +0.000 OA
BRANCH  17  18
ATOM     18  C   UNL     1      -0.096  11.106  19.624  0.00  0.00    +0.000 A 
ATOM     19  C   UNL     1      -0.492  12.119  20.495  0.00  0.00    +0.000 A 
ATOM     20  C   UNL     1      -1.771  12.666  20.391  0.00  0.00    +0.000 A 
ATOM     21  C   UNL     1      -2.647  12.200  19.407  0.00  0.00    +0.000 A 
ATOM     22  C   UNL     1      -2.249  11.225  18.481  0.00  0.00    +0.000 A 
ATOM     23  C   UNL     1      -0.941  10.714  18.583  0.00  0.00    +0.000 A 
BRANCH  22  24
ATOM     24  C   UNL     1      -3.191  10.697  17.408  0.00  0.00    +0.000 C 
ATOM     25  C   UNL     1      -2.473  10.566  16.062  0.00  0.00    +0.000 C 
ATOM     26  C   UNL     1      -3.824   9.357  17.804  0.00  0.00    +0.000 C 
ENDBRANCH  22  24
BRANCH  21  27
ATOM     27  O   UNL     1      -3.916  12.705  19.347  0.00  0.00    +0.000 OA
ATOM     28  H   UNL     1      -4.400  12.434  20.144  0.00  0.00    +0.000 HD
ENDBRANCH  21  27
ENDBRANCH  17  18
ENDBRANCH   8  17
TORSDOF 5
ENDMDL
MODEL 6
REMARK VINA RESULT:      -7.0      5.212      9.188
REMARK  Name = 
REMARK  9 active torsions:
REMARK  status: ('A' for Active; 'I' for Inactive)
REMARK    1  A    between atoms: C_1  and  C_2
REMARK    2  A    between atoms: C_4  and  N_5
REMARK    3  A    between atoms: C_13  and  C_14
REMARK    4  A    between atoms: C_15  and  O_16
REMARK    5  A    between atoms: O_16  and  C_17
REMARK    6  A    between atoms: C_20  and  O_21
REMARK    7  A    between atoms: C_22  and  C_23
REMARK    8  A    between atoms: C_23  and  C_24
REMARK    9  A    between atoms: C_23  and  C_25
REMARK                            x       y       z     vdW  Elec       q    Type
REMARK                         _______ _______ _______ _____ _____    ______ ____
ROOT
ATOM      1  C   UNL     1       6.717   6.706  17.292  0.00  0.00    +0.000 C 
ATOM      2  C   UNL     1       5.278   6.277  17.380  0.00  0.00    +0.000 A 
ATOM      3  C   UNL     1       4.373   7.221  17.894  0.00  0.00    +0.000 A 
ATOM      4  C   UNL     1       3.044   6.890  18.170  0.00  0.00    +0.000 A 
ATOM      5  C   UNL     1       2.589   5.604  17.879  0.00  0.00    +0.000 A 
ATOM      6  C   UNL     1       3.436   4.671  17.258  0.00  0.00    +0.000 A 
ATOM      7  C   UNL     1       2.878   3.330  16.859  0.00  0.00    +0.000 C 
ATOM      8  C   UNL     1       4.788   5.006  17.010  0.00  0.00    +0.000 A 
ENDROOT
BRANCH   4   9
ATOM      9  N   UNL     1       2.202   7.855  18.778  0.00  0.00    +0.000 N 
ATOM     10  C   UNL     1       1.928   9.080  18.034  0.00  0.00    +0.000 C 
ATOM     11  C   UNL     1       0.587   9.673  18.435  0.00  0.00    +0.000 C 
ATOM     12  C   UNL     1       0.610   9.861  19.934  0.00  0.00    +0.000 C 
ATOM     13  N   UNL     1       0.929   8.617  20.584  0.00  0.00    +0.000 N 
ATOM     14  C   UNL     1       1.751   7.654  20.076  0.00  0.00    +0.000 C 
ATOM     15  O   UNL     1       2.031   6.691  20.791  0.00  0.00    +0.000 OA
ATOM     16  H   UNL     1       0.716   8.486  21.565  0.00  0.00    +0.000 HD
ENDBRANCH   4   9
BRANCH   8  17
ATOM     17  O   UNL     1       5.562   3.980  16.497  0.00  0.00    +0.000 OA
BRANCH  17  18
ATOM     18  C   UNL     1       6.098   4.084  15.236  0.00  0.00    +0.000 A 
ATOM     19  C   UNL     1       7.239   4.875  15.115  0.00  0.00    +0.000 A 
ATOM     20  C   UNL     1       7.784   5.121  13.855  0.00  0.00    +0.000 A 
ATOM     21  C   UNL     1       7.187   4.567  12.720  0.00  0.00    +0.000 A 
ATOM     22  C   UNL     1       6.076   3.718  12.822  0.00  0.00    +0.000 A 
ATOM     23  C   UNL     1       5.565   3.454  14.108  0.00  0.00    +0.000 A 
BRANCH  22  24
ATOM     24  C   UNL     1       5.406   3.112  11.597  0.00  0.00    +0.000 C 
ATOM     25  C   UNL     1       5.721   1.618  11.481  0.00  0.00    +0.000 C 
ATOM     26  C   UNL     1       3.889   3.336  11.599  0.00  0.00    +0.000 C 
ENDBRANCH  22  24
BRANCH  21  27
ATOM     27  O   UNL     1       7.698   4.858  11.485  0.00  0.00    +0.000 OA
ATOM     28  H   UNL     1       7.026   4.665  10.812  0.00  0.00    +0.000 HD
ENDBRANCH  21  27
ENDBRANCH  17  18
ENDBRANCH   8  17
TORSDOF 5
ENDMDL
MODEL 7
REMARK VINA RESULT:      -7.0      0.845      2.771
REMARK  Name = 
REMARK  9 active torsions:
REMARK  status: ('A' for Active; 'I' for Inactive)
REMARK    1  A    between atoms: C_1  and  C_2
REMARK    2  A    between atoms: C_4  and  N_5
REMARK    3  A    between atoms: C_13  and  C_14
REMARK    4  A    between atoms: C_15  and  O_16
REMARK    5  A    between atoms: O_16  and  C_17
REMARK    6  A    between atoms: C_20  and  O_21
REMARK    7  A    between atoms: C_22  and  C_23
REMARK    8  A    between atoms: C_23  and  C_24
REMARK    9  A    between atoms: C_23  and  C_25
REMARK                            x       y       z     vdW  Elec       q    Type
REMARK                         _______ _______ _______ _____ _____    ______ ____
ROOT
ATOM      1  C   UNL     1       2.119   9.536  17.656  0.00  0.00    +0.000 C 
ATOM      2  C   UNL     1       1.847   8.823  18.952  0.00  0.00    +0.000 A 
ATOM      3  C   UNL     1       2.229   7.473  19.016  0.00  0.00    +0.000 A 
ATOM      4  C   UNL     1       1.889   6.665  20.104  0.00  0.00    +0.000 A 
ATOM      5  C   UNL     1       1.199   7.225  21.179  0.00  0.00    +0.000 A 
ATOM      6  C   UNL     1       0.902   8.598  21.198  0.00  0.00    +0.000 A 
ATOM      7  C   UNL     1       0.255   9.189  22.423  0.00  0.00    +0.000 C 
ATOM      8  C   UNL     1       1.225   9.402  20.079  0.00  0.00    +0.000 A 
ENDROOT
BRANCH   4   9
ATOM      9  N   UNL     1       2.217   5.286  20.071  0.00  0.00    +0.000 N 
ATOM     10  C   UNL     1       1.181   4.333  20.457  0.00  0.00    +0.000 C 
ATOM     11  C   UNL     1       1.395   2.990  19.777  0.00  0.00    +0.000 C 
ATOM     12  C   UNL     1       2.797   2.536  20.113  0.00  0.00    +0.000 C 
ATOM     13  N   UNL     1       3.748   3.551  19.740  0.00  0.00    +0.000 N 
ATOM     14  C   UNL     1       3.516   4.894  19.772  0.00  0.00    +0.000 C 
ATOM     15  O   UNL     1       4.457   5.653  19.538  0.00  0.00    +0.000 OA
ATOM     16  H   UNL     1       4.726   3.315  19.629  0.00  0.00    +0.000 HD
ENDBRANCH   4   9
BRANCH   8  17
ATOM     17  O   UNL     1       0.791  10.714  20.155  0.00  0.00    +0.000 OA
BRANCH  17  18
ATOM     18  C   UNL     1      -0.491  11.040  19.783  0.00  0.00    +0.000 A 
ATOM     19  C   UNL     1      -0.989  10.387  18.658  0.00  0.00    +0.000 A 
ATOM     20  C   UNL     1      -2.240  10.735  18.147  0.00  0.00    +0.000 A 
ATOM     21  C   UNL     1      -2.990  11.734  18.773  0.00  0.00    +0.000 A 
ATOM     22  C   UNL     1      -2.537  12.362  19.942  0.00  0.00    +0.000 A 
ATOM     23  C   UNL     1      -1.288  11.967  20.459  0.00  0.00    +0.000 A 
BRANCH  22  24
ATOM     24  C   UNL     1      -3.335  13.458  20.632  0.00  0.00    +0.000 C 
ATOM     25  C   UNL     1      -4.325  12.866  21.640  0.00  0.00    +0.000 C 
ATOM     26  C   UNL     1      -2.429  14.486  21.321  0.00  0.00    +0.000 C 
ENDBRANCH  22  24
BRANCH  21  27
ATOM     27  O   UNL     1      -4.191  12.105  18.234  0.00  0.00    +0.000 OA
ATOM     28  H   UNL     1      -4.443  11.461  17.552  0.00  0.00    +0.000 HD
ENDBRANCH  21  27
ENDBRANCH  17  18
ENDBRANCH   8  17
TORSDOF 5
ENDMDL
MODEL 8
REMARK VINA RESULT:      -6.9      1.526      2.009
REMARK  Name = 
REMARK  9 active torsions:
REMARK  status: ('A' for Active; 'I' for Inactive)
REMARK    1  A    between atoms: C_1  and  C_2
REMARK    2  A    between atoms: C_4  and  N_5
REMARK    3  A    between atoms: C_13  and  C_14
REMARK    4  A    between atoms: C_15  and  O_16
REMARK    5  A    between atoms: O_16  and  C_17
REMARK    6  A    between atoms: C_20  and  O_21
REMARK    7  A    between atoms: C_22  and  C_23
REMARK    8  A    between atoms: C_23  and  C_24
REMARK    9  A    between atoms: C_23  and  C_25
REMARK                            x       y       z     vdW  Elec       q    Type
REMARK                         _______ _______ _______ _____ _____    ______ ____
ROOT
ATOM      1  C   UNL     1       0.910   7.726  21.697  0.00  0.00    +0.000 C 
ATOM      2  C   UNL     1       1.552   7.383  20.381  0.00  0.00    +0.000 A 
ATOM      3  C   UNL     1       1.791   6.021  20.137  0.00  0.00    +0.000 A 
ATOM      4  C   UNL     1       2.520   5.591  19.025  0.00  0.00    +0.000 A 
ATOM      5  C   UNL     1       2.977   6.534  18.105  0.00  0.00    +0.000 A 
ATOM      6  C   UNL     1       2.658   7.893  18.259  0.00  0.00    +0.000 A 
ATOM      7  C   UNL     1       3.075   8.867  17.187  0.00  0.00    +0.000 C 
ATOM      8  C   UNL     1       1.944   8.322  19.402  0.00  0.00    +0.000 A 
ENDROOT
BRANCH   4   9
ATOM      9  N   UNL     1       2.813   4.211  18.881  0.00  0.00    +0.000 N 
ATOM     10  C   UNL     1       4.077   3.726  19.425  0.00  0.00    +0.000 C 
ATOM     11  C   UNL     1       3.981   2.257  19.802  0.00  0.00    +0.000 C 
ATOM     12  C   UNL     1       3.518   1.508  18.574  0.00  0.00    +0.000 C 
ATOM     13  N   UNL     1       2.292   2.078  18.080  0.00  0.00    +0.000 N 
ATOM     14  C   UNL     1       1.952   3.396  18.156  0.00  0.00    +0.000 C 
ATOM     15  O   UNL     1       0.924   3.766  17.588  0.00  0.00    +0.000 OA
ATOM     16  H   UNL     1       1.700   1.547  17.454  0.00  0.00    +0.000 HD
ENDBRANCH   4   9
BRANCH   8  17
ATOM     17  O   UNL     1       1.778   9.691  19.511  0.00  0.00    +0.000 OA
BRANCH  17  18
ATOM     18  C   UNL     1       0.555  10.261  19.247  0.00  0.00    +0.000 A 
ATOM     19  C   UNL     1       0.145  11.268  20.119  0.00  0.00    +0.000 A 
ATOM     20  C   UNL     1      -1.127  11.825  19.990  0.00  0.00    +0.000 A 
ATOM     21  C   UNL     1      -1.982  11.376  18.980  0.00  0.00    +0.000 A 
ATOM     22  C   UNL     1      -1.569  10.409  18.053  0.00  0.00    +0.000 A 
ATOM     23  C   UNL     1      -0.267   9.887  18.181  0.00  0.00    +0.000 A 
BRANCH  22  24
ATOM     24  C   UNL     1      -2.488   9.900  16.952  0.00  0.00    +0.000 C 
ATOM     25  C   UNL     1      -3.828   9.433  17.527  0.00  0.00    +0.000 C 
ATOM     26  C   UNL     1      -2.717  10.951  15.859  0.00  0.00    +0.000 C 
ENDBRANCH  22  24
BRANCH  21  27
ATOM     27  O   UNL     1      -3.246  11.891  18.895  0.00  0.00    +0.000 OA
ATOM     28  H   UNL     1      -3.770  11.565  19.645  0.00  0.00    +0.000 HD
ENDBRANCH  21  27
ENDBRANCH  17  18
ENDBRANCH   8  17
TORSDOF 5
ENDMDL
MODEL 9
REMARK VINA RESULT:      -6.9      1.644      2.654
REMARK  Name = 
REMARK  9 active torsions:
REMARK  status: ('A' for Active; 'I' for Inactive)
REMARK    1  A    between atoms: C_1  and  C_2
REMARK    2  A    between atoms: C_4  and  N_5
REMARK    3  A    between atoms: C_13  and  C_14
REMARK    4  A    between atoms: C_15  and  O_16
REMARK    5  A    between atoms: O_16  and  C_17
REMARK    6  A    between atoms: C_20  and  O_21
REMARK    7  A    between atoms: C_22  and  C_23
REMARK    8  A    between atoms: C_23  and  C_24
REMARK    9  A    between atoms: C_23  and  C_25
REMARK                            x       y       z     vdW  Elec       q    Type
REMARK                         _______ _______ _______ _____ _____    ______ ____
ROOT
ATOM      1  C   UNL     1       2.810   9.031  17.306  0.00  0.00    +0.000 C 
ATOM      2  C   UNL     1       2.468   8.100  18.438  0.00  0.00    +0.000 A 
ATOM      3  C   UNL     1       2.829   6.753  18.271  0.00  0.00    +0.000 A 
ATOM      4  C   UNL     1       2.428   5.768  19.177  0.00  0.00    +0.000 A 
ATOM      5  C   UNL     1       1.694   6.138  20.304  0.00  0.00    +0.000 A 
ATOM      6  C   UNL     1       1.414   7.491  20.560  0.00  0.00    +0.000 A 
ATOM      7  C   UNL     1       0.716   7.863  21.843  0.00  0.00    +0.000 C 
ATOM      8  C   UNL     1       1.799   8.477  19.623  0.00  0.00    +0.000 A 
ENDROOT
BRANCH   4   9
ATOM      9  N   UNL     1       2.740   4.412  18.908  0.00  0.00    +0.000 N 
ATOM     10  C   UNL     1       3.941   3.857  19.523  0.00  0.00    +0.000 C 
ATOM     11  C   UNL     1       3.811   2.355  19.717  0.00  0.00    +0.000 C 
ATOM     12  C   UNL     1       3.483   1.756  18.369  0.00  0.00    +0.000 C 
ATOM     13  N   UNL     1       2.314   2.389  17.817  0.00  0.00    +0.000 N 
ATOM     14  C   UNL     1       1.963   3.693  18.008  0.00  0.00    +0.000 C 
ATOM     15  O   UNL     1       1.000   4.134  17.381  0.00  0.00    +0.000 OA
ATOM     16  H   UNL     1       1.794   1.938  17.075  0.00  0.00    +0.000 HD
ENDBRANCH   4   9
BRANCH   8  17
ATOM     17  O   UNL     1       1.379   9.763  19.917  0.00  0.00    +0.000 OA
BRANCH  17  18
ATOM     18  C   UNL     1       0.388  10.353  19.170  0.00  0.00    +0.000 A 
ATOM     19  C   UNL     1       0.371  11.746  19.162  0.00  0.00    +0.000 A 
ATOM     20  C   UNL     1      -0.663  12.427  18.519  0.00  0.00    +0.000 A 
ATOM     21  C   UNL     1      -1.675  11.706  17.879  0.00  0.00    +0.000 A 
ATOM     22  C   UNL     1      -1.647  10.305  17.821  0.00  0.00    +0.000 A 
ATOM     23  C   UNL     1      -0.573   9.642  18.446  0.00  0.00    +0.000 A 
BRANCH  22  24
ATOM     24  C   UNL     1      -2.744   9.502  17.138  0.00  0.00    +0.000 C 
ATOM     25  C   UNL     1      -4.101   9.750  17.801  0.00  0.00    +0.000 C 
ATOM     26  C   UNL     1      -2.826   9.799  15.635  0.00  0.00    +0.000 C 
ENDBRANCH  22  24
BRANCH  21  27
ATOM     27  O   UNL     1      -2.712  12.381  17.298  0.00  0.00    +0.000 OA
ATOM     28  H   UNL     1      -3.285  12.740  17.996  0.00  0.00    +0.000 HD
ENDBRANCH  21  27
ENDBRANCH  17  18
ENDBRANCH   8  17
TORSDOF 5
ENDMDL
