MODEL 1
REMARK VINA RESULT:      -7.3      0.000      0.000
REMARK  Name = 
REMARK  8 active torsions:
REMARK  status: ('A' for Active; 'I' for Inactive)
REMARK    1  A    between atoms: C_1  and  O_2
REMARK    2  A    between atoms: O_2  and  C_3
REMARK    3  A    between atoms: C_6  and  C_7
REMARK    4  A    between atoms: C_8  and  C_9
REMARK    5  A    between atoms: C_12  and  C_13
REMARK    6  A    between atoms: C_18  and  C_19
REMARK    7  A    between atoms: C_28  and  O_29
REMARK    8  A    between atoms: O_29  and  C_30
REMARK                            x       y       z     vdW  Elec       q    Type
REMARK                         _______ _______ _______ _____ _____    ______ ____
ROOT
ATOM      1  C   UNL     1       0.927   9.112  20.953  0.00  0.00    +0.000 A 
ATOM      2  C   UNL     1       1.202   9.663  22.232  0.00  0.00    +0.000 A 
ATOM      3  C   UNL     1       2.224   9.281  23.242  0.00  0.00    +0.000 C 
ATOM      4  N   UNL     1       0.388  10.680  22.524  0.00  0.00    +0.000 NA
ATOM      5  N   UNL     1      -0.427  10.820  21.457  0.00  0.00    +0.000 N 
ATOM      6  C   UNL     1      -1.470  11.723  21.275  0.00  0.00    +0.000 A 
ATOM      7  C   UNL     1      -2.160  11.719  20.116  0.00  0.00    +0.000 A 
ATOM      8  C   UNL     1      -1.737  10.725  19.086  0.00  0.00    +0.000 A 
ATOM      9  N   UNL     1      -0.801   9.845  19.272  0.00  0.00    +0.000 NA
ATOM     10  C   UNL     1      -0.114   9.886  20.461  0.00  0.00    +0.000 A 
ENDROOT
BRANCH   1  14
ATOM     11  C   UNL     1       2.846   5.804  19.036  0.00  0.00    +0.000 A 
ATOM     12  C   UNL     1       2.760   7.049  18.397  0.00  0.00    +0.000 A 
ATOM     13  C   UNL     1       2.129   8.129  19.015  0.00  0.00    +0.000 A 
ATOM     14  C   UNL     1       1.489   7.967  20.244  0.00  0.00    +0.000 A 
ATOM     15  C   UNL     1       1.455   6.682  20.802  0.00  0.00    +0.000 A 
ATOM     16  C   UNL     1       2.136   5.601  20.226  0.00  0.00    +0.000 A 
BRANCH  11  18
ATOM     17  C   UNL     1       4.946   4.734  18.977  0.00  0.00    +0.000 C 
ATOM     18  O   UNL     1       3.599   4.794  18.500  0.00  0.00    +0.000 OA
ENDBRANCH  11  18
BRANCH  16  19
ATOM     19  O   UNL     1       2.020   4.467  20.987  0.00  0.00    +0.000 OA
ATOM     20  C   UNL     1       1.115   3.453  20.592  0.00  0.00    +0.000 C 
ENDBRANCH  16  19
ENDBRANCH   1  14
BRANCH   8  21
ATOM     21  C   UNL     1      -2.483  10.747  17.791  0.00  0.00    +0.000 A 
ATOM     22  C   UNL     1      -3.643  11.514  17.630  0.00  0.00    +0.000 A 
ATOM     23  C   UNL     1      -4.345  11.482  16.422  0.00  0.00    +0.000 A 
ATOM     24  C   UNL     1      -3.884  10.698  15.367  0.00  0.00    +0.000 A 
ATOM     25  C   UNL     1      -2.706   9.963  15.507  0.00  0.00    +0.000 A 
ATOM     26  C   UNL     1      -2.000   9.993  16.713  0.00  0.00    +0.000 A 
ENDBRANCH   8  21
BRANCH   6  27
ATOM     27  C   UNL     1      -1.829  12.651  22.368  0.00  0.00    +0.000 C 
ATOM     28  F   UNL     1      -0.839  13.417  22.880  0.00  0.00    +0.000 F 
ATOM     29  F   UNL     1      -2.805  13.511  21.959  0.00  0.00    +0.000 F 
ATOM     30  F   UNL     1      -2.364  11.967  23.418  0.00  0.00    +0.000 F 
ENDBRANCH   6  27
TORSDOF 5
ENDMDL
MODEL 2
REMARK VINA RESULT:      -7.3      0.455      1.009
REMARK  Name = 
REMARK  8 active torsions:
REMARK  status: ('A' for Active; 'I' for Inactive)
REMARK    1  A    between atoms: C_1  and  O_2
REMARK    2  A    between atoms: O_2  and  C_3
REMARK    3  A    between atoms: C_6  and  C_7
REMARK    4  A    between atoms: C_8  and  C_9
REMARK    5  A    between atoms: C_12  and  C_13
REMARK    6  A    between atoms: C_18  and  C_19
REMARK    7  A    between atoms: C_28  and  O_29
REMARK    8  A    between atoms: O_29  and  C_30
REMARK                            x       y       z     vdW  Elec       q    Type
REMARK                         _______ _______ _______ _____ _____    ______ ____
ROOT
ATOM      1  C   UNL     1       0.971   9.105  20.863  0.00  0.00    +0.000 A 
ATOM      2  C   UNL     1       1.255   9.661  22.138  0.00  0.00    +0.000 A 
ATOM      3  C   UNL     1       2.292   9.289  23.137  0.00  0.00    +0.000 C 
ATOM      4  N   UNL     1       0.436  10.672  22.438  0.00  0.00    +0.000 NA
ATOM      5  N   UNL     1      -0.392  10.803  21.379  0.00  0.00    +0.000 N 
ATOM      6  C   UNL     1      -1.444  11.696  21.208  0.00  0.00    +0.000 A 
ATOM      7  C   UNL     1      -2.147  11.685  20.056  0.00  0.00    +0.000 A 
ATOM      8  C   UNL     1      -1.727  10.692  19.023  0.00  0.00    +0.000 A 
ATOM      9  N   UNL     1      -0.782   9.820  19.200  0.00  0.00    +0.000 NA
ATOM     10  C   UNL     1      -0.082   9.869  20.381  0.00  0.00    +0.000 A 
ENDROOT
BRANCH   1  14
ATOM     11  C   UNL     1       2.900   5.817  18.922  0.00  0.00    +0.000 A 
ATOM     12  C   UNL     1       2.752   7.048  18.267  0.00  0.00    +0.000 A 
ATOM     13  C   UNL     1       2.118   8.121  18.893  0.00  0.00    +0.000 A 
ATOM     14  C   UNL     1       1.534   7.964  20.150  0.00  0.00    +0.000 A 
ATOM     15  C   UNL     1       1.560   6.688  20.729  0.00  0.00    +0.000 A 
ATOM     16  C   UNL     1       2.245   5.616  20.144  0.00  0.00    +0.000 A 
BRANCH  11  18
ATOM     17  C   UNL     1       2.956   3.970  17.458  0.00  0.00    +0.000 C 
ATOM     18  O   UNL     1       3.657   4.819  18.371  0.00  0.00    +0.000 OA
ENDBRANCH  11  18
BRANCH  16  19
ATOM     19  O   UNL     1       2.193   4.493  20.927  0.00  0.00    +0.000 OA
ATOM     20  C   UNL     1       1.173   3.537  20.705  0.00  0.00    +0.000 C 
ENDBRANCH  16  19
ENDBRANCH   1  14
BRANCH   8  21
ATOM     21  C   UNL     1      -2.488  10.706  17.737  0.00  0.00    +0.000 A 
ATOM     22  C   UNL     1      -2.055   9.974  16.624  0.00  0.00    +0.000 A 
ATOM     23  C   UNL     1      -2.762  10.039  15.421  0.00  0.00    +0.000 A 
ATOM     24  C   UNL     1      -3.911  10.822  15.328  0.00  0.00    +0.000 A 
ATOM     25  C   UNL     1      -4.371  11.522  16.444  0.00  0.00    +0.000 A 
ATOM     26  C   UNL     1      -3.667  11.457  17.650  0.00  0.00    +0.000 A 
ENDBRANCH   8  21
BRANCH   6  27
ATOM     27  C   UNL     1      -1.799  12.624  22.303  0.00  0.00    +0.000 C 
ATOM     28  F   UNL     1      -0.813  13.411  22.790  0.00  0.00    +0.000 F 
ATOM     29  F   UNL     1      -2.799  13.463  21.910  0.00  0.00    +0.000 F 
ATOM     30  F   UNL     1      -2.299  11.935  23.367  0.00  0.00    +0.000 F 
ENDBRANCH   6  27
TORSDOF 5
ENDMDL
MODEL 3
REMARK VINA RESULT:      -6.9      4.932      7.070
REMARK  Name = 
REMARK  8 active torsions:
REMARK  status: ('A' for Active; 'I' for Inactive)
REMARK    1  A    between atoms: C_1  and  O_2
REMARK    2  A    between atoms: O_2  and  C_3
REMARK    3  A    between atoms: C_6  and  C_7
REMARK    4  A    between atoms: C_8  and  C_9
REMARK    5  A    between atoms: C_12  and  C_13
REMARK    6  A    between atoms: C_18  and  C_19
REMARK    7  A    between atoms: C_28  and  O_29
REMARK    8  A    between atoms: O_29  and  C_30
REMARK                            x       y       z     vdW  Elec       q    Type
REMARK                         _______ _______ _______ _____ _____    ______ ____
ROOT
ATOM      1  C   UNL     1       1.336  13.597  19.047  0.00  0.00    +0.000 A 
ATOM      2  C   UNL     1       0.146  14.328  18.790  0.00  0.00    +0.000 A 
ATOM      3  C   UNL     1      -0.101  15.794  18.799  0.00  0.00    +0.000 C 
ATOM      4  N   UNL     1      -0.881  13.526  18.499  0.00  0.00    +0.000 NA
ATOM      5  N   UNL     1      -0.395  12.267  18.555  0.00  0.00    +0.000 N 
ATOM      6  C   UNL     1      -1.070  11.068  18.358  0.00  0.00    +0.000 A 
ATOM      7  C   UNL     1      -0.396   9.902  18.436  0.00  0.00    +0.000 A 
ATOM      8  C   UNL     1       1.065   9.991  18.731  0.00  0.00    +0.000 A 
ATOM      9  N   UNL     1       1.688  11.104  18.970  0.00  0.00    +0.000 NA
ATOM     10  C   UNL     1       0.971  12.271  18.871  0.00  0.00    +0.000 A 
ENDROOT
BRANCH   1  14
ATOM     11  C   UNL     1       5.107  15.116  20.376  0.00  0.00    +0.000 A 
ATOM     12  C   UNL     1       4.759  15.156  19.019  0.00  0.00    +0.000 A 
ATOM     13  C   UNL     1       3.533  14.656  18.580  0.00  0.00    +0.000 A 
ATOM     14  C   UNL     1       2.667  14.021  19.470  0.00  0.00    +0.000 A 
ATOM     15  C   UNL     1       3.093  13.857  20.794  0.00  0.00    +0.000 A 
ATOM     16  C   UNL     1       4.292  14.407  21.267  0.00  0.00    +0.000 A 
BRANCH  11  18
ATOM     17  C   UNL     1       7.462  15.206  20.327  0.00  0.00    +0.000 C 
ATOM     18  O   UNL     1       6.236  15.747  20.826  0.00  0.00    +0.000 OA
ENDBRANCH  11  18
BRANCH  16  19
ATOM     19  O   UNL     1       4.459  14.181  22.607  0.00  0.00    +0.000 OA
ATOM     20  C   UNL     1       5.518  13.349  23.046  0.00  0.00    +0.000 C 
ENDBRANCH  16  19
ENDBRANCH   1  14
BRANCH   8  21
ATOM     21  C   UNL     1       1.815   8.699  18.784  0.00  0.00    +0.000 A 
ATOM     22  C   UNL     1       2.619   8.276  17.719  0.00  0.00    +0.000 A 
ATOM     23  C   UNL     1       3.274   7.043  17.778  0.00  0.00    +0.000 A 
ATOM     24  C   UNL     1       3.141   6.235  18.905  0.00  0.00    +0.000 A 
ATOM     25  C   UNL     1       2.374   6.668  19.988  0.00  0.00    +0.000 A 
ATOM     26  C   UNL     1       1.719   7.902  19.933  0.00  0.00    +0.000 A 
ENDBRANCH   8  21
BRANCH   6  27
ATOM     27  C   UNL     1      -2.526  11.085  18.097  0.00  0.00    +0.000 C 
ATOM     28  F   UNL     1      -2.947  11.724  16.983  0.00  0.00    +0.000 F 
ATOM     29  F   UNL     1      -3.008   9.813  18.013  0.00  0.00    +0.000 F 
ATOM     30  F   UNL     1      -3.190  11.658  19.140  0.00  0.00    +0.000 F 
ENDBRANCH   6  27
TORSDOF 5
ENDMDL
MODEL 4
REMARK VINA RESULT:      -6.8      0.774      1.924
REMARK  Name = 
REMARK  8 active torsions:
REMARK  status: ('A' for Active; 'I' for Inactive)
REMARK    1  A    between atoms: C_1  and  O_2
REMARK    2  A    between atoms: O_2  and  C_3
REMARK    3  A    between atoms: C_6  and  C_7
REMARK    4  A    between atoms: C_8  and  C_9
REMARK    5  A    between atoms: C_12  and  C_13
REMARK    6  A    between atoms: C_18  and  C_19
REMARK    7  A    between atoms: C_28  and  O_29
REMARK    8  A    between atoms: O_29  and  C_30
REMARK                            x       y       z     vdW  Elec       q    Type
REMARK                         _______ _______ _______ _____ _____    ______ ____
ROOT
ATOM      1  C   UNL     1       0.993   9.005  21.068  0.00  0.00    +0.000 A 
ATOM      2  C   UNL     1       1.262   9.589  22.334  0.00  0.00    +0.000 A 
ATOM      3  C   UNL     1       2.268   9.221  23.366  0.00  0.00    +0.000 C 
ATOM      4  N   UNL     1       0.460  10.625  22.588  0.00  0.00    +0.000 NA
ATOM      5  N   UNL     1      -0.342  10.746  21.508  0.00  0.00    +0.000 N 
ATOM      6  C   UNL     1      -1.369  11.658  21.290  0.00  0.00    +0.000 A 
ATOM      7  C   UNL     1      -2.046  11.631  20.124  0.00  0.00    +0.000 A 
ATOM      8  C   UNL     1      -1.627  10.601  19.127  0.00  0.00    +0.000 A 
ATOM      9  N   UNL     1      -0.706   9.714  19.349  0.00  0.00    +0.000 NA
ATOM     10  C   UNL     1      -0.032   9.779  20.543  0.00  0.00    +0.000 A 
ENDROOT
BRANCH   1  14
ATOM     11  C   UNL     1       2.347   5.559  18.926  0.00  0.00    +0.000 A 
ATOM     12  C   UNL     1       1.744   5.428  20.184  0.00  0.00    +0.000 A 
ATOM     13  C   UNL     1       1.307   6.548  20.890  0.00  0.00    +0.000 A 
ATOM     14  C   UNL     1       1.545   7.832  20.399  0.00  0.00    +0.000 A 
ATOM     15  C   UNL     1       2.280   7.954  19.212  0.00  0.00    +0.000 A 
ATOM     16  C   UNL     1       2.673   6.839  18.459  0.00  0.00    +0.000 A 
BRANCH  11  18
ATOM     17  C   UNL     1       3.702   3.648  18.665  0.00  0.00    +0.000 C 
ATOM     18  O   UNL     1       2.631   4.455  18.168  0.00  0.00    +0.000 OA
ENDBRANCH  11  18
BRANCH  16  19
ATOM     19  O   UNL     1       3.312   7.207  17.305  0.00  0.00    +0.000 OA
ATOM     20  C   UNL     1       4.697   6.952  17.165  0.00  0.00    +0.000 C 
ENDBRANCH  16  19
ENDBRANCH   1  14
BRANCH   8  21
ATOM     21  C   UNL     1      -2.360  10.597  17.824  0.00  0.00    +0.000 A 
ATOM     22  C   UNL     1      -1.921   9.823  16.742  0.00  0.00    +0.000 A 
ATOM     23  C   UNL     1      -2.600   9.872  15.522  0.00  0.00    +0.000 A 
ATOM     24  C   UNL     1      -3.727  10.680  15.381  0.00  0.00    +0.000 A 
ATOM     25  C   UNL     1      -4.193  11.421  16.467  0.00  0.00    +0.000 A 
ATOM     26  C   UNL     1      -3.518  11.374  17.690  0.00  0.00    +0.000 A 
ENDBRANCH   8  21
BRANCH   6  27
ATOM     27  C   UNL     1      -1.726  12.623  22.352  0.00  0.00    +0.000 C 
ATOM     28  F   UNL     1      -0.733  13.398  22.842  0.00  0.00    +0.000 F 
ATOM     29  F   UNL     1      -2.695  13.475  21.913  0.00  0.00    +0.000 F 
ATOM     30  F   UNL     1      -2.268  11.975  23.421  0.00  0.00    +0.000 F 
ENDBRANCH   6  27
TORSDOF 5
ENDMDL
MODEL 5
REMARK VINA RESULT:      -6.7      4.903      7.197
REMARK  Name = 
REMARK  8 active torsions:
REMARK  status: ('A' for Active; 'I' for Inactive)
REMARK    1  A    between atoms: C_1  and  O_2
REMARK    2  A    between atoms: O_2  and  C_3
REMARK    3  A    between atoms: C_6  and  C_7
REMARK    4  A    between atoms: C_8  and  C_9
REMARK    5  A    between atoms: C_12  and  C_13
REMARK    6  A    between atoms: C_18  and  C_19
REMARK    7  A    between atoms: C_28  and  O_29
REMARK    8  A    between atoms: O_29  and  C_30
REMARK                            x       y       z     vdW  Elec       q    Type
REMARK                         _______ _______ _______ _____ _____    ______ ____
ROOT
ATOM      1  C   UNL     1       1.165  13.697  19.161  0.00  0.00    +0.000 A 
ATOM      2  C   UNL     1      -0.034  14.404  18.880  0.00  0.00    +0.000 A 
ATOM      3  C   UNL     1      -0.319  15.863  18.918  0.00  0.00    +0.000 C 
ATOM      4  N   UNL     1      -1.028  13.584  18.530  0.00  0.00    +0.000 NA
ATOM      5  N   UNL     1      -0.511  12.337  18.571  0.00  0.00    +0.000 N 
ATOM      6  C   UNL     1      -1.148  11.127  18.317  0.00  0.00    +0.000 A 
ATOM      7  C   UNL     1      -0.446   9.977  18.390  0.00  0.00    +0.000 A 
ATOM      8  C   UNL     1       1.000  10.094  18.741  0.00  0.00    +0.000 A 
ATOM      9  N   UNL     1       1.585  11.216  19.032  0.00  0.00    +0.000 NA
ATOM     10  C   UNL     1       0.841  12.366  18.937  0.00  0.00    +0.000 A 
ENDROOT
BRANCH   1  14
ATOM     11  C   UNL     1       5.095  14.708  20.514  0.00  0.00    +0.000 A 
ATOM     12  C   UNL     1       4.092  14.359  21.429  0.00  0.00    +0.000 A 
ATOM     13  C   UNL     1       2.807  14.035  20.993  0.00  0.00    +0.000 A 
ATOM     14  C   UNL     1       2.468  14.142  19.644  0.00  0.00    +0.000 A 
ATOM     15  C   UNL     1       3.438  14.634  18.762  0.00  0.00    +0.000 A 
ATOM     16  C   UNL     1       4.751  14.905  19.171  0.00  0.00    +0.000 A 
BRANCH  11  18
ATOM     17  C   UNL     1       6.654  14.427  22.260  0.00  0.00    +0.000 C 
ATOM     18  O   UNL     1       6.390  14.871  20.926  0.00  0.00    +0.000 OA
ENDBRANCH  11  18
BRANCH  16  19
ATOM     19  O   UNL     1       5.536  15.302  18.121  0.00  0.00    +0.000 OA
ATOM     20  C   UNL     1       6.567  14.448  17.662  0.00  0.00    +0.000 C 
ENDBRANCH  16  19
ENDBRANCH   1  14
BRANCH   8  21
ATOM     21  C   UNL     1       1.781   8.821  18.788  0.00  0.00    +0.000 A 
ATOM     22  C   UNL     1       2.617   8.436  17.733  0.00  0.00    +0.000 A 
ATOM     23  C   UNL     1       3.301   7.219  17.785  0.00  0.00    +0.000 A 
ATOM     24  C   UNL     1       3.166   6.389  18.896  0.00  0.00    +0.000 A 
ATOM     25  C   UNL     1       2.367   6.785  19.969  0.00  0.00    +0.000 A 
ATOM     26  C   UNL     1       1.682   8.002  19.921  0.00  0.00    +0.000 A 
ENDBRANCH   8  21
BRANCH   6  27
ATOM     27  C   UNL     1      -2.593  11.115  18.003  0.00  0.00    +0.000 C 
ATOM     28  F   UNL     1      -2.981  11.717  16.856  0.00  0.00    +0.000 F 
ATOM     29  F   UNL     1      -3.053   9.833  17.937  0.00  0.00    +0.000 F 
ATOM     30  F   UNL     1      -3.303  11.706  19.005  0.00  0.00    +0.000 F 
ENDBRANCH   6  27
TORSDOF 5
ENDMDL
MODEL 6
REMARK VINA RESULT:      -6.5      4.401      6.785
REMARK  Name = 
REMARK  8 active torsions:
REMARK  status: ('A' for Active; 'I' for Inactive)
REMARK    1  A    between atoms: C_1  and  O_2
REMARK    2  A    between atoms: O_2  and  C_3
REMARK    3  A    between atoms: C_6  and  C_7
REMARK    4  A    between atoms: C_8  and  C_9
REMARK    5  A    between atoms: C_12  and  C_13
REMARK    6  A    between atoms: C_18  and  C_19
REMARK    7  A    between atoms: C_28  and  O_29
REMARK    8  A    between atoms: O_29  and  C_30
REMARK                            x       y       z     vdW  Elec       q    Type
REMARK                         _______ _______ _______ _____ _____    ______ ____
ROOT
ATOM      1  C   UNL     1      -2.192  11.755  18.972  0.00  0.00    +0.000 A 
ATOM      2  C   UNL     1      -2.667  10.986  17.877  0.00  0.00    +0.000 A 
ATOM      3  C   UNL     1      -1.930  10.104  16.933  0.00  0.00    +0.000 C 
ATOM      4  N   UNL     1      -3.986  11.108  17.714  0.00  0.00    +0.000 NA
ATOM      5  N   UNL     1      -4.403  11.947  18.687  0.00  0.00    +0.000 N 
ATOM      6  C   UNL     1      -5.689  12.417  18.933  0.00  0.00    +0.000 A 
ATOM      7  C   UNL     1      -5.908  13.241  19.979  0.00  0.00    +0.000 A 
ATOM      8  C   UNL     1      -4.723  13.590  20.818  0.00  0.00    +0.000 A 
ATOM      9  N   UNL     1      -3.513  13.198  20.560  0.00  0.00    +0.000 NA
ATOM     10  C   UNL     1      -3.331  12.353  19.493  0.00  0.00    +0.000 A 
ENDROOT
BRANCH   1  14
ATOM     11  C   UNL     1       1.618  12.610  20.719  0.00  0.00    +0.000 A 
ATOM     12  C   UNL     1       1.105  13.415  19.692  0.00  0.00    +0.000 A 
ATOM     13  C   UNL     1      -0.133  13.136  19.115  0.00  0.00    +0.000 A 
ATOM     14  C   UNL     1      -0.847  11.996  19.483  0.00  0.00    +0.000 A 
ATOM     15  C   UNL     1      -0.255  11.121  20.404  0.00  0.00    +0.000 A 
ATOM     16  C   UNL     1       0.959  11.416  21.040  0.00  0.00    +0.000 A 
BRANCH  11  18
ATOM     17  C   UNL     1       3.446  14.094  20.833  0.00  0.00    +0.000 C 
ATOM     18  O   UNL     1       2.754  12.973  21.391  0.00  0.00    +0.000 OA
ENDBRANCH  11  18
BRANCH  16  19
ATOM     19  O   UNL     1       1.300  10.452  21.951  0.00  0.00    +0.000 OA
ATOM     20  C   UNL     1       0.281   9.778  22.665  0.00  0.00    +0.000 C 
ENDBRANCH  16  19
ENDBRANCH   1  14
BRANCH   8  21
ATOM     21  C   UNL     1      -4.977  14.476  21.995  0.00  0.00    +0.000 A 
ATOM     22  C   UNL     1      -6.076  15.343  22.033  0.00  0.00    +0.000 A 
ATOM     23  C   UNL     1      -6.265  16.192  23.126  0.00  0.00    +0.000 A 
ATOM     24  C   UNL     1      -5.367  16.168  24.192  0.00  0.00    +0.000 A 
ATOM     25  C   UNL     1      -4.293  15.278  24.179  0.00  0.00    +0.000 A 
ATOM     26  C   UNL     1      -4.101  14.427  23.088  0.00  0.00    +0.000 A 
ENDBRANCH   8  21
BRANCH   6  27
ATOM     27  C   UNL     1      -6.791  12.034  18.027  0.00  0.00    +0.000 C 
ATOM     28  F   UNL     1      -6.580  12.179  16.700  0.00  0.00    +0.000 F 
ATOM     29  F   UNL     1      -7.131  10.728  18.219  0.00  0.00    +0.000 F 
ATOM     30  F   UNL     1      -7.916  12.748  18.315  0.00  0.00    +0.000 F 
ENDBRANCH   6  27
TORSDOF 5
ENDMDL
MODEL 7
REMARK VINA RESULT:      -6.5      4.877      8.617
REMARK  Name = 
REMARK  8 active torsions:
REMARK  status: ('A' for Active; 'I' for Inactive)
REMARK    1  A    between atoms: C_1  and  O_2
REMARK    2  A    between atoms: O_2  and  C_3
REMARK    3  A    between atoms: C_6  and  C_7
REMARK    4  A    between atoms: C_8  and  C_9
REMARK    5  A    between atoms: C_12  and  C_13
REMARK    6  A    between atoms: C_18  and  C_19
REMARK    7  A    between atoms: C_28  and  O_29
REMARK    8  A    between atoms: O_29  and  C_30
REMARK                            x       y       z     vdW  Elec       q    Type
REMARK                         _______ _______ _______ _____ _____    ______ ____
ROOT
ATOM      1  C   UNL     1      -4.868  12.246  18.617  0.00  0.00    +0.000 A 
ATOM      2  C   UNL     1      -5.680  12.406  17.463  0.00  0.00    +0.000 A 
ATOM      3  C   UNL     1      -6.970  13.126  17.290  0.00  0.00    +0.000 C 
ATOM      4  N   UNL     1      -5.159  11.798  16.395  0.00  0.00    +0.000 NA
ATOM      5  N   UNL     1      -4.007  11.234  16.817  0.00  0.00    +0.000 N 
ATOM      6  C   UNL     1      -3.104  10.463  16.092  0.00  0.00    +0.000 A 
ATOM      7  C   UNL     1      -1.987  10.004  16.693  0.00  0.00    +0.000 A 
ATOM      8  C   UNL     1      -1.797  10.372  18.128  0.00  0.00    +0.000 A 
ATOM      9  N   UNL     1      -2.664  11.044  18.823  0.00  0.00    +0.000 NA
ATOM     10  C   UNL     1      -3.783  11.503  18.174  0.00  0.00    +0.000 A 
ENDROOT
BRANCH   1  14
ATOM     11  C   UNL     1      -5.228  13.206  22.770  0.00  0.00    +0.000 A 
ATOM     12  C   UNL     1      -6.236  12.488  22.112  0.00  0.00    +0.000 A 
ATOM     13  C   UNL     1      -6.127  12.178  20.756  0.00  0.00    +0.000 A 
ATOM     14  C   UNL     1      -5.054  12.658  20.004  0.00  0.00    +0.000 A 
ATOM     15  C   UNL     1      -4.131  13.498  20.641  0.00  0.00    +0.000 A 
ATOM     16  C   UNL     1      -4.191  13.769  22.014  0.00  0.00    +0.000 A 
BRANCH  11  18
ATOM     17  C   UNL     1      -4.476  12.432  24.865  0.00  0.00    +0.000 C 
ATOM     18  O   UNL     1      -5.261  13.372  24.128  0.00  0.00    +0.000 OA
ENDBRANCH  11  18
BRANCH  16  19
ATOM     19  O   UNL     1      -3.144  14.551  22.423  0.00  0.00    +0.000 OA
ATOM     20  C   UNL     1      -3.199  15.950  22.216  0.00  0.00    +0.000 C 
ENDBRANCH  16  19
ENDBRANCH   1  14
BRANCH   8  21
ATOM     21  C   UNL     1      -0.543   9.888  18.781  0.00  0.00    +0.000 A 
ATOM     22  C   UNL     1       0.569   9.494  18.025  0.00  0.00    +0.000 A 
ATOM     23  C   UNL     1       1.713   9.004  18.660  0.00  0.00    +0.000 A 
ATOM     24  C   UNL     1       1.758   8.921  20.050  0.00  0.00    +0.000 A 
ATOM     25  C   UNL     1       0.670   9.350  20.811  0.00  0.00    +0.000 A 
ATOM     26  C   UNL     1      -0.476   9.841  20.179  0.00  0.00    +0.000 A 
ENDBRANCH   8  21
BRANCH   6  27
ATOM     27  C   UNL     1      -3.396  10.131  14.681  0.00  0.00    +0.000 C 
ATOM     28  F   UNL     1      -3.731  11.153  13.862  0.00  0.00    +0.000 F 
ATOM     29  F   UNL     1      -2.324   9.516  14.106  0.00  0.00    +0.000 F 
ATOM     30  F   UNL     1      -4.416   9.230  14.606  0.00  0.00    +0.000 F 
ENDBRANCH   6  27
TORSDOF 5
ENDMDL
MODEL 8
REMARK VINA RESULT:      -6.5      5.888      8.632
REMARK  Name = 
REMARK  8 active torsions:
REMARK  status: ('A' for Active; 'I' for Inactive)
REMARK    1  A    between atoms: C_1  and  O_2
REMARK    2  A    between atoms: O_2  and  C_3
REMARK    3  A    between atoms: C_6  and  C_7
REMARK    4  A    between atoms: C_8  and  C_9
REMARK    5  A    between atoms: C_12  and  C_13
REMARK    6  A    between atoms: C_18  and  C_19
REMARK    7  A    between atoms: C_28  and  O_29
REMARK    8  A    between atoms: O_29  and  C_30
REMARK                            x       y       z     vdW  Elec       q    Type
REMARK                         _______ _______ _______ _____ _____    ______ ____
ROOT
ATOM      1  C   UNL     1      -4.171  12.830  20.768  0.00  0.00    +0.000 A 
ATOM      2  C   UNL     1      -5.257  12.139  20.169  0.00  0.00    +0.000 A 
ATOM      3  C   UNL     1      -6.656  11.959  20.640  0.00  0.00    +0.000 C 
ATOM      4  N   UNL     1      -4.916  11.584  19.004  0.00  0.00    +0.000 NA
ATOM      5  N   UNL     1      -3.616  11.895  18.813  0.00  0.00    +0.000 N 
ATOM      6  C   UNL     1      -2.784  11.530  17.759  0.00  0.00    +0.000 A 
ATOM      7  C   UNL     1      -1.507  11.965  17.738  0.00  0.00    +0.000 A 
ATOM      8  C   UNL     1      -1.074  12.831  18.874  0.00  0.00    +0.000 A 
ATOM      9  N   UNL     1      -1.830  13.129  19.886  0.00  0.00    +0.000 NA
ATOM     10  C   UNL     1      -3.127  12.677  19.868  0.00  0.00    +0.000 A 
ENDROOT
BRANCH   1  14
ATOM     11  C   UNL     1      -3.472  14.856  24.470  0.00  0.00    +0.000 A 
ATOM     12  C   UNL     1      -3.622  13.463  24.435  0.00  0.00    +0.000 A 
ATOM     13  C   UNL     1      -3.856  12.798  23.231  0.00  0.00    +0.000 A 
ATOM     14  C   UNL     1      -4.040  13.516  22.049  0.00  0.00    +0.000 A 
ATOM     15  C   UNL     1      -4.035  14.915  22.125  0.00  0.00    +0.000 A 
ATOM     16  C   UNL     1      -3.739  15.598  23.312  0.00  0.00    +0.000 A 
BRANCH  11  18
ATOM     17  C   UNL     1      -1.673  15.532  25.836  0.00  0.00    +0.000 C 
ATOM     18  O   UNL     1      -3.086  15.488  25.621  0.00  0.00    +0.000 OA
ENDBRANCH  11  18
BRANCH  16  19
ATOM     19  O   UNL     1      -3.721  16.955  23.125  0.00  0.00    +0.000 OA
ATOM     20  C   UNL     1      -4.289  17.503  21.950  0.00  0.00    +0.000 C 
ENDBRANCH  16  19
ENDBRANCH   1  14
BRANCH   8  21
ATOM     21  C   UNL     1       0.332  13.336  18.829  0.00  0.00    +0.000 A 
ATOM     22  C   UNL     1       0.631  14.686  19.055  0.00  0.00    +0.000 A 
ATOM     23  C   UNL     1       1.950  15.139  18.963  0.00  0.00    +0.000 A 
ATOM     24  C   UNL     1       2.976  14.245  18.662  0.00  0.00    +0.000 A 
ATOM     25  C   UNL     1       2.690  12.892  18.476  0.00  0.00    +0.000 A 
ATOM     26  C   UNL     1       1.373  12.435  18.568  0.00  0.00    +0.000 A 
ENDBRANCH   8  21
BRANCH   6  27
ATOM     27  C   UNL     1      -3.302  10.645  16.694  0.00  0.00    +0.000 C 
ATOM     28  F   UNL     1      -3.606   9.374  17.039  0.00  0.00    +0.000 F 
ATOM     29  F   UNL     1      -4.433  11.174  16.146  0.00  0.00    +0.000 F 
ATOM     30  F   UNL     1      -2.407  10.559  15.670  0.00  0.00    +0.000 F 
ENDBRANCH   6  27
TORSDOF 5
ENDMDL
MODEL 9
REMARK VINA RESULT:      -6.4      5.889      8.723
REMARK  Name = 
REMARK  8 active torsions:
REMARK  status: ('A' for Active; 'I' for Inactive)
REMARK    1  A    between atoms: C_1  and  O_2
REMARK    2  A    between atoms: O_2  and  C_3
REMARK    3  A    between atoms: C_6  and  C_7
REMARK    4  A    between atoms: C_8  and  C_9
REMARK    5  A    between atoms: C_12  and  C_13
REMARK    6  A    between atoms: C_18  and  C_19
REMARK    7  A    between atoms: C_28  and  O_29
REMARK    8  A    between atoms: O_29  and  C_30
REMARK                            x       y       z     vdW  Elec       q    Type
REMARK                         _______ _______ _______ _____ _____    ______ ____
ROOT
ATOM      1  C   UNL     1      -4.275  12.671  20.596  0.00  0.00    +0.000 A 
ATOM      2  C   UNL     1      -5.341  11.980  19.963  0.00  0.00    +0.000 A 
ATOM      3  C   UNL     1      -6.747  11.773  20.403  0.00  0.00    +0.000 C 
ATOM      4  N   UNL     1      -4.972  11.453  18.793  0.00  0.00    +0.000 NA
ATOM      5  N   UNL     1      -3.673  11.784  18.632  0.00  0.00    +0.000 N 
ATOM      6  C   UNL     1      -2.817  11.451  17.587  0.00  0.00    +0.000 A 
ATOM      7  C   UNL     1      -1.546  11.901  17.598  0.00  0.00    +0.000 A 
ATOM      8  C   UNL     1      -1.144  12.749  18.760  0.00  0.00    +0.000 A 
ATOM      9  N   UNL     1      -1.922  13.016  19.764  0.00  0.00    +0.000 NA
ATOM     10  C   UNL     1      -3.213  12.549  19.712  0.00  0.00    +0.000 A 
ENDROOT
BRANCH   1  14
ATOM     11  C   UNL     1      -3.697  14.714  24.309  0.00  0.00    +0.000 A 
ATOM     12  C   UNL     1      -3.446  13.339  24.203  0.00  0.00    +0.000 A 
ATOM     13  C   UNL     1      -3.640  12.666  22.997  0.00  0.00    +0.000 A 
ATOM     14  C   UNL     1      -4.176  13.331  21.893  0.00  0.00    +0.000 A 
ATOM     15  C   UNL     1      -4.560  14.668  22.057  0.00  0.00    +0.000 A 
ATOM     16  C   UNL     1      -4.316  15.376  23.242  0.00  0.00    +0.000 A 
BRANCH  11  18
ATOM     17  C   UNL     1      -1.955  15.453  25.715  0.00  0.00    +0.000 C 
ATOM     18  O   UNL     1      -3.358  15.400  25.444  0.00  0.00    +0.000 OA
ENDBRANCH  11  18
BRANCH  16  19
ATOM     19  O   UNL     1      -4.710  16.684  23.140  0.00  0.00    +0.000 OA
ATOM     20  C   UNL     1      -5.736  17.169  23.986  0.00  0.00    +0.000 C 
ENDBRANCH  16  19
ENDBRANCH   1  14
BRANCH   8  21
ATOM     21  C   UNL     1       0.256  13.271  18.752  0.00  0.00    +0.000 A 
ATOM     22  C   UNL     1       1.352  12.421  18.556  0.00  0.00    +0.000 A 
ATOM     23  C   UNL     1       2.653  12.930  18.597  0.00  0.00    +0.000 A 
ATOM     24  C   UNL     1       2.864  14.290  18.816  0.00  0.00    +0.000 A 
ATOM     25  C   UNL     1       1.776  15.149  18.971  0.00  0.00    +0.000 A 
ATOM     26  C   UNL     1       0.473  14.644  18.930  0.00  0.00    +0.000 A 
ENDBRANCH   8  21
BRANCH   6  27
ATOM     27  C   UNL     1      -3.305  10.583  16.494  0.00  0.00    +0.000 C 
ATOM     28  F   UNL     1      -2.539  10.497  15.384  0.00  0.00    +0.000 F 
ATOM     29  F   UNL     1      -3.473   9.306  16.942  0.00  0.00    +0.000 F 
ATOM     30  F   UNL     1      -4.537  10.988  16.078  0.00  0.00    +0.000 F 
ENDBRANCH   6  27
TORSDOF 5
ENDMDL
