MODEL 1
REMARK VINA RESULT:      -8.0      0.000      0.000
REMARK  Name = 
REMARK  13 active torsions:
REMARK  status: ('A' for Active; 'I' for Inactive)
REMARK    1  A    between atoms: C_1  and  C_2
REMARK    2  A    between atoms: C_2  and  O_3
REMARK    3  A    between atoms: O_3  and  C_4
REMARK    4  A    between atoms: C_7  and  O_8
REMARK    5  A    between atoms: O_8  and  C_9
REMARK    6  A    between atoms: C_12  and  O_13
REMARK    7  A    between atoms: O_13  and  C_14
REMARK    8  A    between atoms: C_14  and  C_16
REMARK    9  A    between atoms: C_16  and  S_17
REMARK   10  A    between atoms: S_17  and  C_18
REMARK   11  A    between atoms: C_21  and  C_22
REMARK   12  A    between atoms: C_25  and  O_26
REMARK   13  A    between atoms: C_27  and  O_28
REMARK                            x       y       z     vdW  Elec       q    Type
REMARK                         _______ _______ _______ _____ _____    ______ ____
ROOT
ATOM      1  C   UNL     1       2.386   5.408  18.954  0.00  0.00    +0.000 C 
ATOM      2  O   UNL     1       1.791   5.035  17.946  0.00  0.00    +0.000 OA
ENDROOT
BRANCH   1   3
ATOM      3  O   UNL     1       3.041   6.631  19.131  0.00  0.00    +0.000 OA
BRANCH   3   7
ATOM      4  C   UNL     1       0.838  10.206  19.034  0.00  0.00    +0.000 A 
ATOM      5  C   UNL     1       0.752   9.364  20.147  0.00  0.00    +0.000 A 
ATOM      6  C   UNL     1       1.522   8.209  20.215  0.00  0.00    +0.000 A 
ATOM      7  C   UNL     1       2.270   7.815  19.113  0.00  0.00    +0.000 A 
ATOM      8  C   UNL     1       2.318   8.613  17.964  0.00  0.00    +0.000 A 
ATOM      9  C   UNL     1       1.602   9.821  17.931  0.00  0.00    +0.000 A 
BRANCH   4  10
ATOM     10  O   UNL     1       0.200  11.433  18.989  0.00  0.00    +0.000 OA
BRANCH  10  14
ATOM     11  C   UNL     1      -3.920  11.622  18.325  0.00  0.00    +0.000 A 
ATOM     12  C   UNL     1      -3.105  10.956  17.411  0.00  0.00    +0.000 A 
ATOM     13  C   UNL     1      -1.744  10.816  17.657  0.00  0.00    +0.000 A 
ATOM     14  C   UNL     1      -1.167  11.427  18.775  0.00  0.00    +0.000 A 
ATOM     15  C   UNL     1      -1.980  12.080  19.705  0.00  0.00    +0.000 A 
ATOM     16  C   UNL     1      -3.360  12.178  19.477  0.00  0.00    +0.000 A 
BRANCH  11  17
ATOM     17  O   UNL     1      -5.233  11.696  17.962  0.00  0.00    +0.000 OA
BRANCH  17  19
ATOM     18  C   UNL     1      -6.669  10.147  19.036  0.00  0.00    +0.000 C 
ATOM     19  C   UNL     1      -6.183  11.586  19.018  0.00  0.00    +0.000 C 
ENDBRANCH  17  19
ENDBRANCH  11  17
ENDBRANCH  10  14
ENDBRANCH   4  10
ENDBRANCH   3   7
ENDBRANCH   1   3
BRANCH   1  20
ATOM     20  C   UNL     1       2.494   4.575  20.209  0.00  0.00    +0.000 C 
BRANCH  20  21
ATOM     21  S   UNL     1       3.365   3.011  19.855  0.00  0.00    +0.000 S 
BRANCH  21  22
ATOM     22  C   UNL     1       4.659   3.622  18.866  0.00  0.00    +0.000 A 
ATOM     23  N   UNL     1       5.732   4.209  19.351  0.00  0.00    +0.000 NA
ATOM     24  N   UNL     1       6.508   4.566  18.275  0.00  0.00    +0.000 NA
ATOM     25  C   UNL     1       5.862   4.165  17.199  0.00  0.00    +0.000 A 
ATOM     26  O   UNL     1       4.674   3.545  17.498  0.00  0.00    +0.000 OA
BRANCH  25  27
ATOM     27  C   UNL     1       6.242   4.297  15.802  0.00  0.00    +0.000 A 
ATOM     28  C   UNL     1       5.502   3.596  14.827  0.00  0.00    +0.000 A 
ATOM     29  C   UNL     1       5.827   3.675  13.472  0.00  0.00    +0.000 A 
ATOM     30  C   UNL     1       6.900   4.461  13.083  0.00  0.00    +0.000 A 
ATOM     31  C   UNL     1       7.639   5.160  14.035  0.00  0.00    +0.000 A 
ATOM     32  C   UNL     1       7.320   5.092  15.385  0.00  0.00    +0.000 A 
BRANCH  30  33
ATOM     33  O   UNL     1       7.272   4.582  11.773  0.00  0.00    +0.000 OA
ATOM     34  H   UNL     1       8.110   5.077  11.740  0.00  0.00    +0.000 HD
ENDBRANCH  30  33
BRANCH  31  35
ATOM     35  O   UNL     1       8.700   5.925  13.639  0.00  0.00    +0.000 OA
ATOM     36  H   UNL     1       8.369   6.430  12.869  0.00  0.00    +0.000 HD
ENDBRANCH  31  35
ENDBRANCH  25  27
ENDBRANCH  21  22
ENDBRANCH  20  21
ENDBRANCH   1  20
TORSDOF 12
ENDMDL
MODEL 2
REMARK VINA RESULT:      -7.7      3.065      4.591
REMARK  Name = 
REMARK  13 active torsions:
REMARK  status: ('A' for Active; 'I' for Inactive)
REMARK    1  A    between atoms: C_1  and  C_2
REMARK    2  A    between atoms: C_2  and  O_3
REMARK    3  A    between atoms: O_3  and  C_4
REMARK    4  A    between atoms: C_7  and  O_8
REMARK    5  A    between atoms: O_8  and  C_9
REMARK    6  A    between atoms: C_12  and  O_13
REMARK    7  A    between atoms: O_13  and  C_14
REMARK    8  A    between atoms: C_14  and  C_16
REMARK    9  A    between atoms: C_16  and  S_17
REMARK   10  A    between atoms: S_17  and  C_18
REMARK   11  A    between atoms: C_21  and  C_22
REMARK   12  A    between atoms: C_25  and  O_26
REMARK   13  A    between atoms: C_27  and  O_28
REMARK                            x       y       z     vdW  Elec       q    Type
REMARK                         _______ _______ _______ _____ _____    ______ ____
ROOT
ATOM      1  C   UNL     1       1.681   5.070  20.545  0.00  0.00    +0.000 C 
ATOM      2  O   UNL     1       0.478   5.065  20.299  0.00  0.00    +0.000 OA
ENDROOT
BRANCH   1   3
ATOM      3  O   UNL     1       2.611   6.034  20.143  0.00  0.00    +0.000 OA
BRANCH   3   7
ATOM      4  C   UNL     1       1.096   9.801  19.066  0.00  0.00    +0.000 A 
ATOM      5  C   UNL     1       1.808   9.043  18.132  0.00  0.00    +0.000 A 
ATOM      6  C   UNL     1       2.261   7.770  18.459  0.00  0.00    +0.000 A 
ATOM      7  C   UNL     1       2.134   7.308  19.763  0.00  0.00    +0.000 A 
ATOM      8  C   UNL     1       1.481   8.081  20.730  0.00  0.00    +0.000 A 
ATOM      9  C   UNL     1       0.952   9.333  20.374  0.00  0.00    +0.000 A 
BRANCH   4  10
ATOM     10  O   UNL     1       0.505  11.008  18.737  0.00  0.00    +0.000 OA
BRANCH  10  14
ATOM     11  C   UNL     1       2.772  14.393  19.663  0.00  0.00    +0.000 A 
ATOM     12  C   UNL     1       3.097  13.633  18.541  0.00  0.00    +0.000 A 
ATOM     13  C   UNL     1       2.306  12.550  18.175  0.00  0.00    +0.000 A 
ATOM     14  C   UNL     1       1.235  12.157  18.985  0.00  0.00    +0.000 A 
ATOM     15  C   UNL     1       0.892  12.926  20.100  0.00  0.00    +0.000 A 
ATOM     16  C   UNL     1       1.664  14.046  20.440  0.00  0.00    +0.000 A 
BRANCH  11  17
ATOM     17  O   UNL     1       3.631  15.422  19.917  0.00  0.00    +0.000 OA
BRANCH  17  19
ATOM     18  C   UNL     1       5.287  16.695  18.800  0.00  0.00    +0.000 C 
ATOM     19  C   UNL     1       4.925  15.319  19.330  0.00  0.00    +0.000 C 
ENDBRANCH  17  19
ENDBRANCH  11  17
ENDBRANCH  10  14
ENDBRANCH   4  10
ENDBRANCH   3   7
ENDBRANCH   1   3
BRANCH   1  20
ATOM     20  C   UNL     1       2.365   3.998  21.361  0.00  0.00    +0.000 C 
BRANCH  20  21
ATOM     21  S   UNL     1       2.201   2.377  20.538  0.00  0.00    +0.000 S 
BRANCH  21  22
ATOM     22  C   UNL     1       2.643   2.833  18.919  0.00  0.00    +0.000 A 
ATOM     23  N   UNL     1       1.850   2.691  17.878  0.00  0.00    +0.000 NA
ATOM     24  N   UNL     1       2.547   3.141  16.784  0.00  0.00    +0.000 NA
ATOM     25  C   UNL     1       3.722   3.539  17.228  0.00  0.00    +0.000 A 
ATOM     26  O   UNL     1       3.855   3.380  18.585  0.00  0.00    +0.000 OA
BRANCH  25  27
ATOM     27  C   UNL     1       4.840   4.097  16.483  0.00  0.00    +0.000 A 
ATOM     28  C   UNL     1       5.080   3.635  15.173  0.00  0.00    +0.000 A 
ATOM     29  C   UNL     1       6.145   4.125  14.414  0.00  0.00    +0.000 A 
ATOM     30  C   UNL     1       6.977   5.086  14.965  0.00  0.00    +0.000 A 
ATOM     31  C   UNL     1       6.750   5.552  16.258  0.00  0.00    +0.000 A 
ATOM     32  C   UNL     1       5.691   5.074  17.020  0.00  0.00    +0.000 A 
BRANCH  30  33
ATOM     33  O   UNL     1       8.037   5.607  14.276  0.00  0.00    +0.000 OA
ATOM     34  H   UNL     1       8.202   6.507  14.611  0.00  0.00    +0.000 HD
ENDBRANCH  30  33
BRANCH  31  35
ATOM     35  O   UNL     1       7.584   6.492  16.794  0.00  0.00    +0.000 OA
ATOM     36  H   UNL     1       7.233   6.653  17.693  0.00  0.00    +0.000 HD
ENDBRANCH  31  35
ENDBRANCH  25  27
ENDBRANCH  21  22
ENDBRANCH  20  21
ENDBRANCH   1  20
TORSDOF 12
ENDMDL
MODEL 3
REMARK VINA RESULT:      -7.4      2.251      2.963
REMARK  Name = 
REMARK  13 active torsions:
REMARK  status: ('A' for Active; 'I' for Inactive)
REMARK    1  A    between atoms: C_1  and  C_2
REMARK    2  A    between atoms: C_2  and  O_3
REMARK    3  A    between atoms: O_3  and  C_4
REMARK    4  A    between atoms: C_7  and  O_8
REMARK    5  A    between atoms: O_8  and  C_9
REMARK    6  A    between atoms: C_12  and  O_13
REMARK    7  A    between atoms: O_13  and  C_14
REMARK    8  A    between atoms: C_14  and  C_16
REMARK    9  A    between atoms: C_16  and  S_17
REMARK   10  A    between atoms: S_17  and  C_18
REMARK   11  A    between atoms: C_21  and  C_22
REMARK   12  A    between atoms: C_25  and  O_26
REMARK   13  A    between atoms: C_27  and  O_28
REMARK                            x       y       z     vdW  Elec       q    Type
REMARK                         _______ _______ _______ _____ _____    ______ ____
ROOT
ATOM      1  C   UNL     1       2.125   4.330  20.803  0.00  0.00    +0.000 C 
ATOM      2  O   UNL     1       2.240   3.600  21.783  0.00  0.00    +0.000 OA
ENDROOT
BRANCH   1   3
ATOM      3  O   UNL     1       3.056   5.270  20.348  0.00  0.00    +0.000 OA
BRANCH   3   7
ATOM      4  C   UNL     1       1.733   8.938  18.784  0.00  0.00    +0.000 A 
ATOM      5  C   UNL     1       1.336   8.542  20.065  0.00  0.00    +0.000 A 
ATOM      6  C   UNL     1       1.816   7.359  20.615  0.00  0.00    +0.000 A 
ATOM      7  C   UNL     1       2.576   6.496  19.837  0.00  0.00    +0.000 A 
ATOM      8  C   UNL     1       2.930   6.845  18.528  0.00  0.00    +0.000 A 
ATOM      9  C   UNL     1       2.511   8.080  18.004  0.00  0.00    +0.000 A 
BRANCH   4  10
ATOM     10  O   UNL     1       1.396  10.171  18.258  0.00  0.00    +0.000 OA
BRANCH  10  14
ATOM     11  C   UNL     1      -0.851  12.855  20.540  0.00  0.00    +0.000 A 
ATOM     12  C   UNL     1      -1.503  11.922  19.734  0.00  0.00    +0.000 A 
ATOM     13  C   UNL     1      -0.772  10.972  19.031  0.00  0.00    +0.000 A 
ATOM     14  C   UNL     1       0.626  11.007  19.049  0.00  0.00    +0.000 A 
ATOM     15  C   UNL     1       1.285  11.926  19.868  0.00  0.00    +0.000 A 
ATOM     16  C   UNL     1       0.544  12.853  20.614  0.00  0.00    +0.000 A 
BRANCH  11  17
ATOM     17  O   UNL     1      -1.681  13.735  21.169  0.00  0.00    +0.000 OA
BRANCH  17  19
ATOM     18  C   UNL     1      -1.978  12.468  23.150  0.00  0.00    +0.000 C 
ATOM     19  C   UNL     1      -1.554  13.814  22.587  0.00  0.00    +0.000 C 
ENDBRANCH  17  19
ENDBRANCH  11  17
ENDBRANCH  10  14
ENDBRANCH   4  10
ENDBRANCH   3   7
ENDBRANCH   1   3
BRANCH   1  20
ATOM     20  C   UNL     1       0.916   4.317  19.896  0.00  0.00    +0.000 C 
BRANCH  20  21
ATOM     21  S   UNL     1       0.766   2.698  19.067  0.00  0.00    +0.000 S 
BRANCH  21  22
ATOM     22  C   UNL     1       2.377   2.554  18.429  0.00  0.00    +0.000 A 
ATOM     23  N   UNL     1       3.172   1.534  18.677  0.00  0.00    +0.000 NA
ATOM     24  N   UNL     1       4.352   1.783  18.021  0.00  0.00    +0.000 NA
ATOM     25  C   UNL     1       4.201   2.938  17.405  0.00  0.00    +0.000 A 
ATOM     26  O   UNL     1       2.961   3.488  17.613  0.00  0.00    +0.000 OA
BRANCH  25  27
ATOM     27  C   UNL     1       5.150   3.662  16.573  0.00  0.00    +0.000 A 
ATOM     28  C   UNL     1       5.372   3.218  15.253  0.00  0.00    +0.000 A 
ATOM     29  C   UNL     1       6.279   3.865  14.412  0.00  0.00    +0.000 A 
ATOM     30  C   UNL     1       6.971   4.966  14.890  0.00  0.00    +0.000 A 
ATOM     31  C   UNL     1       6.760   5.416  16.192  0.00  0.00    +0.000 A 
ATOM     32  C   UNL     1       5.856   4.782  17.035  0.00  0.00    +0.000 A 
BRANCH  30  33
ATOM     33  O   UNL     1       7.874   5.645  14.120  0.00  0.00    +0.000 OA
ATOM     34  H   UNL     1       7.864   5.254  13.227  0.00  0.00    +0.000 HD
ENDBRANCH  30  33
BRANCH  31  35
ATOM     35  O   UNL     1       7.456   6.498  16.654  0.00  0.00    +0.000 OA
ATOM     36  H   UNL     1       8.231   6.567  16.062  0.00  0.00    +0.000 HD
ENDBRANCH  31  35
ENDBRANCH  25  27
ENDBRANCH  21  22
ENDBRANCH  20  21
ENDBRANCH   1  20
TORSDOF 12
ENDMDL
MODEL 4
REMARK VINA RESULT:      -7.3      1.825      2.332
REMARK  Name = 
REMARK  13 active torsions:
REMARK  status: ('A' for Active; 'I' for Inactive)
REMARK    1  A    between atoms: C_1  and  C_2
REMARK    2  A    between atoms: C_2  and  O_3
REMARK    3  A    between atoms: O_3  and  C_4
REMARK    4  A    between atoms: C_7  and  O_8
REMARK    5  A    between atoms: O_8  and  C_9
REMARK    6  A    between atoms: C_12  and  O_13
REMARK    7  A    between atoms: O_13  and  C_14
REMARK    8  A    between atoms: C_14  and  C_16
REMARK    9  A    between atoms: C_16  and  S_17
REMARK   10  A    between atoms: S_17  and  C_18
REMARK   11  A    between atoms: C_21  and  C_22
REMARK   12  A    between atoms: C_25  and  O_26
REMARK   13  A    between atoms: C_27  and  O_28
REMARK                            x       y       z     vdW  Elec       q    Type
REMARK                         _______ _______ _______ _____ _____    ______ ____
ROOT
ATOM      1  C   UNL     1       1.571   4.737  19.926  0.00  0.00    +0.000 C 
ATOM      2  O   UNL     1       1.098   4.616  18.799  0.00  0.00    +0.000 OA
ENDROOT
BRANCH   1   3
ATOM      3  O   UNL     1       2.322   5.815  20.404  0.00  0.00    +0.000 OA
BRANCH   3   7
ATOM      4  C   UNL     1       1.441   9.685  19.025  0.00  0.00    +0.000 A 
ATOM      5  C   UNL     1       1.076   9.306  20.321  0.00  0.00    +0.000 A 
ATOM      6  C   UNL     1       1.416   8.049  20.807  0.00  0.00    +0.000 A 
ATOM      7  C   UNL     1       1.991   7.114  19.957  0.00  0.00    +0.000 A 
ATOM      8  C   UNL     1       2.306   7.454  18.635  0.00  0.00    +0.000 A 
ATOM      9  C   UNL     1       2.035   8.752  18.172  0.00  0.00    +0.000 A 
BRANCH   4  10
ATOM     10  O   UNL     1       1.251  10.971  18.554  0.00  0.00    +0.000 OA
BRANCH  10  14
ATOM     11  C   UNL     1      -2.260  12.794  19.897  0.00  0.00    +0.000 A 
ATOM     12  C   UNL     1      -1.026  13.365  20.205  0.00  0.00    +0.000 A 
ATOM     13  C   UNL     1       0.146  12.815  19.700  0.00  0.00    +0.000 A 
ATOM     14  C   UNL     1       0.103  11.629  18.960  0.00  0.00    +0.000 A 
ATOM     15  C   UNL     1      -1.130  11.063  18.631  0.00  0.00    +0.000 A 
ATOM     16  C   UNL     1      -2.314  11.647  19.102  0.00  0.00    +0.000 A 
BRANCH  11  17
ATOM     17  O   UNL     1      -3.331  13.424  20.460  0.00  0.00    +0.000 OA
BRANCH  17  19
ATOM     18  C   UNL     1      -3.511  12.589  22.670  0.00  0.00    +0.000 C 
ATOM     19  C   UNL     1      -4.161  12.624  21.298  0.00  0.00    +0.000 C 
ENDBRANCH  17  19
ENDBRANCH  11  17
ENDBRANCH  10  14
ENDBRANCH   4  10
ENDBRANCH   3   7
ENDBRANCH   1   3
BRANCH   1  20
ATOM     20  C   UNL     1       1.399   3.702  21.013  0.00  0.00    +0.000 C 
BRANCH  20  21
ATOM     21  S   UNL     1       2.934   2.737  21.215  0.00  0.00    +0.000 S 
BRANCH  21  22
ATOM     22  C   UNL     1       3.450   2.670  19.556  0.00  0.00    +0.000 A 
ATOM     23  N   UNL     1       3.026   1.769  18.695  0.00  0.00    +0.000 NA
ATOM     24  N   UNL     1       3.663   2.027  17.506  0.00  0.00    +0.000 NA
ATOM     25  C   UNL     1       4.431   3.077  17.713  0.00  0.00    +0.000 A 
ATOM     26  O   UNL     1       4.342   3.549  18.999  0.00  0.00    +0.000 OA
BRANCH  25  27
ATOM     27  C   UNL     1       5.318   3.759  16.784  0.00  0.00    +0.000 A 
ATOM     28  C   UNL     1       5.445   3.254  15.473  0.00  0.00    +0.000 A 
ATOM     29  C   UNL     1       6.290   3.859  14.541  0.00  0.00    +0.000 A 
ATOM     30  C   UNL     1       7.016   4.978  14.917  0.00  0.00    +0.000 A 
ATOM     31  C   UNL     1       6.898   5.488  16.209  0.00  0.00    +0.000 A 
ATOM     32  C   UNL     1       6.056   4.896  17.142  0.00  0.00    +0.000 A 
BRANCH  30  33
ATOM     33  O   UNL     1       7.861   5.618  14.054  0.00  0.00    +0.000 OA
ATOM     34  H   UNL     1       7.725   5.243  13.164  0.00  0.00    +0.000 HD
ENDBRANCH  30  33
BRANCH  31  35
ATOM     35  O   UNL     1       7.626   6.586  16.570  0.00  0.00    +0.000 OA
ATOM     36  H   UNL     1       8.335   6.237  17.147  0.00  0.00    +0.000 HD
ENDBRANCH  31  35
ENDBRANCH  25  27
ENDBRANCH  21  22
ENDBRANCH  20  21
ENDBRANCH   1  20
TORSDOF 12
ENDMDL
MODEL 5
REMARK VINA RESULT:      -7.2      5.340     11.482
REMARK  Name = 
REMARK  13 active torsions:
REMARK  status: ('A' for Active; 'I' for Inactive)
REMARK    1  A    between atoms: C_1  and  C_2
REMARK    2  A    between atoms: C_2  and  O_3
REMARK    3  A    between atoms: O_3  and  C_4
REMARK    4  A    between atoms: C_7  and  O_8
REMARK    5  A    between atoms: O_8  and  C_9
REMARK    6  A    between atoms: C_12  and  O_13
REMARK    7  A    between atoms: O_13  and  C_14
REMARK    8  A    between atoms: C_14  and  C_16
REMARK    9  A    between atoms: C_16  and  S_17
REMARK   10  A    between atoms: S_17  and  C_18
REMARK   11  A    between atoms: C_21  and  C_22
REMARK   12  A    between atoms: C_25  and  O_26
REMARK   13  A    between atoms: C_27  and  O_28
REMARK                            x       y       z     vdW  Elec       q    Type
REMARK                         _______ _______ _______ _____ _____    ______ ____
ROOT
ATOM      1  C   UNL     1      -2.629  10.822  16.977  0.00  0.00    +0.000 C 
ATOM      2  O   UNL     1      -2.379  10.602  15.795  0.00  0.00    +0.000 OA
ENDROOT
BRANCH   1   3
ATOM      3  O   UNL     1      -1.804  11.477  17.896  0.00  0.00    +0.000 OA
BRANCH   3   7
ATOM      4  C   UNL     1       1.058   9.134  19.889  0.00  0.00    +0.000 A 
ATOM      5  C   UNL     1       0.007   9.711  20.607  0.00  0.00    +0.000 A 
ATOM      6  C   UNL     1      -0.978  10.437  19.949  0.00  0.00    +0.000 A 
ATOM      7  C   UNL     1      -0.841  10.715  18.595  0.00  0.00    +0.000 A 
ATOM      8  C   UNL     1       0.241  10.200  17.870  0.00  0.00    +0.000 A 
ATOM      9  C   UNL     1       1.191   9.397  18.524  0.00  0.00    +0.000 A 
BRANCH   4  10
ATOM     10  O   UNL     1       1.977   8.287  20.482  0.00  0.00    +0.000 OA
BRANCH  10  14
ATOM     11  C   UNL     1       2.090   4.420  18.904  0.00  0.00    +0.000 A 
ATOM     12  C   UNL     1       2.662   5.472  18.190  0.00  0.00    +0.000 A 
ATOM     13  C   UNL     1       2.702   6.749  18.736  0.00  0.00    +0.000 A 
ATOM     14  C   UNL     1       2.083   7.008  19.964  0.00  0.00    +0.000 A 
ATOM     15  C   UNL     1       1.525   5.956  20.693  0.00  0.00    +0.000 A 
ATOM     16  C   UNL     1       1.528   4.659  20.161  0.00  0.00    +0.000 A 
BRANCH  11  17
ATOM     17  O   UNL     1       2.107   3.221  18.255  0.00  0.00    +0.000 OA
BRANCH  17  19
ATOM     18  C   UNL     1       3.608   1.389  18.353  0.00  0.00    +0.000 C 
ATOM     19  C   UNL     1       2.448   2.084  19.044  0.00  0.00    +0.000 C 
ENDBRANCH  17  19
ENDBRANCH  11  17
ENDBRANCH  10  14
ENDBRANCH   4  10
ENDBRANCH   3   7
ENDBRANCH   1   3
BRANCH   1  20
ATOM     20  C   UNL     1      -3.923  10.412  17.641  0.00  0.00    +0.000 C 
BRANCH  20  21
ATOM     21  S   UNL     1      -5.058  11.837  17.745  0.00  0.00    +0.000 S 
BRANCH  21  22
ATOM     22  C   UNL     1      -4.959  12.157  19.452  0.00  0.00    +0.000 A 
ATOM     23  N   UNL     1      -5.904  11.837  20.310  0.00  0.00    +0.000 NA
ATOM     24  N   UNL     1      -5.476  12.260  21.545  0.00  0.00    +0.000 NA
ATOM     25  C   UNL     1      -4.290  12.804  21.364  0.00  0.00    +0.000 A 
ATOM     26  O   UNL     1      -3.888  12.768  20.051  0.00  0.00    +0.000 OA
BRANCH  25  27
ATOM     27  C   UNL     1      -3.402  13.409  22.344  0.00  0.00    +0.000 A 
ATOM     28  C   UNL     1      -2.009  13.318  22.145  0.00  0.00    +0.000 A 
ATOM     29  C   UNL     1      -1.107  13.869  23.058  0.00  0.00    +0.000 A 
ATOM     30  C   UNL     1      -1.598  14.519  24.179  0.00  0.00    +0.000 A 
ATOM     31  C   UNL     1      -2.972  14.617  24.387  0.00  0.00    +0.000 A 
ATOM     32  C   UNL     1      -3.878  14.076  23.482  0.00  0.00    +0.000 A 
BRANCH  30  33
ATOM     33  O   UNL     1      -0.771  15.080  25.111  0.00  0.00    +0.000 OA
ATOM     34  H   UNL     1      -1.323  15.543  25.767  0.00  0.00    +0.000 HD
ENDBRANCH  30  33
BRANCH  31  35
ATOM     35  O   UNL     1      -3.444  15.252  25.501  0.00  0.00    +0.000 OA
ATOM     36  H   UNL     1      -4.382  14.981  25.563  0.00  0.00    +0.000 HD
ENDBRANCH  31  35
ENDBRANCH  25  27
ENDBRANCH  21  22
ENDBRANCH  20  21
ENDBRANCH   1  20
TORSDOF 12
ENDMDL
MODEL 6
REMARK VINA RESULT:      -7.2      4.606      6.139
REMARK  Name = 
REMARK  13 active torsions:
REMARK  status: ('A' for Active; 'I' for Inactive)
REMARK    1  A    between atoms: C_1  and  C_2
REMARK    2  A    between atoms: C_2  and  O_3
REMARK    3  A    between atoms: O_3  and  C_4
REMARK    4  A    between atoms: C_7  and  O_8
REMARK    5  A    between atoms: O_8  and  C_9
REMARK    6  A    between atoms: C_12  and  O_13
REMARK    7  A    between atoms: O_13  and  C_14
REMARK    8  A    between atoms: C_14  and  C_16
REMARK    9  A    between atoms: C_16  and  S_17
REMARK   10  A    between atoms: S_17  and  C_18
REMARK   11  A    between atoms: C_21  and  C_22
REMARK   12  A    between atoms: C_25  and  O_26
REMARK   13  A    between atoms: C_27  and  O_28
REMARK                            x       y       z     vdW  Elec       q    Type
REMARK                         _______ _______ _______ _____ _____    ______ ____
ROOT
ATOM      1  C   UNL     1       5.075   4.147  19.093  0.00  0.00    +0.000 C 
ATOM      2  O   UNL     1       5.220   2.963  19.383  0.00  0.00    +0.000 OA
ENDROOT
BRANCH   1   3
ATOM      3  O   UNL     1       4.018   4.704  18.366  0.00  0.00    +0.000 OA
BRANCH   3   7
ATOM      4  C   UNL     1       1.504   7.486  20.261  0.00  0.00    +0.000 A 
ATOM      5  C   UNL     1       2.280   7.879  19.166  0.00  0.00    +0.000 A 
ATOM      6  C   UNL     1       3.068   6.953  18.495  0.00  0.00    +0.000 A 
ATOM      7  C   UNL     1       3.201   5.666  19.001  0.00  0.00    +0.000 A 
ATOM      8  C   UNL     1       2.482   5.271  20.135  0.00  0.00    +0.000 A 
ATOM      9  C   UNL     1       1.622   6.188  20.763  0.00  0.00    +0.000 A 
BRANCH   4  10
ATOM     10  O   UNL     1       0.599   8.339  20.866  0.00  0.00    +0.000 OA
BRANCH  10  14
ATOM     11  C   UNL     1       0.338  12.298  19.555  0.00  0.00    +0.000 A 
ATOM     12  C   UNL     1       0.908  12.019  20.797  0.00  0.00    +0.000 A 
ATOM     13  C   UNL     1       1.073  10.704  21.213  0.00  0.00    +0.000 A 
ATOM     14  C   UNL     1       0.581   9.653  20.432  0.00  0.00    +0.000 A 
ATOM     15  C   UNL     1       0.027   9.923  19.179  0.00  0.00    +0.000 A 
ATOM     16  C   UNL     1      -0.096  11.249  18.741  0.00  0.00    +0.000 A 
BRANCH  11  17
ATOM     17  O   UNL     1       0.225  13.626  19.270  0.00  0.00    +0.000 OA
BRANCH  17  19
ATOM     18  C   UNL     1       2.357  14.072  18.337  0.00  0.00    +0.000 C 
ATOM     19  C   UNL     1       1.398  14.412  19.464  0.00  0.00    +0.000 C 
ENDBRANCH  17  19
ENDBRANCH  11  17
ENDBRANCH  10  14
ENDBRANCH   4  10
ENDBRANCH   3   7
ENDBRANCH   1   3
BRANCH   1  20
ATOM     20  C   UNL     1       6.050   5.227  19.501  0.00  0.00    +0.000 C 
BRANCH  20  21
ATOM     21  S   UNL     1       7.515   5.199  18.414  0.00  0.00    +0.000 S 
BRANCH  21  22
ATOM     22  C   UNL     1       7.622   6.893  18.037  0.00  0.00    +0.000 A 
ATOM     23  N   UNL     1       6.937   7.471  17.073  0.00  0.00    +0.000 NA
ATOM     24  N   UNL     1       7.298   8.796  17.070  0.00  0.00    +0.000 NA
ATOM     25  C   UNL     1       8.176   8.946  18.041  0.00  0.00    +0.000 A 
ATOM     26  O   UNL     1       8.429   7.774  18.709  0.00  0.00    +0.000 OA
BRANCH  25  27
ATOM     27  C   UNL     1       8.875  10.150  18.464  0.00  0.00    +0.000 A 
ATOM     28  C   UNL     1       9.402  10.205  19.770  0.00  0.00    +0.000 A 
ATOM     29  C   UNL     1      10.071  11.338  20.236  0.00  0.00    +0.000 A 
ATOM     30  C   UNL     1      10.219  12.426  19.392  0.00  0.00    +0.000 A 
ATOM     31  C   UNL     1       9.705  12.385  18.097  0.00  0.00    +0.000 A 
ATOM     32  C   UNL     1       9.041  11.260  17.623  0.00  0.00    +0.000 A 
BRANCH  30  33
ATOM     33  O   UNL     1      10.864  13.566  19.785  0.00  0.00    +0.000 OA
ATOM     34  H   UNL     1      11.012  14.118  18.995  0.00  0.00    +0.000 HD
ENDBRANCH  30  33
BRANCH  31  35
ATOM     35  O   UNL     1       9.850  13.468  17.277  0.00  0.00    +0.000 OA
ATOM     36  H   UNL     1       9.057  13.454  16.704  0.00  0.00    +0.000 HD
ENDBRANCH  31  35
ENDBRANCH  25  27
ENDBRANCH  21  22
ENDBRANCH  20  21
ENDBRANCH   1  20
TORSDOF 12
ENDMDL
MODEL 7
REMARK VINA RESULT:      -7.2      4.461      6.618
REMARK  Name = 
REMARK  13 active torsions:
REMARK  status: ('A' for Active; 'I' for Inactive)
REMARK    1  A    between atoms: C_1  and  C_2
REMARK    2  A    between atoms: C_2  and  O_3
REMARK    3  A    between atoms: O_3  and  C_4
REMARK    4  A    between atoms: C_7  and  O_8
REMARK    5  A    between atoms: O_8  and  C_9
REMARK    6  A    between atoms: C_12  and  O_13
REMARK    7  A    between atoms: O_13  and  C_14
REMARK    8  A    between atoms: C_14  and  C_16
REMARK    9  A    between atoms: C_16  and  S_17
REMARK   10  A    between atoms: S_17  and  C_18
REMARK   11  A    between atoms: C_21  and  C_22
REMARK   12  A    between atoms: C_25  and  O_26
REMARK   13  A    between atoms: C_27  and  O_28
REMARK                            x       y       z     vdW  Elec       q    Type
REMARK                         _______ _______ _______ _____ _____    ______ ____
ROOT
ATOM      1  C   UNL     1       5.985   3.905  15.686  0.00  0.00    +0.000 C 
ATOM      2  O   UNL     1       5.750   3.680  14.503  0.00  0.00    +0.000 OA
ENDROOT
BRANCH   1   3
ATOM      3  O   UNL     1       5.407   3.267  16.788  0.00  0.00    +0.000 OA
BRANCH   3   7
ATOM      4  C   UNL     1       2.859   5.428  19.334  0.00  0.00    +0.000 A 
ATOM      5  C   UNL     1       2.371   4.919  18.127  0.00  0.00    +0.000 A 
ATOM      6  C   UNL     1       3.188   4.152  17.307  0.00  0.00    +0.000 A 
ATOM      7  C   UNL     1       4.536   4.012  17.614  0.00  0.00    +0.000 A 
ATOM      8  C   UNL     1       5.058   4.570  18.787  0.00  0.00    +0.000 A 
ATOM      9  C   UNL     1       4.209   5.275  19.655  0.00  0.00    +0.000 A 
BRANCH   4  10
ATOM     10  O   UNL     1       2.041   6.072  20.245  0.00  0.00    +0.000 OA
BRANCH  10  14
ATOM     11  C   UNL     1       1.091  10.057  19.424  0.00  0.00    +0.000 A 
ATOM     12  C   UNL     1       0.865   9.544  20.701  0.00  0.00    +0.000 A 
ATOM     13  C   UNL     1       1.247   8.245  21.012  0.00  0.00    +0.000 A 
ATOM     14  C   UNL     1       1.774   7.411  20.019  0.00  0.00    +0.000 A 
ATOM     15  C   UNL     1       2.022   7.924  18.744  0.00  0.00    +0.000 A 
ATOM     16  C   UNL     1       1.678   9.250  18.446  0.00  0.00    +0.000 A 
BRANCH  11  17
ATOM     17  O   UNL     1       0.663  11.339  19.246  0.00  0.00    +0.000 OA
BRANCH  17  19
ATOM     18  C   UNL     1      -1.028  12.404  20.520  0.00  0.00    +0.000 C 
ATOM     19  C   UNL     1       0.458  12.104  20.431  0.00  0.00    +0.000 C 
ENDBRANCH  17  19
ENDBRANCH  11  17
ENDBRANCH  10  14
ENDBRANCH   4  10
ENDBRANCH   3   7
ENDBRANCH   1   3
BRANCH   1  20
ATOM     20  C   UNL     1       6.983   4.940  16.151  0.00  0.00    +0.000 C 
BRANCH  20  21
ATOM     21  S   UNL     1       6.217   6.597  16.158  0.00  0.00    +0.000 S 
BRANCH  21  22
ATOM     22  C   UNL     1       7.263   7.390  17.299  0.00  0.00    +0.000 A 
ATOM     23  N   UNL     1       7.834   6.776  18.315  0.00  0.00    +0.000 NA
ATOM     24  N   UNL     1       8.562   7.724  18.991  0.00  0.00    +0.000 NA
ATOM     25  C   UNL     1       8.396   8.858  18.339  0.00  0.00    +0.000 A 
ATOM     26  O   UNL     1       7.584   8.721  17.241  0.00  0.00    +0.000 OA
BRANCH  25  27
ATOM     27  C   UNL     1       8.946  10.171  18.635  0.00  0.00    +0.000 A 
ATOM     28  C   UNL     1       9.700  10.341  19.815  0.00  0.00    +0.000 A 
ATOM     29  C   UNL     1      10.243  11.581  20.158  0.00  0.00    +0.000 A 
ATOM     30  C   UNL     1      10.034  12.662  19.317  0.00  0.00    +0.000 A 
ATOM     31  C   UNL     1       9.292  12.508  18.147  0.00  0.00    +0.000 A 
ATOM     32  C   UNL     1       8.752  11.277  17.795  0.00  0.00    +0.000 A 
BRANCH  30  33
ATOM     33  O   UNL     1      10.537  13.903  19.593  0.00  0.00    +0.000 OA
ATOM     34  H   UNL     1      10.754  13.937  20.542  0.00  0.00    +0.000 HD
ENDBRANCH  30  33
BRANCH  31  35
ATOM     35  O   UNL     1       9.086  13.584  17.331  0.00  0.00    +0.000 OA
ATOM     36  H   UNL     1       9.303  14.361  17.884  0.00  0.00    +0.000 HD
ENDBRANCH  31  35
ENDBRANCH  25  27
ENDBRANCH  21  22
ENDBRANCH  20  21
ENDBRANCH   1  20
TORSDOF 12
ENDMDL
MODEL 8
REMARK VINA RESULT:      -7.0      1.776      2.736
REMARK  Name = 
REMARK  13 active torsions:
REMARK  status: ('A' for Active; 'I' for Inactive)
REMARK    1  A    between atoms: C_1  and  C_2
REMARK    2  A    between atoms: C_2  and  O_3
REMARK    3  A    between atoms: O_3  and  C_4
REMARK    4  A    between atoms: C_7  and  O_8
REMARK    5  A    between atoms: O_8  and  C_9
REMARK    6  A    between atoms: C_12  and  O_13
REMARK    7  A    between atoms: O_13  and  C_14
REMARK    8  A    between atoms: C_14  and  C_16
REMARK    9  A    between atoms: C_16  and  S_17
REMARK   10  A    between atoms: S_17  and  C_18
REMARK   11  A    between atoms: C_21  and  C_22
REMARK   12  A    between atoms: C_25  and  O_26
REMARK   13  A    between atoms: C_27  and  O_28
REMARK                            x       y       z     vdW  Elec       q    Type
REMARK                         _______ _______ _______ _____ _____    ______ ____
ROOT
ATOM      1  C   UNL     1       1.409   3.596  20.650  0.00  0.00    +0.000 C 
ATOM      2  O   UNL     1       0.326   3.394  20.106  0.00  0.00    +0.000 OA
ENDROOT
BRANCH   1   3
ATOM      3  O   UNL     1       1.840   4.792  21.231  0.00  0.00    +0.000 OA
BRANCH   3   7
ATOM      4  C   UNL     1       2.106   8.220  18.818  0.00  0.00    +0.000 A 
ATOM      5  C   UNL     1       2.503   6.978  18.312  0.00  0.00    +0.000 A 
ATOM      6  C   UNL     1       2.363   5.830  19.081  0.00  0.00    +0.000 A 
ATOM      7  C   UNL     1       1.964   5.933  20.407  0.00  0.00    +0.000 A 
ATOM      8  C   UNL     1       1.624   7.177  20.952  0.00  0.00    +0.000 A 
ATOM      9  C   UNL     1       1.689   8.326  20.146  0.00  0.00    +0.000 A 
BRANCH   4  10
ATOM     10  O   UNL     1       2.094   9.362  18.037  0.00  0.00    +0.000 OA
BRANCH  10  14
ATOM     11  C   UNL     1      -0.816  12.157  19.122  0.00  0.00    +0.000 A 
ATOM     12  C   UNL     1       0.532  12.506  19.187  0.00  0.00    +0.000 A 
ATOM     13  C   UNL     1       1.508  11.616  18.755  0.00  0.00    +0.000 A 
ATOM     14  C   UNL     1       1.151  10.327  18.344  0.00  0.00    +0.000 A 
ATOM     15  C   UNL     1      -0.199   9.977  18.259  0.00  0.00    +0.000 A 
ATOM     16  C   UNL     1      -1.184  10.895  18.650  0.00  0.00    +0.000 A 
BRANCH  11  17
ATOM     17  O   UNL     1      -1.671  13.115  19.583  0.00  0.00    +0.000 OA
BRANCH  17  19
ATOM     18  C   UNL     1      -3.171  12.613  21.347  0.00  0.00    +0.000 C 
ATOM     19  C   UNL     1      -3.008  12.693  19.839  0.00  0.00    +0.000 C 
ENDBRANCH  17  19
ENDBRANCH  11  17
ENDBRANCH  10  14
ENDBRANCH   4  10
ENDBRANCH   3   7
ENDBRANCH   1   3
BRANCH   1  20
ATOM     20  C   UNL     1       2.478   2.537  20.786  0.00  0.00    +0.000 C 
BRANCH  20  21
ATOM     21  S   UNL     1       2.792   1.745  19.172  0.00  0.00    +0.000 S 
BRANCH  21  22
ATOM     22  C   UNL     1       4.092   2.753  18.608  0.00  0.00    +0.000 A 
ATOM     23  N   UNL     1       4.871   3.454  19.405  0.00  0.00    +0.000 NA
ATOM     24  N   UNL     1       5.757   4.128  18.600  0.00  0.00    +0.000 NA
ATOM     25  C   UNL     1       5.468   3.789  17.360  0.00  0.00    +0.000 A 
ATOM     26  O   UNL     1       4.419   2.906  17.286  0.00  0.00    +0.000 OA
BRANCH  25  27
ATOM     27  C   UNL     1       6.099   4.221  16.124  0.00  0.00    +0.000 A 
ATOM     28  C   UNL     1       7.032   5.278  16.171  0.00  0.00    +0.000 A 
ATOM     29  C   UNL     1       7.661   5.744  15.015  0.00  0.00    +0.000 A 
ATOM     30  C   UNL     1       7.360   5.150  13.799  0.00  0.00    +0.000 A 
ATOM     31  C   UNL     1       6.441   4.104  13.738  0.00  0.00    +0.000 A 
ATOM     32  C   UNL     1       5.813   3.630  14.884  0.00  0.00    +0.000 A 
BRANCH  30  33
ATOM     33  O   UNL     1       7.939   5.558  12.630  0.00  0.00    +0.000 OA
ATOM     34  H   UNL     1       8.900   5.626  12.777  0.00  0.00    +0.000 HD
ENDBRANCH  30  33
BRANCH  31  35
ATOM     35  O   UNL     1       6.145   3.534  12.533  0.00  0.00    +0.000 OA
ATOM     36  H   UNL     1       6.871   3.815  11.940  0.00  0.00    +0.000 HD
ENDBRANCH  31  35
ENDBRANCH  25  27
ENDBRANCH  21  22
ENDBRANCH  20  21
ENDBRANCH   1  20
TORSDOF 12
ENDMDL
MODEL 9
REMARK VINA RESULT:      -7.0      5.511      8.837
REMARK  Name = 
REMARK  13 active torsions:
REMARK  status: ('A' for Active; 'I' for Inactive)
REMARK    1  A    between atoms: C_1  and  C_2
REMARK    2  A    between atoms: C_2  and  O_3
REMARK    3  A    between atoms: O_3  and  C_4
REMARK    4  A    between atoms: C_7  and  O_8
REMARK    5  A    between atoms: O_8  and  C_9
REMARK    6  A    between atoms: C_12  and  O_13
REMARK    7  A    between atoms: O_13  and  C_14
REMARK    8  A    between atoms: C_14  and  C_16
REMARK    9  A    between atoms: C_16  and  S_17
REMARK   10  A    between atoms: S_17  and  C_18
REMARK   11  A    between atoms: C_21  and  C_22
REMARK   12  A    between atoms: C_25  and  O_26
REMARK   13  A    between atoms: C_27  and  O_28
REMARK                            x       y       z     vdW  Elec       q    Type
REMARK                         _______ _______ _______ _____ _____    ______ ____
ROOT
ATOM      1  C   UNL     1       0.481  12.445  20.933  0.00  0.00    +0.000 C 
ATOM      2  O   UNL     1      -0.410  13.255  20.694  0.00  0.00    +0.000 OA
ENDROOT
BRANCH   1   3
ATOM      3  O   UNL     1       1.782  12.736  21.359  0.00  0.00    +0.000 OA
BRANCH   3   7
ATOM      4  C   UNL     1       4.349  14.668  18.653  0.00  0.00    +0.000 A 
ATOM      5  C   UNL     1       4.493  14.884  20.027  0.00  0.00    +0.000 A 
ATOM      6  C   UNL     1       3.689  14.204  20.933  0.00  0.00    +0.000 A 
ATOM      7  C   UNL     1       2.642  13.418  20.470  0.00  0.00    +0.000 A 
ATOM      8  C   UNL     1       2.441  13.241  19.095  0.00  0.00    +0.000 A 
ATOM      9  C   UNL     1       3.308  13.866  18.184  0.00  0.00    +0.000 A 
BRANCH   4  10
ATOM     10  O   UNL     1       5.221  15.213  17.728  0.00  0.00    +0.000 OA
BRANCH  10  14
ATOM     11  C   UNL     1       9.218  14.077  18.168  0.00  0.00    +0.000 A 
ATOM     12  C   UNL     1       8.285  13.150  17.704  0.00  0.00    +0.000 A 
ATOM     13  C   UNL     1       6.969  13.534  17.478  0.00  0.00    +0.000 A 
ATOM     14  C   UNL     1       6.548  14.827  17.806  0.00  0.00    +0.000 A 
ATOM     15  C   UNL     1       7.480  15.766  18.252  0.00  0.00    +0.000 A 
ATOM     16  C   UNL     1       8.818  15.389  18.435  0.00  0.00    +0.000 A 
BRANCH  11  17
ATOM     17  O   UNL     1      10.471  13.573  18.356  0.00  0.00    +0.000 OA
BRANCH  17  19
ATOM     18  C   UNL     1      10.659  12.783  20.582  0.00  0.00    +0.000 C 
ATOM     19  C   UNL     1      10.557  12.374  19.123  0.00  0.00    +0.000 C 
ENDBRANCH  17  19
ENDBRANCH  11  17
ENDBRANCH  10  14
ENDBRANCH   4  10
ENDBRANCH   3   7
ENDBRANCH   1   3
BRANCH   1  20
ATOM     20  C   UNL     1       0.299  10.950  20.808  0.00  0.00    +0.000 C 
BRANCH  20  21
ATOM     21  S   UNL     1      -0.318  10.527  19.144  0.00  0.00    +0.000 S 
BRANCH  21  22
ATOM     22  C   UNL     1       1.018   9.567  18.580  0.00  0.00    +0.000 A 
ATOM     23  N   UNL     1       1.798   9.919  17.579  0.00  0.00    +0.000 NA
ATOM     24  N   UNL     1       2.717   8.911  17.421  0.00  0.00    +0.000 NA
ATOM     25  C   UNL     1       2.445   8.009  18.341  0.00  0.00    +0.000 A 
ATOM     26  O   UNL     1       1.376   8.363  19.126  0.00  0.00    +0.000 OA
BRANCH  25  27
ATOM     27  C   UNL     1       3.112   6.744  18.608  0.00  0.00    +0.000 A 
ATOM     28  C   UNL     1       4.240   6.396  17.836  0.00  0.00    +0.000 A 
ATOM     29  C   UNL     1       4.914   5.190  18.038  0.00  0.00    +0.000 A 
ATOM     30  C   UNL     1       4.462   4.323  19.019  0.00  0.00    +0.000 A 
ATOM     31  C   UNL     1       3.350   4.656  19.791  0.00  0.00    +0.000 A 
ATOM     32  C   UNL     1       2.675   5.855  19.601  0.00  0.00    +0.000 A 
BRANCH  30  33
ATOM     33  O   UNL     1       5.075   3.127  19.269  0.00  0.00    +0.000 OA
ATOM     34  H   UNL     1       5.052   2.970  20.230  0.00  0.00    +0.000 HD
ENDBRANCH  30  33
BRANCH  31  35
ATOM     35  O   UNL     1       2.908   3.788  20.749  0.00  0.00    +0.000 OA
ATOM     36  H   UNL     1       2.383   3.123  20.260  0.00  0.00    +0.000 HD
ENDBRANCH  31  35
ENDBRANCH  25  27
ENDBRANCH  21  22
ENDBRANCH  20  21
ENDBRANCH   1  20
TORSDOF 12
ENDMDL
