MODEL 1
REMARK VINA RESULT:      -7.6      0.000      0.000
REMARK  Name = 
REMARK  5 active torsions:
REMARK  status: ('A' for Active; 'I' for Inactive)
REMARK    1  A    between atoms: C_1  and  C_2
REMARK    2  A    between atoms: C_8  and  C_9
REMARK    3  A    between atoms: C_15  and  N_16
REMARK    4  A    between atoms: N_16  and  S_17
REMARK    5  A    between atoms: S_17  and  C_18
REMARK                            x       y       z     vdW  Elec       q    Type
REMARK                         _______ _______ _______ _____ _____    ______ ____
ROOT
ATOM      1  C   UNL     1       0.570  10.533  19.924  0.00  0.00    +0.000 A 
ATOM      2  N   UNL     1       1.048   9.243  19.991  0.00  0.00    +0.000 NA
ATOM      3  C   UNL     1       1.859   8.747  19.026  0.00  0.00    +0.000 A 
ATOM      4  N   UNL     1       2.338   7.454  19.138  0.00  0.00    +0.000 N 
ATOM      5  C   UNL     1       2.691   6.640  17.980  0.00  0.00    +0.000 C 
ATOM      6  C   UNL     1       1.873   5.349  17.979  0.00  0.00    +0.000 C 
ATOM      7  C   UNL     1       1.980   4.593  19.310  0.00  0.00    +0.000 C 
ATOM      8  C   UNL     1       1.603   5.530  20.462  0.00  0.00    +0.000 C 
ATOM      9  C   UNL     1       2.426   6.813  20.448  0.00  0.00    +0.000 C 
ATOM     10  C   UNL     1       2.213   9.550  17.947  0.00  0.00    +0.000 A 
ATOM     11  C   UNL     1       1.761  10.862  17.866  0.00  0.00    +0.000 A 
ATOM     12  C   UNL     1       0.945  11.374  18.868  0.00  0.00    +0.000 A 
ATOM     13 CL   UNL     1       0.544  13.051  18.725  0.00  0.00    +0.000 Cl
ENDROOT
BRANCH   1  21
ATOM     14  C   UNL     1       0.615   9.425  22.824  0.00  0.00    +0.000 C 
ATOM     15  C   UNL     1      -0.372  10.442  22.329  0.00  0.00    +0.000 A 
ATOM     16  C   UNL     1      -1.346  10.905  23.234  0.00  0.00    +0.000 A 
ATOM     17  C   UNL     1      -2.277  11.843  22.829  0.00  0.00    +0.000 A 
ATOM     18  F   UNL     1      -3.193  12.308  23.687  0.00  0.00    +0.000 F 
ATOM     19  C   UNL     1      -2.238  12.282  21.528  0.00  0.00    +0.000 A 
ATOM     20  N   UNL     1      -1.339  11.835  20.621  0.00  0.00    +0.000 NA
ATOM     21  C   UNL     1      -0.385  10.935  21.007  0.00  0.00    +0.000 A 
ENDBRANCH   1  21
BRANCH   7  22
ATOM     22  N   UNL     1       3.366   4.019  19.427  0.00  0.00    +0.000 NA
ATOM     23  H   UNL     1       3.958   4.574  20.046  0.00  0.00    +0.000 HD
BRANCH  22  24
ATOM     24  S   UNL     1       3.483   2.384  19.830  0.00  0.00    +0.000 S 
ATOM     25  C   UNL     1       3.369   1.624  18.223  0.00  0.00    +0.000 C 
ATOM     26  O   UNL     1       4.831   2.173  20.314  0.00  0.00    +0.000 OA
ATOM     27  O   UNL     1       2.325   2.019  20.610  0.00  0.00    +0.000 OA
ENDBRANCH  22  24
ENDBRANCH   7  22
TORSDOF 3
ENDMDL
MODEL 2
REMARK VINA RESULT:      -7.5      1.054      1.250
REMARK  Name = 
REMARK  5 active torsions:
REMARK  status: ('A' for Active; 'I' for Inactive)
REMARK    1  A    between atoms: C_1  and  C_2
REMARK    2  A    between atoms: C_8  and  C_9
REMARK    3  A    between atoms: C_15  and  N_16
REMARK    4  A    between atoms: N_16  and  S_17
REMARK    5  A    between atoms: S_17  and  C_18
REMARK                            x       y       z     vdW  Elec       q    Type
REMARK                         _______ _______ _______ _____ _____    ______ ____
ROOT
ATOM      1  C   UNL     1       0.760  10.230  19.904  0.00  0.00    +0.000 A 
ATOM      2  N   UNL     1       1.109   8.898  19.954  0.00  0.00    +0.000 NA
ATOM      3  C   UNL     1       1.890   8.343  18.996  0.00  0.00    +0.000 A 
ATOM      4  N   UNL     1       2.239   7.008  19.091  0.00  0.00    +0.000 N 
ATOM      5  C   UNL     1       2.538   6.185  17.924  0.00  0.00    +0.000 C 
ATOM      6  C   UNL     1       1.599   4.981  17.877  0.00  0.00    +0.000 C 
ATOM      7  C   UNL     1       1.601   4.193  19.193  0.00  0.00    +0.000 C 
ATOM      8  C   UNL     1       1.289   5.140  20.357  0.00  0.00    +0.000 C 
ATOM      9  C   UNL     1       2.233   6.336  20.389  0.00  0.00    +0.000 C 
ATOM     10  C   UNL     1       2.346   9.129  17.943  0.00  0.00    +0.000 A 
ATOM     11  C   UNL     1       2.026  10.480  17.880  0.00  0.00    +0.000 A 
ATOM     12  C   UNL     1       1.240  11.050  18.875  0.00  0.00    +0.000 A 
ATOM     13 CL   UNL     1       1.007  12.761  18.760  0.00  0.00    +0.000 Cl
ENDROOT
BRANCH   1  21
ATOM     14  C   UNL     1       0.821   9.273  22.857  0.00  0.00    +0.000 C 
ATOM     15  C   UNL     1      -0.155  10.277  22.320  0.00  0.00    +0.000 A 
ATOM     16  C   UNL     1      -1.112  10.803  23.210  0.00  0.00    +0.000 A 
ATOM     17  C   UNL     1      -2.034  11.733  22.767  0.00  0.00    +0.000 A 
ATOM     18  F   UNL     1      -2.933  12.255  23.609  0.00  0.00    +0.000 F 
ATOM     19  C   UNL     1      -2.003  12.102  21.444  0.00  0.00    +0.000 A 
ATOM     20  N   UNL     1      -1.122  11.595  20.552  0.00  0.00    +0.000 NA
ATOM     21  C   UNL     1      -0.177  10.702  20.974  0.00  0.00    +0.000 A 
ENDBRANCH   1  21
BRANCH   7  22
ATOM     22  N   UNL     1       2.921   3.484  19.329  0.00  0.00    +0.000 NA
ATOM     23  H   UNL     1       2.994   2.977  20.211  0.00  0.00    +0.000 HD
BRANCH  22  24
ATOM     24  S   UNL     1       3.386   2.486  18.049  0.00  0.00    +0.000 S 
ATOM     25  C   UNL     1       4.102   1.111  18.927  0.00  0.00    +0.000 C 
ATOM     26  O   UNL     1       2.166   2.015  17.429  0.00  0.00    +0.000 OA
ATOM     27  O   UNL     1       4.418   3.156  17.295  0.00  0.00    +0.000 OA
ENDBRANCH  22  24
ENDBRANCH   7  22
TORSDOF 3
ENDMDL
MODEL 3
REMARK VINA RESULT:      -7.4      0.978      1.531
REMARK  Name = 
REMARK  5 active torsions:
REMARK  status: ('A' for Active; 'I' for Inactive)
REMARK    1  A    between atoms: C_1  and  C_2
REMARK    2  A    between atoms: C_8  and  C_9
REMARK    3  A    between atoms: C_15  and  N_16
REMARK    4  A    between atoms: N_16  and  S_17
REMARK    5  A    between atoms: S_17  and  C_18
REMARK                            x       y       z     vdW  Elec       q    Type
REMARK                         _______ _______ _______ _____ _____    ______ ____
ROOT
ATOM      1  C   UNL     1       0.562  10.835  19.733  0.00  0.00    +0.000 A 
ATOM      2  N   UNL     1       0.979   9.535  19.915  0.00  0.00    +0.000 NA
ATOM      3  C   UNL     1       1.878   8.965  19.077  0.00  0.00    +0.000 A 
ATOM      4  N   UNL     1       2.291   7.664  19.303  0.00  0.00    +0.000 N 
ATOM      5  C   UNL     1       2.746   6.783  18.233  0.00  0.00    +0.000 C 
ATOM      6  C   UNL     1       1.885   5.521  18.192  0.00  0.00    +0.000 C 
ATOM      7  C   UNL     1       1.805   4.829  19.558  0.00  0.00    +0.000 C 
ATOM      8  C   UNL     1       1.331   5.833  20.614  0.00  0.00    +0.000 C 
ATOM      9  C   UNL     1       2.198   7.085  20.642  0.00  0.00    +0.000 C 
ATOM     10  C   UNL     1       2.389   9.703  18.013  0.00  0.00    +0.000 A 
ATOM     11  C   UNL     1       2.000  11.023  17.820  0.00  0.00    +0.000 A 
ATOM     12  C   UNL     1       1.092  11.611  18.693  0.00  0.00    +0.000 A 
ATOM     13 CL   UNL     1       0.776  13.291  18.429  0.00  0.00    +0.000 Cl
ENDROOT
BRANCH   1  21
ATOM     14  C   UNL     1      -2.282  11.741  18.879  0.00  0.00    +0.000 C 
ATOM     15  C   UNL     1      -1.795  11.730  20.298  0.00  0.00    +0.000 A 
ATOM     16  C   UNL     1      -2.680  12.177  21.299  0.00  0.00    +0.000 A 
ATOM     17  C   UNL     1      -2.281  12.186  22.623  0.00  0.00    +0.000 A 
ATOM     18  F   UNL     1      -3.121  12.587  23.584  0.00  0.00    +0.000 F 
ATOM     19  C   UNL     1      -1.004  11.777  22.922  0.00  0.00    +0.000 A 
ATOM     20  N   UNL     1      -0.115  11.374  21.986  0.00  0.00    +0.000 NA
ATOM     21  C   UNL     1      -0.498  11.321  20.675  0.00  0.00    +0.000 A 
ENDBRANCH   1  21
BRANCH   7  22
ATOM     22  N   UNL     1       3.144   4.216  19.867  0.00  0.00    +0.000 NA
ATOM     23  H   UNL     1       3.706   4.811  20.475  0.00  0.00    +0.000 HD
BRANCH  22  24
ATOM     24  S   UNL     1       3.141   2.632  20.451  0.00  0.00    +0.000 S 
ATOM     25  C   UNL     1       1.824   1.912  19.492  0.00  0.00    +0.000 C 
ATOM     26  O   UNL     1       4.379   2.026  20.008  0.00  0.00    +0.000 OA
ATOM     27  O   UNL     1       2.756   2.656  21.842  0.00  0.00    +0.000 OA
ENDBRANCH  22  24
ENDBRANCH   7  22
TORSDOF 3
ENDMDL
MODEL 4
REMARK VINA RESULT:      -7.4      2.951      3.981
REMARK  Name = 
REMARK  5 active torsions:
REMARK  status: ('A' for Active; 'I' for Inactive)
REMARK    1  A    between atoms: C_1  and  C_2
REMARK    2  A    between atoms: C_8  and  C_9
REMARK    3  A    between atoms: C_15  and  N_16
REMARK    4  A    between atoms: N_16  and  S_17
REMARK    5  A    between atoms: S_17  and  C_18
REMARK                            x       y       z     vdW  Elec       q    Type
REMARK                         _______ _______ _______ _____ _____    ______ ____
ROOT
ATOM      1  C   UNL     1       0.724  10.783  20.738  0.00  0.00    +0.000 A 
ATOM      2  N   UNL     1       1.321   9.820  19.954  0.00  0.00    +0.000 NA
ATOM      3  C   UNL     1       1.206   8.504  20.254  0.00  0.00    +0.000 A 
ATOM      4  N   UNL     1       1.800   7.564  19.432  0.00  0.00    +0.000 N 
ATOM      5  C   UNL     1       2.245   6.261  19.915  0.00  0.00    +0.000 C 
ATOM      6  C   UNL     1       3.739   6.085  19.643  0.00  0.00    +0.000 C 
ATOM      7  C   UNL     1       4.096   6.343  18.174  0.00  0.00    +0.000 C 
ATOM      8  C   UNL     1       3.579   7.724  17.758  0.00  0.00    +0.000 C 
ATOM      9  C   UNL     1       2.089   7.885  18.036  0.00  0.00    +0.000 C 
ATOM     10  C   UNL     1       0.476   8.116  21.373  0.00  0.00    +0.000 A 
ATOM     11  C   UNL     1      -0.153   9.067  22.169  0.00  0.00    +0.000 A 
ATOM     12  C   UNL     1      -0.049  10.415  21.847  0.00  0.00    +0.000 A 
ATOM     13 CL   UNL     1      -0.971  11.496  22.834  0.00  0.00    +0.000 Cl
ENDROOT
BRANCH   1  21
ATOM     14  C   UNL     1      -0.811  12.340  18.535  0.00  0.00    +0.000 C 
ATOM     15  C   UNL     1       0.303  12.924  19.354  0.00  0.00    +0.000 A 
ATOM     16  C   UNL     1       0.683  14.254  19.091  0.00  0.00    +0.000 A 
ATOM     17  C   UNL     1       1.702  14.840  19.818  0.00  0.00    +0.000 A 
ATOM     18  F   UNL     1       2.057  16.110  19.593  0.00  0.00    +0.000 F 
ATOM     19  C   UNL     1       2.340  14.085  20.773  0.00  0.00    +0.000 A 
ATOM     20  N   UNL     1       2.026  12.794  21.031  0.00  0.00    +0.000 NA
ATOM     21  C   UNL     1       0.997  12.204  20.350  0.00  0.00    +0.000 A 
ENDBRANCH   1  21
BRANCH   7  22
ATOM     22  N   UNL     1       3.548   5.217  17.340  0.00  0.00    +0.000 NA
ATOM     23  H   UNL     1       3.042   5.557  16.522  0.00  0.00    +0.000 HD
BRANCH  22  24
ATOM     24  S   UNL     1       4.633   4.007  16.884  0.00  0.00    +0.000 S 
ATOM     25  C   UNL     1       6.108   4.527  17.738  0.00  0.00    +0.000 C 
ATOM     26  O   UNL     1       4.178   2.785  17.513  0.00  0.00    +0.000 OA
ATOM     27  O   UNL     1       4.853   4.098  15.461  0.00  0.00    +0.000 OA
ENDBRANCH  22  24
ENDBRANCH   7  22
TORSDOF 3
ENDMDL
MODEL 5
REMARK VINA RESULT:      -7.4      5.301      8.141
REMARK  Name = 
REMARK  5 active torsions:
REMARK  status: ('A' for Active; 'I' for Inactive)
REMARK    1  A    between atoms: C_1  and  C_2
REMARK    2  A    between atoms: C_8  and  C_9
REMARK    3  A    between atoms: C_15  and  N_16
REMARK    4  A    between atoms: N_16  and  S_17
REMARK    5  A    between atoms: S_17  and  C_18
REMARK                            x       y       z     vdW  Elec       q    Type
REMARK                         _______ _______ _______ _____ _____    ______ ____
ROOT
ATOM      1  C   UNL     1       2.328   6.534  18.961  0.00  0.00    +0.000 A 
ATOM      2  N   UNL     1       1.556   7.590  19.393  0.00  0.00    +0.000 NA
ATOM      3  C   UNL     1       1.709   8.829  18.866  0.00  0.00    +0.000 A 
ATOM      4  N   UNL     1       0.901   9.861  19.309  0.00  0.00    +0.000 N 
ATOM      5  C   UNL     1       1.320  11.258  19.284  0.00  0.00    +0.000 C 
ATOM      6  C   UNL     1       1.264  11.847  20.693  0.00  0.00    +0.000 C 
ATOM      7  C   UNL     1      -0.103  11.634  21.356  0.00  0.00    +0.000 C 
ATOM      8  C   UNL     1      -0.460  10.144  21.324  0.00  0.00    +0.000 C 
ATOM      9  C   UNL     1      -0.398   9.572  19.913  0.00  0.00    +0.000 C 
ATOM     10  C   UNL     1       2.662   9.041  17.875  0.00  0.00    +0.000 A 
ATOM     11  C   UNL     1       3.439   7.988  17.407  0.00  0.00    +0.000 A 
ATOM     12  C   UNL     1       3.266   6.714  17.936  0.00  0.00    +0.000 A 
ATOM     13 CL   UNL     1       4.199   5.460  17.194  0.00  0.00    +0.000 Cl
ENDROOT
BRANCH   1  21
ATOM     14  C   UNL     1       1.168   3.959  17.670  0.00  0.00    +0.000 C 
ATOM     15  C   UNL     1       1.601   4.058  19.104  0.00  0.00    +0.000 A 
ATOM     16  C   UNL     1       1.454   2.915  19.914  0.00  0.00    +0.000 A 
ATOM     17  C   UNL     1       1.839   2.953  21.241  0.00  0.00    +0.000 A 
ATOM     18  F   UNL     1       1.724   1.866  22.014  0.00  0.00    +0.000 F 
ATOM     19  C   UNL     1       2.337   4.131  21.743  0.00  0.00    +0.000 A 
ATOM     20  N   UNL     1       2.462   5.258  21.005  0.00  0.00    +0.000 NA
ATOM     21  C   UNL     1       2.123   5.236  19.681  0.00  0.00    +0.000 A 
ENDBRANCH   1  21
BRANCH   7  22
ATOM     22  N   UNL     1      -1.114  12.512  20.670  0.00  0.00    +0.000 NA
ATOM     23  H   UNL     1      -1.627  12.010  19.945  0.00  0.00    +0.000 HD
BRANCH  22  24
ATOM     24  S   UNL     1      -2.190  13.354  21.661  0.00  0.00    +0.000 S 
ATOM     25  C   UNL     1      -1.216  13.552  23.139  0.00  0.00    +0.000 C 
ATOM     26  O   UNL     1      -2.354  14.666  21.071  0.00  0.00    +0.000 OA
ATOM     27  O   UNL     1      -3.317  12.498  21.948  0.00  0.00    +0.000 OA
ENDBRANCH  22  24
ENDBRANCH   7  22
TORSDOF 3
ENDMDL
MODEL 6
REMARK VINA RESULT:      -7.3      1.100      1.732
REMARK  Name = 
REMARK  5 active torsions:
REMARK  status: ('A' for Active; 'I' for Inactive)
REMARK    1  A    between atoms: C_1  and  C_2
REMARK    2  A    between atoms: C_8  and  C_9
REMARK    3  A    between atoms: C_15  and  N_16
REMARK    4  A    between atoms: N_16  and  S_17
REMARK    5  A    between atoms: S_17  and  C_18
REMARK                            x       y       z     vdW  Elec       q    Type
REMARK                         _______ _______ _______ _____ _____    ______ ____
ROOT
ATOM      1  C   UNL     1       0.624  10.678  19.752  0.00  0.00    +0.000 A 
ATOM      2  N   UNL     1       1.007   9.364  19.908  0.00  0.00    +0.000 NA
ATOM      3  C   UNL     1       1.891   8.788  19.058  0.00  0.00    +0.000 A 
ATOM      4  N   UNL     1       2.270   7.473  19.258  0.00  0.00    +0.000 N 
ATOM      5  C   UNL     1       2.703   6.602  18.171  0.00  0.00    +0.000 C 
ATOM      6  C   UNL     1       1.809   5.363  18.106  0.00  0.00    +0.000 C 
ATOM      7  C   UNL     1       1.712   4.647  19.459  0.00  0.00    +0.000 C 
ATOM      8  C   UNL     1       1.264   5.642  20.534  0.00  0.00    +0.000 C 
ATOM      9  C   UNL     1       2.164   6.871  20.586  0.00  0.00    +0.000 C 
ATOM     10  C   UNL     1       2.420   9.533  18.009  0.00  0.00    +0.000 A 
ATOM     11  C   UNL     1       2.065  10.866  17.841  0.00  0.00    +0.000 A 
ATOM     12  C   UNL     1       1.173  11.460  18.726  0.00  0.00    +0.000 A 
ATOM     13 CL   UNL     1       0.899  13.153  18.495  0.00  0.00    +0.000 Cl
ENDROOT
BRANCH   1  21
ATOM     14  C   UNL     1      -2.172  11.737  18.912  0.00  0.00    +0.000 C 
ATOM     15  C   UNL     1      -1.698  11.651  20.333  0.00  0.00    +0.000 A 
ATOM     16  C   UNL     1      -2.573  12.096  21.344  0.00  0.00    +0.000 A 
ATOM     17  C   UNL     1      -2.186  12.038  22.670  0.00  0.00    +0.000 A 
ATOM     18  F   UNL     1      -3.017  12.437  23.640  0.00  0.00    +0.000 F 
ATOM     19  C   UNL     1      -0.930  11.564  22.963  0.00  0.00    +0.000 A 
ATOM     20  N   UNL     1      -0.051  11.159  22.019  0.00  0.00    +0.000 NA
ATOM     21  C   UNL     1      -0.423  11.173  20.703  0.00  0.00    +0.000 A 
ENDBRANCH   1  21
BRANCH   7  22
ATOM     22  N   UNL     1       3.035   3.994  19.754  0.00  0.00    +0.000 NA
ATOM     23  H   UNL     1       3.207   3.915  20.757  0.00  0.00    +0.000 HD
BRANCH  22  24
ATOM     24  S   UNL     1       3.342   2.516  18.999  0.00  0.00    +0.000 S 
ATOM     25  C   UNL     1       4.551   1.810  20.100  0.00  0.00    +0.000 C 
ATOM     26  O   UNL     1       2.133   1.729  19.122  0.00  0.00    +0.000 OA
ATOM     27  O   UNL     1       3.960   2.773  17.720  0.00  0.00    +0.000 OA
ENDBRANCH  22  24
ENDBRANCH   7  22
TORSDOF 3
ENDMDL
MODEL 7
REMARK VINA RESULT:      -7.3      3.123      4.154
REMARK  Name = 
REMARK  5 active torsions:
REMARK  status: ('A' for Active; 'I' for Inactive)
REMARK    1  A    between atoms: C_1  and  C_2
REMARK    2  A    between atoms: C_8  and  C_9
REMARK    3  A    between atoms: C_15  and  N_16
REMARK    4  A    between atoms: N_16  and  S_17
REMARK    5  A    between atoms: S_17  and  C_18
REMARK                            x       y       z     vdW  Elec       q    Type
REMARK                         _______ _______ _______ _____ _____    ______ ____
ROOT
ATOM      1  C   UNL     1       0.774  10.132  20.251  0.00  0.00    +0.000 A 
ATOM      2  N   UNL     1       1.506   9.241  19.497  0.00  0.00    +0.000 NA
ATOM      3  C   UNL     1       1.680   7.960  19.903  0.00  0.00    +0.000 A 
ATOM      4  N   UNL     1       2.402   7.087  19.109  0.00  0.00    +0.000 N 
ATOM      5  C   UNL     1       3.133   5.947  19.651  0.00  0.00    +0.000 C 
ATOM      6  C   UNL     1       4.612   6.047  19.278  0.00  0.00    +0.000 C 
ATOM      7  C   UNL     1       4.818   6.240  17.771  0.00  0.00    +0.000 C 
ATOM      8  C   UNL     1       4.005   7.448  17.294  0.00  0.00    +0.000 C 
ATOM      9  C   UNL     1       2.534   7.334  17.674  0.00  0.00    +0.000 C 
ATOM     10  C   UNL     1       1.114   7.536  21.101  0.00  0.00    +0.000 A 
ATOM     11  C   UNL     1       0.355   8.409  21.870  0.00  0.00    +0.000 A 
ATOM     12  C   UNL     1       0.161   9.717  21.442  0.00  0.00    +0.000 A 
ATOM     13 CL   UNL     1      -0.900  10.677  22.414  0.00  0.00    +0.000 Cl
ENDROOT
BRANCH   1  21
ATOM     14  C   UNL     1      -1.340  11.216  18.253  0.00  0.00    +0.000 C 
ATOM     15  C   UNL     1      -0.232  12.044  18.834  0.00  0.00    +0.000 A 
ATOM     16  C   UNL     1      -0.139  13.390  18.432  0.00  0.00    +0.000 A 
ATOM     17  C   UNL     1       0.862  14.197  18.939  0.00  0.00    +0.000 A 
ATOM     18  F   UNL     1       0.946  15.484  18.581  0.00  0.00    +0.000 F 
ATOM     19  C   UNL     1       1.765  13.644  19.814  0.00  0.00    +0.000 A 
ATOM     20  N   UNL     1       1.728  12.348  20.198  0.00  0.00    +0.000 NA
ATOM     21  C   UNL     1       0.726  11.539  19.739  0.00  0.00    +0.000 A 
ENDBRANCH   1  21
BRANCH   7  22
ATOM     22  N   UNL     1       4.461   4.958  17.068  0.00  0.00    +0.000 NA
ATOM     23  H   UNL     1       3.537   5.001  16.639  0.00  0.00    +0.000 HD
BRANCH  22  24
ATOM     24  S   UNL     1       5.584   4.358  15.960  0.00  0.00    +0.000 S 
ATOM     25  C   UNL     1       7.114   4.664  16.819  0.00  0.00    +0.000 C 
ATOM     26  O   UNL     1       5.394   2.924  15.913  0.00  0.00    +0.000 OA
ATOM     27  O   UNL     1       5.538   5.174  14.770  0.00  0.00    +0.000 OA
ENDBRANCH  22  24
ENDBRANCH   7  22
TORSDOF 3
ENDMDL
MODEL 8
REMARK VINA RESULT:      -7.2      3.384      4.345
REMARK  Name = 
REMARK  5 active torsions:
REMARK  status: ('A' for Active; 'I' for Inactive)
REMARK    1  A    between atoms: C_1  and  C_2
REMARK    2  A    between atoms: C_8  and  C_9
REMARK    3  A    between atoms: C_15  and  N_16
REMARK    4  A    between atoms: N_16  and  S_17
REMARK    5  A    between atoms: S_17  and  C_18
REMARK                            x       y       z     vdW  Elec       q    Type
REMARK                         _______ _______ _______ _____ _____    ______ ____
ROOT
ATOM      1  C   UNL     1       0.962   9.295  20.117  0.00  0.00    +0.000 A 
ATOM      2  N   UNL     1       1.857   8.619  19.318  0.00  0.00    +0.000 NA
ATOM      3  C   UNL     1       2.234   7.350  19.608  0.00  0.00    +0.000 A 
ATOM      4  N   UNL     1       3.118   6.693  18.770  0.00  0.00    +0.000 N 
ATOM      5  C   UNL     1       4.014   5.640  19.236  0.00  0.00    +0.000 C 
ATOM      6  C   UNL     1       5.465   6.022  18.945  0.00  0.00    +0.000 C 
ATOM      7  C   UNL     1       5.682   6.398  17.474  0.00  0.00    +0.000 C 
ATOM      8  C   UNL     1       4.692   7.497  17.076  0.00  0.00    +0.000 C 
ATOM      9  C   UNL     1       3.250   7.103  17.373  0.00  0.00    +0.000 C 
ATOM     10  C   UNL     1       1.711   6.718  20.732  0.00  0.00    +0.000 A 
ATOM     11  C   UNL     1       0.790   7.371  21.543  0.00  0.00    +0.000 A 
ATOM     12  C   UNL     1       0.391   8.666  21.232  0.00  0.00    +0.000 A 
ATOM     13 CL   UNL     1      -0.847   9.333  22.239  0.00  0.00    +0.000 Cl
ENDROOT
BRANCH   1  21
ATOM     14  C   UNL     1      -1.142  10.200  18.021  0.00  0.00    +0.000 C 
ATOM     15  C   UNL     1      -0.264  11.143  18.791  0.00  0.00    +0.000 A 
ATOM     16  C   UNL     1      -0.394  12.521  18.531  0.00  0.00    +0.000 A 
ATOM     17  C   UNL     1       0.390  13.432  19.213  0.00  0.00    +0.000 A 
ATOM     18  F   UNL     1       0.260  14.745  18.990  0.00  0.00    +0.000 F 
ATOM     19  C   UNL     1       1.305  12.955  20.121  0.00  0.00    +0.000 A 
ATOM     20  N   UNL     1       1.481  11.638  20.374  0.00  0.00    +0.000 NA
ATOM     21  C   UNL     1       0.692  10.719  19.738  0.00  0.00    +0.000 A 
ENDBRANCH   1  21
BRANCH   7  22
ATOM     22  N   UNL     1       5.570   5.153  16.637  0.00  0.00    +0.000 NA
ATOM     23  H   UNL     1       4.747   5.169  16.035  0.00  0.00    +0.000 HD
BRANCH  22  24
ATOM     24  S   UNL     1       6.931   4.711  15.741  0.00  0.00    +0.000 S 
ATOM     25  C   UNL     1       6.215   3.587  14.559  0.00  0.00    +0.000 C 
ATOM     26  O   UNL     1       7.349   5.893  15.015  0.00  0.00    +0.000 OA
ATOM     27  O   UNL     1       7.832   3.984  16.601  0.00  0.00    +0.000 OA
ENDBRANCH  22  24
ENDBRANCH   7  22
TORSDOF 3
ENDMDL
MODEL 9
REMARK VINA RESULT:      -7.2      5.290      8.104
REMARK  Name = 
REMARK  5 active torsions:
REMARK  status: ('A' for Active; 'I' for Inactive)
REMARK    1  A    between atoms: C_1  and  C_2
REMARK    2  A    between atoms: C_8  and  C_9
REMARK    3  A    between atoms: C_15  and  N_16
REMARK    4  A    between atoms: N_16  and  S_17
REMARK    5  A    between atoms: S_17  and  C_18
REMARK                            x       y       z     vdW  Elec       q    Type
REMARK                         _______ _______ _______ _____ _____    ______ ____
ROOT
ATOM      1  C   UNL     1       2.438   6.436  18.878  0.00  0.00    +0.000 A 
ATOM      2  N   UNL     1       1.659   7.523  19.207  0.00  0.00    +0.000 NA
ATOM      3  C   UNL     1       1.874   8.735  18.640  0.00  0.00    +0.000 A 
ATOM      4  N   UNL     1       1.057   9.799  18.977  0.00  0.00    +0.000 N 
ATOM      5  C   UNL     1       1.505  11.187  18.923  0.00  0.00    +0.000 C 
ATOM      6  C   UNL     1       1.359  11.838  20.298  0.00  0.00    +0.000 C 
ATOM      7  C   UNL     1      -0.056  11.678  20.868  0.00  0.00    +0.000 C 
ATOM      8  C   UNL     1      -0.439  10.194  20.874  0.00  0.00    +0.000 C 
ATOM      9  C   UNL     1      -0.288   9.559  19.498  0.00  0.00    +0.000 C 
ATOM     10  C   UNL     1       2.899   8.886  17.713  0.00  0.00    +0.000 A 
ATOM     11  C   UNL     1       3.687   7.801  17.348  0.00  0.00    +0.000 A 
ATOM     12  C   UNL     1       3.451   6.555  17.917  0.00  0.00    +0.000 A 
ATOM     13 CL   UNL     1       4.410   5.253  17.300  0.00  0.00    +0.000 Cl
ENDROOT
BRANCH   1  21
ATOM     14  C   UNL     1       1.175   3.879  17.651  0.00  0.00    +0.000 C 
ATOM     15  C   UNL     1       1.587   4.006  19.088  0.00  0.00    +0.000 A 
ATOM     16  C   UNL     1       1.368   2.900  19.933  0.00  0.00    +0.000 A 
ATOM     17  C   UNL     1       1.731   2.963  21.265  0.00  0.00    +0.000 A 
ATOM     18  F   UNL     1       1.549   1.911  22.072  0.00  0.00    +0.000 F 
ATOM     19  C   UNL     1       2.278   4.132  21.738  0.00  0.00    +0.000 A 
ATOM     20  N   UNL     1       2.472   5.225  20.966  0.00  0.00    +0.000 NA
ATOM     21  C   UNL     1       2.156   5.175  19.637  0.00  0.00    +0.000 A 
ENDBRANCH   1  21
BRANCH   7  22
ATOM     22  N   UNL     1      -0.997  12.542  20.073  0.00  0.00    +0.000 NA
ATOM     23  H   UNL     1      -1.407  12.037  19.286  0.00  0.00    +0.000 HD
BRANCH  22  24
ATOM     24  S   UNL     1      -2.205  13.347  20.934  0.00  0.00    +0.000 S 
ATOM     25  C   UNL     1      -3.672  12.663  20.191  0.00  0.00    +0.000 C 
ATOM     26  O   UNL     1      -2.140  12.856  22.294  0.00  0.00    +0.000 OA
ATOM     27  O   UNL     1      -2.130  14.755  20.625  0.00  0.00    +0.000 OA
ENDBRANCH  22  24
ENDBRANCH   7  22
TORSDOF 3
ENDMDL
