MODEL 1
REMARK VINA RESULT:      -8.0      0.000      0.000
REMARK  Name = 
REMARK  3 active torsions:
REMARK  status: ('A' for Active; 'I' for Inactive)
REMARK    1  A    between atoms: C_6  and  N_7
REMARK    2  A    between atoms: C_10  and  C_11
REMARK    3  A    between atoms: C_14  and  N_15
REMARK                            x       y       z     vdW  Elec       q    Type
REMARK                         _______ _______ _______ _____ _____    ______ ____
ROOT
ATOM      1  N   UNL     1       4.936   3.261  17.187  0.00  0.00    +0.000 N 
ATOM      2  C   UNL     1       4.218   3.999  18.069  0.00  0.00    +0.000 A 
ATOM      3  N   UNL     1       3.762   5.218  17.897  0.00  0.00    +0.000 NA
ATOM      4  C   UNL     1       3.113   5.680  19.027  0.00  0.00    +0.000 A 
ATOM      5  C   UNL     1       3.126   4.798  20.089  0.00  0.00    +0.000 A 
ATOM      6  S   UNL     1       3.869   3.328  19.623  0.00  0.00    +0.000 S 
ATOM      7  H   UNL     1       5.235   2.352  17.517  0.00  0.00    +0.000 HD
ENDROOT
BRANCH   1  13
ATOM      8  F   UNL     1       5.806   3.807  12.462  0.00  0.00    +0.000 F 
ATOM      9  C   UNL     1       6.125   4.068  13.737  0.00  0.00    +0.000 A 
ATOM     10  C   UNL     1       7.177   4.931  14.012  0.00  0.00    +0.000 A 
ATOM     11  C   UNL     1       7.511   5.193  15.336  0.00  0.00    +0.000 A 
ATOM     12  C   UNL     1       6.776   4.603  16.369  0.00  0.00    +0.000 A 
ATOM     13  C   UNL     1       5.688   3.754  16.101  0.00  0.00    +0.000 A 
ATOM     14  C   UNL     1       5.392   3.477  14.761  0.00  0.00    +0.000 A 
ENDBRANCH   1  13
BRANCH   4  15
ATOM     15  C   UNL     1       2.485   6.996  19.047  0.00  0.00    +0.000 A 
ATOM     16  C   UNL     1       1.911   7.510  20.213  0.00  0.00    +0.000 A 
ATOM     17  C   UNL     1       1.275   8.757  20.209  0.00  0.00    +0.000 A 
ATOM     18  C   UNL     1       1.189   9.534  19.050  0.00  0.00    +0.000 A 
ATOM     19  C   UNL     1       1.759   9.004  17.882  0.00  0.00    +0.000 A 
ATOM     20  C   UNL     1       2.401   7.758  17.877  0.00  0.00    +0.000 A 
BRANCH  18  21
ATOM     21  N   UNL     1       0.551  10.772  18.998  0.00  0.00    +0.000 N 
ATOM     22  C   UNL     1       0.554  11.669  20.161  0.00  0.00    +0.000 C 
ATOM     23  C   UNL     1      -0.915  11.844  20.519  0.00  0.00    +0.000 C 
ATOM     24  C   UNL     1      -1.592  11.794  19.162  0.00  0.00    +0.000 C 
ATOM     25  C   UNL     1      -0.806  10.714  18.419  0.00  0.00    +0.000 C 
ENDBRANCH  18  21
ENDBRANCH   4  15
TORSDOF 3
ENDMDL
MODEL 2
REMARK VINA RESULT:      -7.9      1.179      1.454
REMARK  Name = 
REMARK  3 active torsions:
REMARK  status: ('A' for Active; 'I' for Inactive)
REMARK    1  A    between atoms: C_6  and  N_7
REMARK    2  A    between atoms: C_10  and  C_11
REMARK    3  A    between atoms: C_14  and  N_15
REMARK                            x       y       z     vdW  Elec       q    Type
REMARK                         _______ _______ _______ _____ _____    ______ ____
ROOT
ATOM      1  N   UNL     1       4.226   3.543  18.087  0.00  0.00    +0.000 N 
ATOM      2  C   UNL     1       3.452   4.309  18.895  0.00  0.00    +0.000 A 
ATOM      3  N   UNL     1       3.185   5.587  18.758  0.00  0.00    +0.000 NA
ATOM      4  C   UNL     1       2.400   6.054  19.797  0.00  0.00    +0.000 A 
ATOM      5  C   UNL     1       2.111   5.108  20.759  0.00  0.00    +0.000 A 
ATOM      6  S   UNL     1       2.745   3.586  20.297  0.00  0.00    +0.000 S 
ATOM      7  H   UNL     1       4.348   2.582  18.379  0.00  0.00    +0.000 HD
ENDROOT
BRANCH   1  13
ATOM      8  F   UNL     1       5.967   4.377  13.654  0.00  0.00    +0.000 F 
ATOM      9  C   UNL     1       6.098   4.460  14.985  0.00  0.00    +0.000 A 
ATOM     10  C   UNL     1       7.203   5.108  15.521  0.00  0.00    +0.000 A 
ATOM     11  C   UNL     1       7.339   5.185  16.903  0.00  0.00    +0.000 A 
ATOM     12  C   UNL     1       6.358   4.632  17.731  0.00  0.00    +0.000 A 
ATOM     13  C   UNL     1       5.218   4.004  17.197  0.00  0.00    +0.000 A 
ATOM     14  C   UNL     1       5.120   3.906  15.805  0.00  0.00    +0.000 A 
ENDBRANCH   1  13
BRANCH   4  15
ATOM     15  C   UNL     1       1.941   7.437  19.827  0.00  0.00    +0.000 A 
ATOM     16  C   UNL     1       1.337   7.978  20.965  0.00  0.00    +0.000 A 
ATOM     17  C   UNL     1       0.863   9.296  20.969  0.00  0.00    +0.000 A 
ATOM     18  C   UNL     1       0.976  10.120  19.844  0.00  0.00    +0.000 A 
ATOM     19  C   UNL     1       1.575   9.564  18.703  0.00  0.00    +0.000 A 
ATOM     20  C   UNL     1       2.055   8.246  18.691  0.00  0.00    +0.000 A 
BRANCH  18  21
ATOM     21  N   UNL     1       0.505  11.430  19.799  0.00  0.00    +0.000 N 
ATOM     22  C   UNL     1      -0.923  11.710  19.603  0.00  0.00    +0.000 C 
ATOM     23  C   UNL     1      -0.987  12.508  18.308  0.00  0.00    +0.000 C 
ATOM     24  C   UNL     1       0.302  13.308  18.351  0.00  0.00    +0.000 C 
ATOM     25  C   UNL     1       1.308  12.317  18.934  0.00  0.00    +0.000 C 
ENDBRANCH  18  21
ENDBRANCH   4  15
TORSDOF 3
ENDMDL
MODEL 3
REMARK VINA RESULT:      -7.8      1.213      1.779
REMARK  Name = 
REMARK  3 active torsions:
REMARK  status: ('A' for Active; 'I' for Inactive)
REMARK    1  A    between atoms: C_6  and  N_7
REMARK    2  A    between atoms: C_10  and  C_11
REMARK    3  A    between atoms: C_14  and  N_15
REMARK                            x       y       z     vdW  Elec       q    Type
REMARK                         _______ _______ _______ _____ _____    ______ ____
ROOT
ATOM      1  N   UNL     1       4.133   3.533  18.253  0.00  0.00    +0.000 N 
ATOM      2  C   UNL     1       3.356   4.331  19.026  0.00  0.00    +0.000 A 
ATOM      3  N   UNL     1       3.075   5.597  18.828  0.00  0.00    +0.000 NA
ATOM      4  C   UNL     1       2.291   6.108  19.846  0.00  0.00    +0.000 A 
ATOM      5  C   UNL     1       2.016   5.208  20.855  0.00  0.00    +0.000 A 
ATOM      6  S   UNL     1       2.663   3.671  20.466  0.00  0.00    +0.000 S 
ATOM      7  H   UNL     1       4.266   2.589  18.592  0.00  0.00    +0.000 HD
ENDROOT
BRANCH   1  13
ATOM      8  F   UNL     1       5.740   4.408  13.777  0.00  0.00    +0.000 F 
ATOM      9  C   UNL     1       5.931   4.435  15.103  0.00  0.00    +0.000 A 
ATOM     10  C   UNL     1       7.099   4.988  15.611  0.00  0.00    +0.000 A 
ATOM     11  C   UNL     1       7.298   5.007  16.987  0.00  0.00    +0.000 A 
ATOM     12  C   UNL     1       6.317   4.490  17.839  0.00  0.00    +0.000 A 
ATOM     13  C   UNL     1       5.116   3.959  17.336  0.00  0.00    +0.000 A 
ATOM     14  C   UNL     1       4.953   3.918  15.947  0.00  0.00    +0.000 A 
ENDBRANCH   1  13
BRANCH   4  15
ATOM     15  C   UNL     1       1.818   7.487  19.810  0.00  0.00    +0.000 A 
ATOM     16  C   UNL     1       1.946   8.269  18.659  0.00  0.00    +0.000 A 
ATOM     17  C   UNL     1       1.526   9.605  18.649  0.00  0.00    +0.000 A 
ATOM     18  C   UNL     1       0.964  10.206  19.779  0.00  0.00    +0.000 A 
ATOM     19  C   UNL     1       0.849   9.415  20.933  0.00  0.00    +0.000 A 
ATOM     20  C   UNL     1       1.264   8.076  20.951  0.00  0.00    +0.000 A 
BRANCH  18  21
ATOM     21  N   UNL     1       0.547  11.535  19.818  0.00  0.00    +0.000 N 
ATOM     22  C   UNL     1      -0.873  11.874  19.979  0.00  0.00    +0.000 C 
ATOM     23  C   UNL     1      -1.231  12.652  18.720  0.00  0.00    +0.000 C 
ATOM     24  C   UNL     1       0.057  13.395  18.415  0.00  0.00    +0.000 C 
ATOM     25  C   UNL     1       1.139  12.371  18.754  0.00  0.00    +0.000 C 
ENDBRANCH  18  21
ENDBRANCH   4  15
TORSDOF 3
ENDMDL
MODEL 4
REMARK VINA RESULT:      -7.8      0.705      1.373
REMARK  Name = 
REMARK  3 active torsions:
REMARK  status: ('A' for Active; 'I' for Inactive)
REMARK    1  A    between atoms: C_6  and  N_7
REMARK    2  A    between atoms: C_10  and  C_11
REMARK    3  A    between atoms: C_14  and  N_15
REMARK                            x       y       z     vdW  Elec       q    Type
REMARK                         _______ _______ _______ _____ _____    ______ ____
ROOT
ATOM      1  N   UNL     1       4.664   3.348  17.468  0.00  0.00    +0.000 N 
ATOM      2  C   UNL     1       3.929   4.120  18.305  0.00  0.00    +0.000 A 
ATOM      3  N   UNL     1       3.525   5.352  18.100  0.00  0.00    +0.000 NA
ATOM      4  C   UNL     1       2.837   5.849  19.192  0.00  0.00    +0.000 A 
ATOM      5  C   UNL     1       2.764   4.978  20.260  0.00  0.00    +0.000 A 
ATOM      6  S   UNL     1       3.477   3.478  19.845  0.00  0.00    +0.000 S 
ATOM      7  H   UNL     1       4.913   2.433  17.821  0.00  0.00    +0.000 HD
ENDROOT
BRANCH   1  13
ATOM      8  F   UNL     1       5.756   3.870  12.787  0.00  0.00    +0.000 F 
ATOM      9  C   UNL     1       6.038   4.105  14.076  0.00  0.00    +0.000 A 
ATOM     10  C   UNL     1       7.126   4.904  14.400  0.00  0.00    +0.000 A 
ATOM     11  C   UNL     1       7.420   5.138  15.739  0.00  0.00    +0.000 A 
ATOM     12  C   UNL     1       6.610   4.586  16.737  0.00  0.00    +0.000 A 
ATOM     13  C   UNL     1       5.486   3.803  16.417  0.00  0.00    +0.000 A 
ATOM     14  C   UNL     1       5.230   3.552  15.065  0.00  0.00    +0.000 A 
ENDBRANCH   1  13
BRANCH   4  15
ATOM     15  C   UNL     1       2.256   7.186  19.167  0.00  0.00    +0.000 A 
ATOM     16  C   UNL     1       2.286   7.970  18.011  0.00  0.00    +0.000 A 
ATOM     17  C   UNL     1       1.761   9.268  18.010  0.00  0.00    +0.000 A 
ATOM     18  C   UNL     1       1.187   9.829  19.156  0.00  0.00    +0.000 A 
ATOM     19  C   UNL     1       1.171   9.036  20.315  0.00  0.00    +0.000 A 
ATOM     20  C   UNL     1       1.692   7.734  20.324  0.00  0.00    +0.000 A 
BRANCH  18  21
ATOM     21  N   UNL     1       0.667  11.120  19.204  0.00  0.00    +0.000 N 
ATOM     22  C   UNL     1       1.542  12.289  19.048  0.00  0.00    +0.000 C 
ATOM     23  C   UNL     1       1.396  13.060  20.353  0.00  0.00    +0.000 C 
ATOM     24  C   UNL     1      -0.053  12.804  20.726  0.00  0.00    +0.000 C 
ATOM     25  C   UNL     1      -0.261  11.342  20.331  0.00  0.00    +0.000 C 
ENDBRANCH  18  21
ENDBRANCH   4  15
TORSDOF 3
ENDMDL
MODEL 5
REMARK VINA RESULT:      -7.8      1.269      1.496
REMARK  Name = 
REMARK  3 active torsions:
REMARK  status: ('A' for Active; 'I' for Inactive)
REMARK    1  A    between atoms: C_6  and  N_7
REMARK    2  A    between atoms: C_10  and  C_11
REMARK    3  A    between atoms: C_14  and  N_15
REMARK                            x       y       z     vdW  Elec       q    Type
REMARK                         _______ _______ _______ _____ _____    ______ ____
ROOT
ATOM      1  N   UNL     1       4.043   3.707  18.312  0.00  0.00    +0.000 N 
ATOM      2  C   UNL     1       3.288   4.611  18.982  0.00  0.00    +0.000 A 
ATOM      3  N   UNL     1       3.085   5.868  18.663  0.00  0.00    +0.000 NA
ATOM      4  C   UNL     1       2.299   6.510  19.603  0.00  0.00    +0.000 A 
ATOM      5  C   UNL     1       1.942   5.721  20.677  0.00  0.00    +0.000 A 
ATOM      6  S   UNL     1       2.514   4.123  20.449  0.00  0.00    +0.000 S 
ATOM      7  H   UNL     1       4.112   2.791  18.738  0.00  0.00    +0.000 HD
ENDROOT
BRANCH   1  13
ATOM      8  F   UNL     1       5.780   4.285  13.837  0.00  0.00    +0.000 F 
ATOM      9  C   UNL     1       5.961   4.321  15.164  0.00  0.00    +0.000 A 
ATOM     10  C   UNL     1       7.180   4.748  15.673  0.00  0.00    +0.000 A 
ATOM     11  C   UNL     1       7.368   4.776  17.051  0.00  0.00    +0.000 A 
ATOM     12  C   UNL     1       6.326   4.396  17.903  0.00  0.00    +0.000 A 
ATOM     13  C   UNL     1       5.076   3.995  17.397  0.00  0.00    +0.000 A 
ATOM     14  C   UNL     1       4.922   3.940  16.008  0.00  0.00    +0.000 A 
ENDBRANCH   1  13
BRANCH   4  15
ATOM     15  C   UNL     1       1.907   7.903  19.428  0.00  0.00    +0.000 A 
ATOM     16  C   UNL     1       1.259   8.609  20.445  0.00  0.00    +0.000 A 
ATOM     17  C   UNL     1       0.850   9.934  20.252  0.00  0.00    +0.000 A 
ATOM     18  C   UNL     1       1.073  10.602  19.043  0.00  0.00    +0.000 A 
ATOM     19  C   UNL     1       1.715   9.880  18.024  0.00  0.00    +0.000 A 
ATOM     20  C   UNL     1       2.131   8.554  18.211  0.00  0.00    +0.000 A 
BRANCH  18  21
ATOM     21  N   UNL     1       0.669  11.913  18.802  0.00  0.00    +0.000 N 
ATOM     22  C   UNL     1       1.419  13.045  19.360  0.00  0.00    +0.000 C 
ATOM     23  C   UNL     1       0.422  13.768  20.255  0.00  0.00    +0.000 C 
ATOM     24  C   UNL     1      -0.889  13.564  19.517  0.00  0.00    +0.000 C 
ATOM     25  C   UNL     1      -0.778  12.131  18.998  0.00  0.00    +0.000 C 
ENDBRANCH  18  21
ENDBRANCH   4  15
TORSDOF 3
ENDMDL
MODEL 6
REMARK VINA RESULT:      -7.8      4.081      5.657
REMARK  Name = 
REMARK  3 active torsions:
REMARK  status: ('A' for Active; 'I' for Inactive)
REMARK    1  A    between atoms: C_6  and  N_7
REMARK    2  A    between atoms: C_10  and  C_11
REMARK    3  A    between atoms: C_14  and  N_15
REMARK                            x       y       z     vdW  Elec       q    Type
REMARK                         _______ _______ _______ _____ _____    ______ ____
ROOT
ATOM      1  N   UNL     1       2.694   6.203  18.814  0.00  0.00    +0.000 N 
ATOM      2  C   UNL     1       2.243   7.476  18.927  0.00  0.00    +0.000 A 
ATOM      3  N   UNL     1       1.522   7.979  19.902  0.00  0.00    +0.000 NA
ATOM      4  C   UNL     1       1.199   9.303  19.664  0.00  0.00    +0.000 A 
ATOM      5  C   UNL     1       1.656   9.788  18.455  0.00  0.00    +0.000 A 
ATOM      6  S   UNL     1       2.592   8.597  17.658  0.00  0.00    +0.000 S 
ATOM      7  H   UNL     1       3.204   5.992  17.966  0.00  0.00    +0.000 HD
ENDROOT
BRANCH   1  13
ATOM      8  F   UNL     1       0.239   2.038  18.876  0.00  0.00    +0.000 F 
ATOM      9  C   UNL     1       0.968   2.963  19.515  0.00  0.00    +0.000 A 
ATOM     10  C   UNL     1       1.306   2.762  20.846  0.00  0.00    +0.000 A 
ATOM     11  C   UNL     1       2.056   3.728  21.509  0.00  0.00    +0.000 A 
ATOM     12  C   UNL     1       2.476   4.873  20.825  0.00  0.00    +0.000 A 
ATOM     13  C   UNL     1       2.168   5.069  19.466  0.00  0.00    +0.000 A 
ATOM     14  C   UNL     1       1.383   4.101  18.830  0.00  0.00    +0.000 A 
ENDBRANCH   1  13
BRANCH   4  15
ATOM     15  C   UNL     1       0.440  10.077  20.638  0.00  0.00    +0.000 A 
ATOM     16  C   UNL     1       0.220   9.600  21.933  0.00  0.00    +0.000 A 
ATOM     17  C   UNL     1      -0.544  10.334  22.848  0.00  0.00    +0.000 A 
ATOM     18  C   UNL     1      -1.113  11.566  22.508  0.00  0.00    +0.000 A 
ATOM     19  C   UNL     1      -0.895  12.031  21.201  0.00  0.00    +0.000 A 
ATOM     20  C   UNL     1      -0.128  11.304  20.280  0.00  0.00    +0.000 A 
BRANCH  18  21
ATOM     21  N   UNL     1      -1.893  12.321  23.381  0.00  0.00    +0.000 N 
ATOM     22  C   UNL     1      -3.357  12.328  23.267  0.00  0.00    +0.000 C 
ATOM     23  C   UNL     1      -3.718  13.780  22.988  0.00  0.00    +0.000 C 
ATOM     24  C   UNL     1      -2.665  14.538  23.777  0.00  0.00    +0.000 C 
ATOM     25  C   UNL     1      -1.403  13.702  23.567  0.00  0.00    +0.000 C 
ENDBRANCH  18  21
ENDBRANCH   4  15
TORSDOF 3
ENDMDL
MODEL 7
REMARK VINA RESULT:      -7.7      0.617      1.230
REMARK  Name = 
REMARK  3 active torsions:
REMARK  status: ('A' for Active; 'I' for Inactive)
REMARK    1  A    between atoms: C_6  and  N_7
REMARK    2  A    between atoms: C_10  and  C_11
REMARK    3  A    between atoms: C_14  and  N_15
REMARK                            x       y       z     vdW  Elec       q    Type
REMARK                         _______ _______ _______ _____ _____    ______ ____
ROOT
ATOM      1  N   UNL     1       4.773   3.238  17.330  0.00  0.00    +0.000 N 
ATOM      2  C   UNL     1       4.040   3.923  18.242  0.00  0.00    +0.000 A 
ATOM      3  N   UNL     1       3.607   5.158  18.147  0.00  0.00    +0.000 NA
ATOM      4  C   UNL     1       2.932   5.548  19.289  0.00  0.00    +0.000 A 
ATOM      5  C   UNL     1       2.900   4.591  20.283  0.00  0.00    +0.000 A 
ATOM      6  S   UNL     1       3.635   3.146  19.732  0.00  0.00    +0.000 S 
ATOM      7  H   UNL     1       5.049   2.303  17.601  0.00  0.00    +0.000 HD
ENDROOT
BRANCH   1  13
ATOM      8  F   UNL     1       6.001   3.826  12.690  0.00  0.00    +0.000 F 
ATOM      9  C   UNL     1       6.177   4.132  13.983  0.00  0.00    +0.000 A 
ATOM     10  C   UNL     1       7.105   5.103  14.333  0.00  0.00    +0.000 A 
ATOM     11  C   UNL     1       7.291   5.411  15.676  0.00  0.00    +0.000 A 
ATOM     12  C   UNL     1       6.531   4.757  16.651  0.00  0.00    +0.000 A 
ATOM     13  C   UNL     1       5.564   3.797  16.305  0.00  0.00    +0.000 A 
ATOM     14  C   UNL     1       5.419   3.478  14.950  0.00  0.00    +0.000 A 
ENDBRANCH   1  13
BRANCH   4  15
ATOM     15  C   UNL     1       2.323   6.869  19.387  0.00  0.00    +0.000 A 
ATOM     16  C   UNL     1       2.369   7.771  18.320  0.00  0.00    +0.000 A 
ATOM     17  C   UNL     1       1.816   9.052  18.439  0.00  0.00    +0.000 A 
ATOM     18  C   UNL     1       1.198   9.478  19.619  0.00  0.00    +0.000 A 
ATOM     19  C   UNL     1       1.165   8.567  20.688  0.00  0.00    +0.000 A 
ATOM     20  C   UNL     1       1.714   7.282  20.576  0.00  0.00    +0.000 A 
BRANCH  18  21
ATOM     21  N   UNL     1       0.649  10.747  19.786  0.00  0.00    +0.000 N 
ATOM     22  C   UNL     1      -0.709  10.916  20.319  0.00  0.00    +0.000 C 
ATOM     23  C   UNL     1      -1.476  11.623  19.211  0.00  0.00    +0.000 C 
ATOM     24  C   UNL     1      -0.412  12.511  18.590  0.00  0.00    +0.000 C 
ATOM     25  C   UNL     1       0.836  11.630  18.617  0.00  0.00    +0.000 C 
ENDBRANCH  18  21
ENDBRANCH   4  15
TORSDOF 3
ENDMDL
MODEL 8
REMARK VINA RESULT:      -7.7      1.363      2.033
REMARK  Name = 
REMARK  3 active torsions:
REMARK  status: ('A' for Active; 'I' for Inactive)
REMARK    1  A    between atoms: C_6  and  N_7
REMARK    2  A    between atoms: C_10  and  C_11
REMARK    3  A    between atoms: C_14  and  N_15
REMARK                            x       y       z     vdW  Elec       q    Type
REMARK                         _______ _______ _______ _____ _____    ______ ____
ROOT
ATOM      1  N   UNL     1       4.053   3.681  18.287  0.00  0.00    +0.000 N 
ATOM      2  C   UNL     1       3.288   4.561  18.979  0.00  0.00    +0.000 A 
ATOM      3  N   UNL     1       3.060   5.819  18.682  0.00  0.00    +0.000 NA
ATOM      4  C   UNL     1       2.272   6.431  19.640  0.00  0.00    +0.000 A 
ATOM      5  C   UNL     1       1.940   5.618  20.705  0.00  0.00    +0.000 A 
ATOM      6  S   UNL     1       2.538   4.035  20.445  0.00  0.00    +0.000 S 
ATOM      7  H   UNL     1       4.143   2.760  18.698  0.00  0.00    +0.000 HD
ENDROOT
BRANCH   1  13
ATOM      8  F   UNL     1       5.754   4.293  13.803  0.00  0.00    +0.000 F 
ATOM      9  C   UNL     1       5.937   4.346  15.129  0.00  0.00    +0.000 A 
ATOM     10  C   UNL     1       7.140   4.824  15.631  0.00  0.00    +0.000 A 
ATOM     11  C   UNL     1       7.330   4.869  17.008  0.00  0.00    +0.000 A 
ATOM     12  C   UNL     1       6.307   4.455  17.866  0.00  0.00    +0.000 A 
ATOM     13  C   UNL     1       5.072   4.002  17.368  0.00  0.00    +0.000 A 
ATOM     14  C   UNL     1       4.916   3.932  15.979  0.00  0.00    +0.000 A 
ENDBRANCH   1  13
BRANCH   4  15
ATOM     15  C   UNL     1       1.853   7.819  19.491  0.00  0.00    +0.000 A 
ATOM     16  C   UNL     1       2.072   8.521  18.302  0.00  0.00    +0.000 A 
ATOM     17  C   UNL     1       1.701   9.866  18.184  0.00  0.00    +0.000 A 
ATOM     18  C   UNL     1       1.100  10.557  19.240  0.00  0.00    +0.000 A 
ATOM     19  C   UNL     1       0.894   9.846  20.433  0.00  0.00    +0.000 A 
ATOM     20  C   UNL     1       1.259   8.498  20.559  0.00  0.00    +0.000 A 
BRANCH  18  21
ATOM     21  N   UNL     1       0.730  11.899  19.172  0.00  0.00    +0.000 N 
ATOM     22  C   UNL     1       1.550  12.868  18.434  0.00  0.00    +0.000 C 
ATOM     23  C   UNL     1       1.982  13.886  19.480  0.00  0.00    +0.000 C 
ATOM     24  C   UNL     1       0.783  13.931  20.410  0.00  0.00    +0.000 C 
ATOM     25  C   UNL     1       0.338  12.471  20.476  0.00  0.00    +0.000 C 
ENDBRANCH  18  21
ENDBRANCH   4  15
TORSDOF 3
ENDMDL
MODEL 9
REMARK VINA RESULT:      -7.7      3.706      8.879
REMARK  Name = 
REMARK  3 active torsions:
REMARK  status: ('A' for Active; 'I' for Inactive)
REMARK    1  A    between atoms: C_6  and  N_7
REMARK    2  A    between atoms: C_10  and  C_11
REMARK    3  A    between atoms: C_14  and  N_15
REMARK                            x       y       z     vdW  Elec       q    Type
REMARK                         _______ _______ _______ _____ _____    ______ ____
ROOT
ATOM      1  N   UNL     1      -1.594  11.930  19.538  0.00  0.00    +0.000 N 
ATOM      2  C   UNL     1      -0.673  11.085  20.064  0.00  0.00    +0.000 A 
ATOM      3  N   UNL     1      -0.123  10.047  19.480  0.00  0.00    +0.000 NA
ATOM      4  C   UNL     1       0.739   9.382  20.333  0.00  0.00    +0.000 A 
ATOM      5  C   UNL     1       0.800   9.914  21.604  0.00  0.00    +0.000 A 
ATOM      6  S   UNL     1      -0.158  11.331  21.696  0.00  0.00    +0.000 S 
ATOM      7  H   UNL     1      -1.932  12.653  20.160  0.00  0.00    +0.000 HD
ENDROOT
BRANCH   1  13
ATOM      8  F   UNL     1      -2.438  10.620  14.961  0.00  0.00    +0.000 F 
ATOM      9  C   UNL     1      -2.899  10.976  16.168  0.00  0.00    +0.000 A 
ATOM     10  C   UNL     1      -4.267  10.993  16.397  0.00  0.00    +0.000 A 
ATOM     11  C   UNL     1      -4.742  11.371  17.649  0.00  0.00    +0.000 A 
ATOM     12  C   UNL     1      -3.839  11.708  18.662  0.00  0.00    +0.000 A 
ATOM     13  C   UNL     1      -2.449  11.660  18.450  0.00  0.00    +0.000 A 
ATOM     14  C   UNL     1      -1.996  11.312  17.173  0.00  0.00    +0.000 A 
ENDBRANCH   1  13
BRANCH   4  15
ATOM     15  C   UNL     1       1.499   8.223  19.879  0.00  0.00    +0.000 A 
ATOM     16  C   UNL     1       2.120   8.206  18.627  0.00  0.00    +0.000 A 
ATOM     17  C   UNL     1       2.812   7.072  18.185  0.00  0.00    +0.000 A 
ATOM     18  C   UNL     1       2.912   5.920  18.972  0.00  0.00    +0.000 A 
ATOM     19  C   UNL     1       2.276   5.944  20.224  0.00  0.00    +0.000 A 
ATOM     20  C   UNL     1       1.583   7.076  20.675  0.00  0.00    +0.000 A 
BRANCH  18  21
ATOM     21  N   UNL     1       3.577   4.765  18.566  0.00  0.00    +0.000 N 
ATOM     22  C   UNL     1       3.295   4.154  17.261  0.00  0.00    +0.000 C 
ATOM     23  C   UNL     1       2.779   2.760  17.588  0.00  0.00    +0.000 C 
ATOM     24  C   UNL     1       3.573   2.399  18.830  0.00  0.00    +0.000 C 
ATOM     25  C   UNL     1       3.627   3.716  19.604  0.00  0.00    +0.000 C 
ENDBRANCH  18  21
ENDBRANCH   4  15
TORSDOF 3
ENDMDL
