MODEL 1
REMARK VINA RESULT:      -7.7      0.000      0.000
REMARK  Name = 
REMARK  7 active torsions:
REMARK  status: ('A' for Active; 'I' for Inactive)
REMARK    1  A    between atoms: C_1  and  O_2
REMARK    2  A    between atoms: O_2  and  C_3
REMARK    3  A    between atoms: C_5  and  C_6
REMARK    4  A    between atoms: C_7  and  C_8
REMARK    5  A    between atoms: C_8  and  C_10
REMARK    6  A    between atoms: C_11  and  C_12
REMARK    7  A    between atoms: C_21  and  O_22
REMARK                            x       y       z     vdW  Elec       q    Type
REMARK                         _______ _______ _______ _____ _____    ______ ____
ROOT
ATOM      1  C   UNL     1       4.935   6.090  17.428  0.00  0.00    +0.000 C 
ATOM      2  C   UNL     1       6.149   6.176  17.997  0.00  0.00    +0.000 C 
ENDROOT
BRANCH   1   5
ATOM      3  C   UNL     1       2.072   5.599  19.871  0.00  0.00    +0.000 A 
ATOM      4  C   UNL     1       3.176   6.142  19.190  0.00  0.00    +0.000 A 
ATOM      5  C   UNL     1       3.768   5.490  18.099  0.00  0.00    +0.000 A 
ATOM      6  C   UNL     1       3.249   4.248  17.714  0.00  0.00    +0.000 A 
ATOM      7  C   UNL     1       2.152   3.694  18.375  0.00  0.00    +0.000 A 
ATOM      8  C   UNL     1       1.563   4.366  19.449  0.00  0.00    +0.000 A 
BRANCH   3  10
ATOM      9  C   UNL     1       1.540   7.790  20.680  0.00  0.00    +0.000 C 
ATOM     10  O   UNL     1       1.629   6.389  20.899  0.00  0.00    +0.000 OA
ENDBRANCH   3  10
BRANCH   8  11
ATOM     11  O   UNL     1       0.494   3.778  20.064  0.00  0.00    +0.000 OA
ATOM     12  H   UNL     1       0.218   2.998  19.557  0.00  0.00    +0.000 HD
ENDBRANCH   8  11
ENDBRANCH   1   5
BRANCH   2  13
ATOM     13  C   UNL     1       7.302   6.805  17.296  0.00  0.00    +0.000 C 
ATOM     14  O   UNL     1       7.641   6.504  16.159  0.00  0.00    +0.000 OA
BRANCH  13  15
ATOM     15  C   UNL     1       8.005   7.840  18.108  0.00  0.00    +0.000 C 
ATOM     16  C   UNL     1       8.067   9.121  17.707  0.00  0.00    +0.000 C 
BRANCH  16  17
ATOM     17  C   UNL     1       8.750  10.184  18.467  0.00  0.00    +0.000 A 
ATOM     18  C   UNL     1       9.244   9.981  19.765  0.00  0.00    +0.000 A 
ATOM     19  C   UNL     1       9.899  11.005  20.455  0.00  0.00    +0.000 A 
ATOM     20  C   UNL     1      10.084  12.245  19.849  0.00  0.00    +0.000 A 
ATOM     21  C   UNL     1       9.619  12.450  18.552  0.00  0.00    +0.000 A 
ATOM     22 BR   UNL     1       9.889  14.128  17.722  0.00  0.00    +0.000 Br
ATOM     23  C   UNL     1       8.960  11.430  17.861  0.00  0.00    +0.000 A 
ENDBRANCH  16  17
ENDBRANCH  13  15
ENDBRANCH   2  13
TORSDOF 6
ENDMDL
MODEL 2
REMARK VINA RESULT:      -7.6      1.381      1.990
REMARK  Name = 
REMARK  7 active torsions:
REMARK  status: ('A' for Active; 'I' for Inactive)
REMARK    1  A    between atoms: C_1  and  O_2
REMARK    2  A    between atoms: O_2  and  C_3
REMARK    3  A    between atoms: C_5  and  C_6
REMARK    4  A    between atoms: C_7  and  C_8
REMARK    5  A    between atoms: C_8  and  C_10
REMARK    6  A    between atoms: C_11  and  C_12
REMARK    7  A    between atoms: C_21  and  O_22
REMARK                            x       y       z     vdW  Elec       q    Type
REMARK                         _______ _______ _______ _____ _____    ______ ____
ROOT
ATOM      1  C   UNL     1       5.368   5.605  17.675  0.00  0.00    +0.000 C 
ATOM      2  C   UNL     1       6.142   6.599  18.142  0.00  0.00    +0.000 C 
ENDROOT
BRANCH   1   5
ATOM      3  C   UNL     1       3.036   3.567  19.872  0.00  0.00    +0.000 A 
ATOM      4  C   UNL     1       4.185   4.047  19.217  0.00  0.00    +0.000 A 
ATOM      5  C   UNL     1       4.140   5.150  18.353  0.00  0.00    +0.000 A 
ATOM      6  C   UNL     1       2.899   5.757  18.125  0.00  0.00    +0.000 A 
ATOM      7  C   UNL     1       1.748   5.299  18.767  0.00  0.00    +0.000 A 
ATOM      8  C   UNL     1       1.815   4.209  19.639  0.00  0.00    +0.000 A 
BRANCH   3  10
ATOM      9  C   UNL     1       4.585   1.918  20.657  0.00  0.00    +0.000 C 
ATOM     10  O   UNL     1       3.285   2.492  20.682  0.00  0.00    +0.000 OA
ENDBRANCH   3  10
BRANCH   8  11
ATOM     11  O   UNL     1       0.658   3.797  20.239  0.00  0.00    +0.000 OA
ATOM     12  H   UNL     1       0.365   4.472  20.872  0.00  0.00    +0.000 HD
ENDBRANCH   8  11
ENDBRANCH   1   5
BRANCH   2  13
ATOM     13  C   UNL     1       7.367   7.044  17.422  0.00  0.00    +0.000 C 
ATOM     14  O   UNL     1       7.656   6.667  16.294  0.00  0.00    +0.000 OA
BRANCH  13  15
ATOM     15  C   UNL     1       8.208   7.997  18.202  0.00  0.00    +0.000 C 
ATOM     16  C   UNL     1       8.296   9.294  17.861  0.00  0.00    +0.000 C 
BRANCH  16  17
ATOM     17  C   UNL     1       9.113  10.278  18.594  0.00  0.00    +0.000 A 
ATOM     18  C   UNL     1       9.130  10.346  19.996  0.00  0.00    +0.000 A 
ATOM     19  C   UNL     1       9.926  11.283  20.662  0.00  0.00    +0.000 A 
ATOM     20  C   UNL     1      10.732  12.154  19.934  0.00  0.00    +0.000 A 
ATOM     21  C   UNL     1      10.742  12.079  18.544  0.00  0.00    +0.000 A 
ATOM     22 BR   UNL     1      11.852  13.250  17.557  0.00  0.00    +0.000 Br
ATOM     23  C   UNL     1       9.944  11.147  17.874  0.00  0.00    +0.000 A 
ENDBRANCH  16  17
ENDBRANCH  13  15
ENDBRANCH   2  13
TORSDOF 6
ENDMDL
MODEL 3
REMARK VINA RESULT:      -7.6      4.035      9.104
REMARK  Name = 
REMARK  7 active torsions:
REMARK  status: ('A' for Active; 'I' for Inactive)
REMARK    1  A    between atoms: C_1  and  O_2
REMARK    2  A    between atoms: O_2  and  C_3
REMARK    3  A    between atoms: C_5  and  C_6
REMARK    4  A    between atoms: C_7  and  C_8
REMARK    5  A    between atoms: C_8  and  C_10
REMARK    6  A    between atoms: C_11  and  C_12
REMARK    7  A    between atoms: C_21  and  O_22
REMARK                            x       y       z     vdW  Elec       q    Type
REMARK                         _______ _______ _______ _____ _____    ______ ____
ROOT
ATOM      1  C   UNL     1       7.969   8.985  17.586  0.00  0.00    +0.000 C 
ATOM      2  C   UNL     1       7.852   7.711  17.995  0.00  0.00    +0.000 C 
ENDROOT
BRANCH   1   5
ATOM      3  C   UNL     1       9.626  12.281  18.485  0.00  0.00    +0.000 A 
ATOM      4  C   UNL     1       8.948  11.267  17.784  0.00  0.00    +0.000 A 
ATOM      5  C   UNL     1       8.667  10.024  18.367  0.00  0.00    +0.000 A 
ATOM      6  C   UNL     1       9.113   9.793  19.674  0.00  0.00    +0.000 A 
ATOM      7  C   UNL     1       9.784  10.787  20.387  0.00  0.00    +0.000 A 
ATOM      8  C   UNL     1      10.039  12.028  19.797  0.00  0.00    +0.000 A 
BRANCH   3  10
ATOM      9  C   UNL     1      11.019  13.604  17.054  0.00  0.00    +0.000 C 
ATOM     10  O   UNL     1       9.793  13.425  17.752  0.00  0.00    +0.000 OA
ENDBRANCH   3  10
BRANCH   8  11
ATOM     11  O   UNL     1      10.704  12.965  20.537  0.00  0.00    +0.000 OA
ATOM     12  H   UNL     1      10.069  13.611  20.885  0.00  0.00    +0.000 HD
ENDBRANCH   8  11
ENDBRANCH   1   5
BRANCH   2  13
ATOM     13  C   UNL     1       7.155   6.684  17.172  0.00  0.00    +0.000 C 
ATOM     14  O   UNL     1       7.656   6.162  16.185  0.00  0.00    +0.000 OA
BRANCH  13  15
ATOM     15  C   UNL     1       5.789   6.347  17.666  0.00  0.00    +0.000 C 
ATOM     16  C   UNL     1       5.357   5.076  17.718  0.00  0.00    +0.000 C 
BRANCH  16  17
ATOM     17  C   UNL     1       4.017   4.686  18.194  0.00  0.00    +0.000 A 
ATOM     18  C   UNL     1       2.860   4.880  17.424  0.00  0.00    +0.000 A 
ATOM     19  C   UNL     1       1.605   4.487  17.898  0.00  0.00    +0.000 A 
ATOM     20  C   UNL     1       1.491   3.879  19.146  0.00  0.00    +0.000 A 
ATOM     21  C   UNL     1       2.635   3.661  19.909  0.00  0.00    +0.000 A 
ATOM     22 BR   UNL     1       2.482   2.817  21.594  0.00  0.00    +0.000 Br
ATOM     23  C   UNL     1       3.892   4.055  19.440  0.00  0.00    +0.000 A 
ENDBRANCH  16  17
ENDBRANCH  13  15
ENDBRANCH   2  13
TORSDOF 6
ENDMDL
MODEL 4
REMARK VINA RESULT:      -7.6      1.039      2.189
REMARK  Name = 
REMARK  7 active torsions:
REMARK  status: ('A' for Active; 'I' for Inactive)
REMARK    1  A    between atoms: C_1  and  O_2
REMARK    2  A    between atoms: O_2  and  C_3
REMARK    3  A    between atoms: C_5  and  C_6
REMARK    4  A    between atoms: C_7  and  C_8
REMARK    5  A    between atoms: C_8  and  C_10
REMARK    6  A    between atoms: C_11  and  C_12
REMARK    7  A    between atoms: C_21  and  O_22
REMARK                            x       y       z     vdW  Elec       q    Type
REMARK                         _______ _______ _______ _____ _____    ______ ____
ROOT
ATOM      1  C   UNL     1       5.602   5.651  18.686  0.00  0.00    +0.000 C 
ATOM      2  C   UNL     1       5.798   6.261  17.504  0.00  0.00    +0.000 C 
ENDROOT
BRANCH   1   5
ATOM      3  C   UNL     1       2.660   3.338  19.323  0.00  0.00    +0.000 A 
ATOM      4  C   UNL     1       3.913   3.836  18.923  0.00  0.00    +0.000 A 
ATOM      5  C   UNL     1       4.284   5.171  19.139  0.00  0.00    +0.000 A 
ATOM      6  C   UNL     1       3.352   6.023  19.743  0.00  0.00    +0.000 A 
ATOM      7  C   UNL     1       2.105   5.548  20.151  0.00  0.00    +0.000 A 
ATOM      8  C   UNL     1       1.759   4.210  19.944  0.00  0.00    +0.000 A 
BRANCH   3  10
ATOM      9  C   UNL     1       3.565   1.311  18.425  0.00  0.00    +0.000 C 
ATOM     10  O   UNL     1       2.490   2.010  19.037  0.00  0.00    +0.000 OA
ENDBRANCH   3  10
BRANCH   8  11
ATOM     11  O   UNL     1       0.524   3.796  20.357  0.00  0.00    +0.000 OA
ATOM     12  H   UNL     1       0.282   4.265  21.172  0.00  0.00    +0.000 HD
ENDBRANCH   8  11
ENDBRANCH   1   5
BRANCH   2  13
ATOM     13  C   UNL     1       7.147   6.718  17.071  0.00  0.00    +0.000 C 
ATOM     14  O   UNL     1       7.708   6.296  16.068  0.00  0.00    +0.000 OA
BRANCH  13  15
ATOM     15  C   UNL     1       7.750   7.742  17.971  0.00  0.00    +0.000 C 
ATOM     16  C   UNL     1       8.038   8.978  17.531  0.00  0.00    +0.000 C 
BRANCH  16  17
ATOM     17  C   UNL     1       8.637  10.028  18.376  0.00  0.00    +0.000 A 
ATOM     18  C   UNL     1       9.098   9.774  19.677  0.00  0.00    +0.000 A 
ATOM     19  C   UNL     1       9.673  10.788  20.448  0.00  0.00    +0.000 A 
ATOM     20  C   UNL     1       9.813  12.069  19.921  0.00  0.00    +0.000 A 
ATOM     21  C   UNL     1       9.381  12.327  18.623  0.00  0.00    +0.000 A 
ATOM     22 BR   UNL     1       9.589  14.063  17.901  0.00  0.00    +0.000 Br
ATOM     23  C   UNL     1       8.801  11.317  17.850  0.00  0.00    +0.000 A 
ENDBRANCH  16  17
ENDBRANCH  13  15
ENDBRANCH   2  13
TORSDOF 6
ENDMDL
MODEL 5
REMARK VINA RESULT:      -7.4      3.684      8.861
REMARK  Name = 
REMARK  7 active torsions:
REMARK  status: ('A' for Active; 'I' for Inactive)
REMARK    1  A    between atoms: C_1  and  O_2
REMARK    2  A    between atoms: O_2  and  C_3
REMARK    3  A    between atoms: C_5  and  C_6
REMARK    4  A    between atoms: C_7  and  C_8
REMARK    5  A    between atoms: C_8  and  C_10
REMARK    6  A    between atoms: C_11  and  C_12
REMARK    7  A    between atoms: C_21  and  O_22
REMARK                            x       y       z     vdW  Elec       q    Type
REMARK                         _______ _______ _______ _____ _____    ______ ____
ROOT
ATOM      1  C   UNL     1       8.040   9.290  17.614  0.00  0.00    +0.000 C 
ATOM      2  C   UNL     1       8.041   8.002  17.995  0.00  0.00    +0.000 C 
ENDROOT
BRANCH   1   5
ATOM      3  C   UNL     1       9.380  12.714  18.561  0.00  0.00    +0.000 A 
ATOM      4  C   UNL     1       8.756  11.663  17.865  0.00  0.00    +0.000 A 
ATOM      5  C   UNL     1       8.690  10.364  18.388  0.00  0.00    +0.000 A 
ATOM      6  C   UNL     1       9.298  10.120  19.625  0.00  0.00    +0.000 A 
ATOM      7  C   UNL     1       9.920  11.150  20.333  0.00  0.00    +0.000 A 
ATOM      8  C   UNL     1       9.960  12.443  19.805  0.00  0.00    +0.000 A 
BRANCH   3  10
ATOM      9  C   UNL     1       8.163  14.709  18.034  0.00  0.00    +0.000 C 
ATOM     10  O   UNL     1       9.330  13.909  17.894  0.00  0.00    +0.000 OA
ENDBRANCH   3  10
BRANCH   8  11
ATOM     11  O   UNL     1      10.585  13.415  20.536  0.00  0.00    +0.000 OA
ATOM     12  H   UNL     1      11.185  13.001  21.176  0.00  0.00    +0.000 HD
ENDBRANCH   8  11
ENDBRANCH   1   5
BRANCH   2  13
ATOM     13  C   UNL     1       7.389   6.941  17.179  0.00  0.00    +0.000 C 
ATOM     14  O   UNL     1       7.862   6.513  16.134  0.00  0.00    +0.000 OA
BRANCH  13  15
ATOM     15  C   UNL     1       6.107   6.444  17.755  0.00  0.00    +0.000 C 
ATOM     16  C   UNL     1       5.339   5.559  17.097  0.00  0.00    +0.000 C 
BRANCH  16  17
ATOM     17  C   UNL     1       4.063   5.037  17.618  0.00  0.00    +0.000 A 
ATOM     18  C   UNL     1       3.426   3.917  17.062  0.00  0.00    +0.000 A 
ATOM     19  C   UNL     1       2.222   3.438  17.588  0.00  0.00    +0.000 A 
ATOM     20  C   UNL     1       1.646   4.064  18.690  0.00  0.00    +0.000 A 
ATOM     21  C   UNL     1       2.281   5.162  19.265  0.00  0.00    +0.000 A 
ATOM     22 BR   UNL     1       1.508   6.000  20.774  0.00  0.00    +0.000 Br
ATOM     23  C   UNL     1       3.483   5.647  18.739  0.00  0.00    +0.000 A 
ENDBRANCH  16  17
ENDBRANCH  13  15
ENDBRANCH   2  13
TORSDOF 6
ENDMDL
MODEL 6
REMARK VINA RESULT:      -7.4      1.193      1.197
REMARK  Name = 
REMARK  7 active torsions:
REMARK  status: ('A' for Active; 'I' for Inactive)
REMARK    1  A    between atoms: C_1  and  O_2
REMARK    2  A    between atoms: O_2  and  C_3
REMARK    3  A    between atoms: C_5  and  C_6
REMARK    4  A    between atoms: C_7  and  C_8
REMARK    5  A    between atoms: C_8  and  C_10
REMARK    6  A    between atoms: C_11  and  C_12
REMARK    7  A    between atoms: C_21  and  O_22
REMARK                            x       y       z     vdW  Elec       q    Type
REMARK                         _______ _______ _______ _____ _____    ______ ____
ROOT
ATOM      1  C   UNL     1       5.492   5.725  18.051  0.00  0.00    +0.000 C 
ATOM      2  C   UNL     1       6.743   6.041  18.425  0.00  0.00    +0.000 C 
ENDROOT
BRANCH   1   5
ATOM      3  C   UNL     1       2.504   4.620  20.115  0.00  0.00    +0.000 A 
ATOM      4  C   UNL     1       3.382   5.389  19.329  0.00  0.00    +0.000 A 
ATOM      5  C   UNL     1       4.597   4.875  18.857  0.00  0.00    +0.000 A 
ATOM      6  C   UNL     1       4.943   3.567  19.216  0.00  0.00    +0.000 A 
ATOM      7  C   UNL     1       4.084   2.786  19.992  0.00  0.00    +0.000 A 
ATOM      8  C   UNL     1       2.869   3.309  20.439  0.00  0.00    +0.000 A 
BRANCH   3  10
ATOM      9  C   UNL     1       1.480   6.658  20.849  0.00  0.00    +0.000 C 
ATOM     10  O   UNL     1       1.365   5.293  20.468  0.00  0.00    +0.000 OA
ENDBRANCH   3  10
BRANCH   8  11
ATOM     11  O   UNL     1       2.066   2.505  21.200  0.00  0.00    +0.000 OA
ATOM     12  H   UNL     1       1.170   2.877  21.228  0.00  0.00    +0.000 HD
ENDBRANCH   8  11
ENDBRANCH   1   5
BRANCH   2  13
ATOM     13  C   UNL     1       7.614   6.918  17.594  0.00  0.00    +0.000 C 
ATOM     14  O   UNL     1       7.762   6.766  16.389  0.00  0.00    +0.000 OA
BRANCH  13  15
ATOM     15  C   UNL     1       8.286   8.001  18.367  0.00  0.00    +0.000 C 
ATOM     16  C   UNL     1       8.334   9.263  17.909  0.00  0.00    +0.000 C 
BRANCH  16  17
ATOM     17  C   UNL     1       8.986  10.371  18.629  0.00  0.00    +0.000 A 
ATOM     18  C   UNL     1       9.287  10.304  19.999  0.00  0.00    +0.000 A 
ATOM     19  C   UNL     1       9.919  11.367  20.650  0.00  0.00    +0.000 A 
ATOM     20  C   UNL     1      10.275  12.508  19.937  0.00  0.00    +0.000 A 
ATOM     21  C   UNL     1      10.003  12.576  18.573  0.00  0.00    +0.000 A 
ATOM     22 BR   UNL     1      10.505  14.119  17.600  0.00  0.00    +0.000 Br
ATOM     23  C   UNL     1       9.368  11.517  17.918  0.00  0.00    +0.000 A 
ENDBRANCH  16  17
ENDBRANCH  13  15
ENDBRANCH   2  13
TORSDOF 6
ENDMDL
MODEL 7
REMARK VINA RESULT:      -7.4      3.369      7.240
REMARK  Name = 
REMARK  7 active torsions:
REMARK  status: ('A' for Active; 'I' for Inactive)
REMARK    1  A    between atoms: C_1  and  O_2
REMARK    2  A    between atoms: O_2  and  C_3
REMARK    3  A    between atoms: C_5  and  C_6
REMARK    4  A    between atoms: C_7  and  C_8
REMARK    5  A    between atoms: C_8  and  C_10
REMARK    6  A    between atoms: C_11  and  C_12
REMARK    7  A    between atoms: C_21  and  O_22
REMARK                            x       y       z     vdW  Elec       q    Type
REMARK                         _______ _______ _______ _____ _____    ______ ____
ROOT
ATOM      1  C   UNL     1       4.314   4.497  18.927  0.00  0.00    +0.000 C 
ATOM      2  C   UNL     1       3.207   5.219  19.172  0.00  0.00    +0.000 C 
ENDROOT
BRANCH   1   5
ATOM      3  C   UNL     1       6.894   5.988  16.575  0.00  0.00    +0.000 A 
ATOM      4  C   UNL     1       6.078   5.752  17.696  0.00  0.00    +0.000 A 
ATOM      5  C   UNL     1       5.160   4.694  17.735  0.00  0.00    +0.000 A 
ATOM      6  C   UNL     1       5.044   3.880  16.602  0.00  0.00    +0.000 A 
ATOM      7  C   UNL     1       5.846   4.096  15.480  0.00  0.00    +0.000 A 
ATOM      8  C   UNL     1       6.769   5.144  15.466  0.00  0.00    +0.000 A 
BRANCH   3  10
ATOM      9  C   UNL     1       7.898   7.597  18.037  0.00  0.00    +0.000 C 
ATOM     10  O   UNL     1       7.734   7.058  16.732  0.00  0.00    +0.000 OA
ENDBRANCH   3  10
BRANCH   8  11
ATOM     11  O   UNL     1       7.527   5.314  14.341  0.00  0.00    +0.000 OA
ATOM     12  H   UNL     1       8.459   5.418  14.593  0.00  0.00    +0.000 HD
ENDBRANCH   8  11
ENDBRANCH   1   5
BRANCH   2  13
ATOM     13  C   UNL     1       2.386   5.005  20.396  0.00  0.00    +0.000 C 
ATOM     14  O   UNL     1       2.391   3.960  21.033  0.00  0.00    +0.000 OA
BRANCH  13  15
ATOM     15  C   UNL     1       1.558   6.185  20.776  0.00  0.00    +0.000 C 
ATOM     16  C   UNL     1       1.906   7.431  20.413  0.00  0.00    +0.000 C 
BRANCH  16  17
ATOM     17  C   UNL     1       1.128   8.633  20.763  0.00  0.00    +0.000 A 
ATOM     18  C   UNL     1       0.696   8.893  22.073  0.00  0.00    +0.000 A 
ATOM     19  C   UNL     1      -0.030  10.049  22.375  0.00  0.00    +0.000 A 
ATOM     20  C   UNL     1      -0.319  10.972  21.374  0.00  0.00    +0.000 A 
ATOM     21  C   UNL     1       0.125  10.736  20.075  0.00  0.00    +0.000 A 
ATOM     22 BR   UNL     1      -0.251  11.999  18.719  0.00  0.00    +0.000 Br
ATOM     23  C   UNL     1       0.847   9.579  19.768  0.00  0.00    +0.000 A 
ENDBRANCH  16  17
ENDBRANCH  13  15
ENDBRANCH   2  13
TORSDOF 6
ENDMDL
MODEL 8
REMARK VINA RESULT:      -7.4      4.041      9.194
REMARK  Name = 
REMARK  7 active torsions:
REMARK  status: ('A' for Active; 'I' for Inactive)
REMARK    1  A    between atoms: C_1  and  O_2
REMARK    2  A    between atoms: O_2  and  C_3
REMARK    3  A    between atoms: C_5  and  C_6
REMARK    4  A    between atoms: C_7  and  C_8
REMARK    5  A    between atoms: C_8  and  C_10
REMARK    6  A    between atoms: C_11  and  C_12
REMARK    7  A    between atoms: C_21  and  O_22
REMARK                            x       y       z     vdW  Elec       q    Type
REMARK                         _______ _______ _______ _____ _____    ______ ____
ROOT
ATOM      1  C   UNL     1       8.626   8.856  18.604  0.00  0.00    +0.000 C 
ATOM      2  C   UNL     1       7.777   8.675  17.579  0.00  0.00    +0.000 C 
ENDROOT
BRANCH   1   5
ATOM      3  C   UNL     1      10.016  12.375  18.296  0.00  0.00    +0.000 A 
ATOM      4  C   UNL     1       9.480  11.113  17.986  0.00  0.00    +0.000 A 
ATOM      5  C   UNL     1       9.171  10.174  18.980  0.00  0.00    +0.000 A 
ATOM      6  C   UNL     1       9.442  10.511  20.311  0.00  0.00    +0.000 A 
ATOM      7  C   UNL     1       9.971  11.760  20.640  0.00  0.00    +0.000 A 
ATOM      8  C   UNL     1      10.257  12.690  19.638  0.00  0.00    +0.000 A 
BRANCH   3  10
ATOM      9  C   UNL     1      11.569  13.268  16.705  0.00  0.00    +0.000 C 
ATOM     10  O   UNL     1      10.238  13.155  17.192  0.00  0.00    +0.000 OA
ENDBRANCH   3  10
BRANCH   8  11
ATOM     11  O   UNL     1      10.778  13.897  20.013  0.00  0.00    +0.000 OA
ATOM     12  H   UNL     1      10.162  14.341  20.617  0.00  0.00    +0.000 HD
ENDBRANCH   8  11
ENDBRANCH   1   5
BRANCH   2  13
ATOM     13  C   UNL     1       7.233   7.331  17.238  0.00  0.00    +0.000 C 
ATOM     14  O   UNL     1       7.733   6.599  16.394  0.00  0.00    +0.000 OA
BRANCH  13  15
ATOM     15  C   UNL     1       6.023   6.958  18.026  0.00  0.00    +0.000 C 
ATOM     16  C   UNL     1       5.256   5.911  17.677  0.00  0.00    +0.000 C 
BRANCH  16  17
ATOM     17  C   UNL     1       4.049   5.500  18.417  0.00  0.00    +0.000 A 
ATOM     18  C   UNL     1       3.373   6.364  19.294  0.00  0.00    +0.000 A 
ATOM     19  C   UNL     1       2.223   5.947  19.970  0.00  0.00    +0.000 A 
ATOM     20  C   UNL     1       1.721   4.665  19.767  0.00  0.00    +0.000 A 
ATOM     21  C   UNL     1       2.370   3.808  18.882  0.00  0.00    +0.000 A 
ATOM     22 BR   UNL     1       1.676   2.072  18.591  0.00  0.00    +0.000 Br
ATOM     23  C   UNL     1       3.522   4.218  18.206  0.00  0.00    +0.000 A 
ENDBRANCH  16  17
ENDBRANCH  13  15
ENDBRANCH   2  13
TORSDOF 6
ENDMDL
MODEL 9
REMARK VINA RESULT:      -7.3      1.497      2.536
REMARK  Name = 
REMARK  7 active torsions:
REMARK  status: ('A' for Active; 'I' for Inactive)
REMARK    1  A    between atoms: C_1  and  O_2
REMARK    2  A    between atoms: O_2  and  C_3
REMARK    3  A    between atoms: C_5  and  C_6
REMARK    4  A    between atoms: C_7  and  C_8
REMARK    5  A    between atoms: C_8  and  C_10
REMARK    6  A    between atoms: C_11  and  C_12
REMARK    7  A    between atoms: C_21  and  O_22
REMARK                            x       y       z     vdW  Elec       q    Type
REMARK                         _______ _______ _______ _____ _____    ______ ____
ROOT
ATOM      1  C   UNL     1       5.037   6.243  17.843  0.00  0.00    +0.000 C 
ATOM      2  C   UNL     1       6.325   6.198  18.222  0.00  0.00    +0.000 C 
ENDROOT
BRANCH   1   5
ATOM      3  C   UNL     1       2.659   3.625  19.222  0.00  0.00    +0.000 A 
ATOM      4  C   UNL     1       3.700   4.252  18.515  0.00  0.00    +0.000 A 
ATOM      5  C   UNL     1       3.944   5.628  18.619  0.00  0.00    +0.000 A 
ATOM      6  C   UNL     1       3.093   6.388  19.431  0.00  0.00    +0.000 A 
ATOM      7  C   UNL     1       2.056   5.784  20.144  0.00  0.00    +0.000 A 
ATOM      8  C   UNL     1       1.839   4.408  20.043  0.00  0.00    +0.000 A 
BRANCH   3  10
ATOM      9  C   UNL     1       3.498   1.700  18.071  0.00  0.00    +0.000 C 
ATOM     10  O   UNL     1       2.589   2.276  19.000  0.00  0.00    +0.000 OA
ENDBRANCH   3  10
BRANCH   8  11
ATOM     11  O   UNL     1       0.808   3.867  20.758  0.00  0.00    +0.000 OA
ATOM     12  H   UNL     1       0.483   3.072  20.306  0.00  0.00    +0.000 HD
ENDBRANCH   8  11
ENDBRANCH   1   5
BRANCH   2  13
ATOM     13  C   UNL     1       7.401   6.845  17.422  0.00  0.00    +0.000 C 
ATOM     14  O   UNL     1       7.607   6.590  16.243  0.00  0.00    +0.000 OA
BRANCH  13  15
ATOM     15  C   UNL     1       8.204   7.839  18.192  0.00  0.00    +0.000 C 
ATOM     16  C   UNL     1       8.281   9.125  17.809  0.00  0.00    +0.000 C 
BRANCH  16  17
ATOM     17  C   UNL     1       9.061  10.147  18.530  0.00  0.00    +0.000 A 
ATOM     18  C   UNL     1      10.139  10.825  17.939  0.00  0.00    +0.000 A 
ATOM     19  C   UNL     1      10.850  11.799  18.645  0.00  0.00    +0.000 A 
ATOM     20  C   UNL     1      10.482  12.123  19.949  0.00  0.00    +0.000 A 
ATOM     21  C   UNL     1       9.399  11.474  20.536  0.00  0.00    +0.000 A 
ATOM     22 BR   UNL     1       8.886  11.929  22.299  0.00  0.00    +0.000 Br
ATOM     23  C   UNL     1       8.688  10.496  19.835  0.00  0.00    +0.000 A 
ENDBRANCH  16  17
ENDBRANCH  13  15
ENDBRANCH   2  13
TORSDOF 6
ENDMDL
