MODEL 1
REMARK VINA RESULT:      -6.8      0.000      0.000
REMARK  Name = 
REMARK  5 active torsions:
REMARK  status: ('A' for Active; 'I' for Inactive)
REMARK    1  A    between atoms: C_1  and  C_2
REMARK    2  A    between atoms: C_2  and  S_3
REMARK    3  A    between atoms: S_3  and  C_4
REMARK    4  A    between atoms: N_8  and  S_9
REMARK    5  A    between atoms: S_9  and  C_12
REMARK                            x       y       z     vdW  Elec       q    Type
REMARK                         _______ _______ _______ _____ _____    ______ ____
ROOT
ATOM      1  S   UNL     1       5.012   4.105  18.161  0.00  0.00    +0.000 S 
ATOM      2  O   UNL     1       4.109   3.059  17.741  0.00  0.00    +0.000 OA
ATOM      3  O   UNL     1       5.782   3.961  19.378  0.00  0.00    +0.000 OA
ENDROOT
BRANCH   1   4
ATOM      4  C   UNL     1       4.019   5.580  18.336  0.00  0.00    +0.000 A 
ATOM      5  C   UNL     1       3.267   5.762  19.503  0.00  0.00    +0.000 A 
ATOM      6  C   UNL     1       2.442   6.881  19.621  0.00  0.00    +0.000 A 
ATOM      7  C   UNL     1       2.388   7.823  18.591  0.00  0.00    +0.000 A 
ATOM      8  C   UNL     1       3.178   7.666  17.452  0.00  0.00    +0.000 A 
ATOM      9  C   UNL     1       4.001   6.545  17.323  0.00  0.00    +0.000 A 
ENDBRANCH   1   4
BRANCH   1  14
ATOM     10  C   UNL     1       7.001   5.571  16.834  0.00  0.00    +0.000 C 
ATOM     11  N   UNL     1       7.446   5.772  15.633  0.00  0.00    +0.000 NA
ATOM     12  C   UNL     1       6.684   4.846  14.751  0.00  0.00    +0.000 C 
ATOM     13  C   UNL     1       5.949   3.852  15.652  0.00  0.00    +0.000 C 
ATOM     14  N   UNL     1       6.076   4.526  16.945  0.00  0.00    +0.000 N 
BRANCH  10  15
ATOM     15  S   UNL     1       7.597   6.449  18.196  0.00  0.00    +0.000 S 
BRANCH  15  17
ATOM     16  C   UNL     1       8.515   9.047  18.356  0.00  0.00    +0.000 C 
ATOM     17  C   UNL     1       7.561   8.157  17.569  0.00  0.00    +0.000 C 
ENDBRANCH  15  17
ENDBRANCH  10  15
ENDBRANCH   1  14
TORSDOF 4
ENDMDL
MODEL 2
REMARK VINA RESULT:      -6.7      0.070      1.178
REMARK  Name = 
REMARK  5 active torsions:
REMARK  status: ('A' for Active; 'I' for Inactive)
REMARK    1  A    between atoms: C_1  and  C_2
REMARK    2  A    between atoms: C_2  and  S_3
REMARK    3  A    between atoms: S_3  and  C_4
REMARK    4  A    between atoms: N_8  and  S_9
REMARK    5  A    between atoms: S_9  and  C_12
REMARK                            x       y       z     vdW  Elec       q    Type
REMARK                         _______ _______ _______ _____ _____    ______ ____
ROOT
ATOM      1  S   UNL     1       5.008   4.062  18.182  0.00  0.00    +0.000 S 
ATOM      2  O   UNL     1       4.133   2.983  17.786  0.00  0.00    +0.000 OA
ATOM      3  O   UNL     1       5.796   3.959  19.391  0.00  0.00    +0.000 OA
ENDROOT
BRANCH   1   4
ATOM      4  C   UNL     1       3.972   5.509  18.349  0.00  0.00    +0.000 A 
ATOM      5  C   UNL     1       3.941   6.449  17.314  0.00  0.00    +0.000 A 
ATOM      6  C   UNL     1       3.182   7.611  17.463  0.00  0.00    +0.000 A 
ATOM      7  C   UNL     1       2.442   7.818  18.629  0.00  0.00    +0.000 A 
ATOM      8  C   UNL     1       2.434   6.855  19.638  0.00  0.00    +0.000 A 
ATOM      9  C   UNL     1       3.196   5.693  19.499  0.00  0.00    +0.000 A 
ENDBRANCH   1   4
BRANCH   1  14
ATOM     10  C   UNL     1       6.953   5.558  16.822  0.00  0.00    +0.000 C 
ATOM     11  N   UNL     1       7.374   5.766  15.614  0.00  0.00    +0.000 NA
ATOM     12  C   UNL     1       6.611   4.830  14.744  0.00  0.00    +0.000 C 
ATOM     13  C   UNL     1       5.905   3.824  15.657  0.00  0.00    +0.000 C 
ATOM     14  N   UNL     1       6.045   4.499  16.948  0.00  0.00    +0.000 N 
BRANCH  10  15
ATOM     15  S   UNL     1       7.559   6.444  18.175  0.00  0.00    +0.000 S 
BRANCH  15  17
ATOM     16  C   UNL     1       8.485   9.041  18.277  0.00  0.00    +0.000 C 
ATOM     17  C   UNL     1       7.483   8.151  17.551  0.00  0.00    +0.000 C 
ENDBRANCH  15  17
ENDBRANCH  10  15
ENDBRANCH   1  14
TORSDOF 4
ENDMDL
MODEL 3
REMARK VINA RESULT:      -6.3      1.609      3.264
REMARK  Name = 
REMARK  5 active torsions:
REMARK  status: ('A' for Active; 'I' for Inactive)
REMARK    1  A    between atoms: C_1  and  C_2
REMARK    2  A    between atoms: C_2  and  S_3
REMARK    3  A    between atoms: S_3  and  C_4
REMARK    4  A    between atoms: N_8  and  S_9
REMARK    5  A    between atoms: S_9  and  C_12
REMARK                            x       y       z     vdW  Elec       q    Type
REMARK                         _______ _______ _______ _____ _____    ______ ____
ROOT
ATOM      1  S   UNL     1       4.748   4.040  18.442  0.00  0.00    +0.000 S 
ATOM      2  O   UNL     1       4.153   3.495  17.243  0.00  0.00    +0.000 OA
ATOM      3  O   UNL     1       5.321   3.161  19.438  0.00  0.00    +0.000 OA
ENDROOT
BRANCH   1   4
ATOM      4  C   UNL     1       3.466   4.988  19.248  0.00  0.00    +0.000 A 
ATOM      5  C   UNL     1       3.232   6.305  18.839  0.00  0.00    +0.000 A 
ATOM      6  C   UNL     1       2.275   7.072  19.505  0.00  0.00    +0.000 A 
ATOM      7  C   UNL     1       1.541   6.517  20.555  0.00  0.00    +0.000 A 
ATOM      8  C   UNL     1       1.740   5.187  20.927  0.00  0.00    +0.000 A 
ATOM      9  C   UNL     1       2.700   4.416  20.271  0.00  0.00    +0.000 A 
ENDBRANCH   1   4
BRANCH   1  14
ATOM     10  C   UNL     1       6.372   5.702  16.870  0.00  0.00    +0.000 C 
ATOM     11  N   UNL     1       7.470   6.385  16.962  0.00  0.00    +0.000 NA
ATOM     12  C   UNL     1       7.900   6.285  18.383  0.00  0.00    +0.000 C 
ATOM     13  C   UNL     1       6.729   5.705  19.180  0.00  0.00    +0.000 C 
ATOM     14  N   UNL     1       5.892   5.204  18.087  0.00  0.00    +0.000 N 
BRANCH  10  15
ATOM     15  S   UNL     1       5.517   5.527  15.380  0.00  0.00    +0.000 S 
BRANCH  15  17
ATOM     16  C   UNL     1       5.881   3.743  13.306  0.00  0.00    +0.000 C 
ATOM     17  C   UNL     1       6.621   4.412  14.459  0.00  0.00    +0.000 C 
ENDBRANCH  15  17
ENDBRANCH  10  15
ENDBRANCH   1  14
TORSDOF 4
ENDMDL
MODEL 4
REMARK VINA RESULT:      -6.3      2.826      4.383
REMARK  Name = 
REMARK  5 active torsions:
REMARK  status: ('A' for Active; 'I' for Inactive)
REMARK    1  A    between atoms: C_1  and  C_2
REMARK    2  A    between atoms: C_2  and  S_3
REMARK    3  A    between atoms: S_3  and  C_4
REMARK    4  A    between atoms: N_8  and  S_9
REMARK    5  A    between atoms: S_9  and  C_12
REMARK                            x       y       z     vdW  Elec       q    Type
REMARK                         _______ _______ _______ _____ _____    ______ ____
ROOT
ATOM      1  S   UNL     1       2.217   3.795  17.461  0.00  0.00    +0.000 S 
ATOM      2  O   UNL     1       0.974   4.492  17.227  0.00  0.00    +0.000 OA
ATOM      3  O   UNL     1       2.536   2.598  16.713  0.00  0.00    +0.000 OA
ENDROOT
BRANCH   1   4
ATOM      4  C   UNL     1       2.223   3.352  19.192  0.00  0.00    +0.000 A 
ATOM      5  C   UNL     1       3.418   2.927  19.783  0.00  0.00    +0.000 A 
ATOM      6  C   UNL     1       3.418   2.521  21.118  0.00  0.00    +0.000 A 
ATOM      7  C   UNL     1       2.237   2.564  21.862  0.00  0.00    +0.000 A 
ATOM      8  C   UNL     1       1.059   3.038  21.286  0.00  0.00    +0.000 A 
ATOM      9  C   UNL     1       1.049   3.439  19.948  0.00  0.00    +0.000 A 
ENDBRANCH   1   4
BRANCH   1  14
ATOM     10  C   UNL     1       3.696   6.168  17.686  0.00  0.00    +0.000 C 
ATOM     11  N   UNL     1       4.754   6.725  17.183  0.00  0.00    +0.000 NA
ATOM     12  C   UNL     1       5.371   5.708  16.289  0.00  0.00    +0.000 C 
ATOM     13  C   UNL     1       4.695   4.366  16.581  0.00  0.00    +0.000 C 
ATOM     14  N   UNL     1       3.530   4.820  17.343  0.00  0.00    +0.000 N 
BRANCH  10  15
ATOM     15  S   UNL     1       2.651   6.996  18.781  0.00  0.00    +0.000 S 
BRANCH  15  17
ATOM     16  C   UNL     1       1.357   9.429  18.618  0.00  0.00    +0.000 C 
ATOM     17  C   UNL     1       2.128   8.419  17.775  0.00  0.00    +0.000 C 
ENDBRANCH  15  17
ENDBRANCH  10  15
ENDBRANCH   1  14
TORSDOF 4
ENDMDL
MODEL 5
REMARK VINA RESULT:      -6.3      2.723      5.537
REMARK  Name = 
REMARK  5 active torsions:
REMARK  status: ('A' for Active; 'I' for Inactive)
REMARK    1  A    between atoms: C_1  and  C_2
REMARK    2  A    between atoms: C_2  and  S_3
REMARK    3  A    between atoms: S_3  and  C_4
REMARK    4  A    between atoms: N_8  and  S_9
REMARK    5  A    between atoms: S_9  and  C_12
REMARK                            x       y       z     vdW  Elec       q    Type
REMARK                         _______ _______ _______ _____ _____    ______ ____
ROOT
ATOM      1  S   UNL     1       4.597   4.047  18.787  0.00  0.00    +0.000 S 
ATOM      2  O   UNL     1       5.263   3.074  19.621  0.00  0.00    +0.000 OA
ATOM      3  O   UNL     1       3.962   3.640  17.552  0.00  0.00    +0.000 OA
ENDROOT
BRANCH   1   4
ATOM      4  C   UNL     1       5.828   5.272  18.369  0.00  0.00    +0.000 A 
ATOM      5  C   UNL     1       6.957   5.410  19.183  0.00  0.00    +0.000 A 
ATOM      6  C   UNL     1       7.893   6.406  18.897  0.00  0.00    +0.000 A 
ATOM      7  C   UNL     1       7.712   7.240  17.793  0.00  0.00    +0.000 A 
ATOM      8  C   UNL     1       6.612   7.067  16.953  0.00  0.00    +0.000 A 
ATOM      9  C   UNL     1       5.667   6.078  17.235  0.00  0.00    +0.000 A 
ENDBRANCH   1   4
BRANCH   1  14
ATOM     10  C   UNL     1       2.407   4.551  20.466  0.00  0.00    +0.000 C 
ATOM     11  N   UNL     1       1.567   5.501  20.737  0.00  0.00    +0.000 NA
ATOM     12  C   UNL     1       2.011   6.682  19.948  0.00  0.00    +0.000 C 
ATOM     13  C   UNL     1       3.413   6.381  19.416  0.00  0.00    +0.000 C 
ATOM     14  N   UNL     1       3.478   4.937  19.651  0.00  0.00    +0.000 N 
BRANCH  10  15
ATOM     15  S   UNL     1       2.269   2.975  21.156  0.00  0.00    +0.000 S 
BRANCH  15  17
ATOM     16  C   UNL     1       0.706   2.651  18.905  0.00  0.00    +0.000 C 
ATOM     17  C   UNL     1       1.821   1.981  19.699  0.00  0.00    +0.000 C 
ENDBRANCH  15  17
ENDBRANCH  10  15
ENDBRANCH   1  14
TORSDOF 4
ENDMDL
MODEL 6
REMARK VINA RESULT:      -6.2      2.351      5.420
REMARK  Name = 
REMARK  5 active torsions:
REMARK  status: ('A' for Active; 'I' for Inactive)
REMARK    1  A    between atoms: C_1  and  C_2
REMARK    2  A    between atoms: C_2  and  S_3
REMARK    3  A    between atoms: S_3  and  C_4
REMARK    4  A    between atoms: N_8  and  S_9
REMARK    5  A    between atoms: S_9  and  C_12
REMARK                            x       y       z     vdW  Elec       q    Type
REMARK                         _______ _______ _______ _____ _____    ______ ____
ROOT
ATOM      1  S   UNL     1       4.349   4.057  18.325  0.00  0.00    +0.000 S 
ATOM      2  O   UNL     1       5.243   3.642  19.381  0.00  0.00    +0.000 OA
ATOM      3  O   UNL     1       3.257   3.201  17.913  0.00  0.00    +0.000 OA
ENDROOT
BRANCH   1   4
ATOM      4  C   UNL     1       5.370   4.338  16.887  0.00  0.00    +0.000 A 
ATOM      5  C   UNL     1       4.801   4.227  15.614  0.00  0.00    +0.000 A 
ATOM      6  C   UNL     1       5.607   4.384  14.484  0.00  0.00    +0.000 A 
ATOM      7  C   UNL     1       6.965   4.675  14.629  0.00  0.00    +0.000 A 
ATOM      8  C   UNL     1       7.519   4.837  15.899  0.00  0.00    +0.000 A 
ATOM      9  C   UNL     1       6.721   4.673  17.034  0.00  0.00    +0.000 A 
ENDBRANCH   1   4
BRANCH   1  14
ATOM     10  C   UNL     1       2.741   6.017  19.527  0.00  0.00    +0.000 C 
ATOM     11  N   UNL     1       2.273   7.200  19.278  0.00  0.00    +0.000 NA
ATOM     12  C   UNL     1       2.885   7.623  17.989  0.00  0.00    +0.000 C 
ATOM     13  C   UNL     1       4.020   6.647  17.675  0.00  0.00    +0.000 C 
ATOM     14  N   UNL     1       3.710   5.572  18.619  0.00  0.00    +0.000 N 
BRANCH  10  15
ATOM     15  S   UNL     1       2.286   5.122  20.931  0.00  0.00    +0.000 S 
BRANCH  15  17
ATOM     16  C   UNL     1       1.196   2.603  20.640  0.00  0.00    +0.000 C 
ATOM     17  C   UNL     1       0.961   4.063  20.271  0.00  0.00    +0.000 C 
ENDBRANCH  15  17
ENDBRANCH  10  15
ENDBRANCH   1  14
TORSDOF 4
ENDMDL
MODEL 7
REMARK VINA RESULT:      -6.2      1.874      3.146
REMARK  Name = 
REMARK  5 active torsions:
REMARK  status: ('A' for Active; 'I' for Inactive)
REMARK    1  A    between atoms: C_1  and  C_2
REMARK    2  A    between atoms: C_2  and  S_3
REMARK    3  A    between atoms: S_3  and  C_4
REMARK    4  A    between atoms: N_8  and  S_9
REMARK    5  A    between atoms: S_9  and  C_12
REMARK                            x       y       z     vdW  Elec       q    Type
REMARK                         _______ _______ _______ _____ _____    ______ ____
ROOT
ATOM      1  S   UNL     1       4.426   3.632  18.707  0.00  0.00    +0.000 S 
ATOM      2  O   UNL     1       3.700   3.016  17.620  0.00  0.00    +0.000 OA
ATOM      3  O   UNL     1       4.930   2.827  19.798  0.00  0.00    +0.000 OA
ENDROOT
BRANCH   1   4
ATOM      4  C   UNL     1       3.327   4.851  19.414  0.00  0.00    +0.000 A 
ATOM      5  C   UNL     1       2.527   4.496  20.505  0.00  0.00    +0.000 A 
ATOM      6  C   UNL     1       1.622   5.424  21.024  0.00  0.00    +0.000 A 
ATOM      7  C   UNL     1       1.536   6.703  20.470  0.00  0.00    +0.000 A 
ATOM      8  C   UNL     1       2.372   7.071  19.416  0.00  0.00    +0.000 A 
ATOM      9  C   UNL     1       3.275   6.147  18.887  0.00  0.00    +0.000 A 
ENDBRANCH   1   4
BRANCH   1  14
ATOM     10  C   UNL     1       6.219   4.757  16.866  0.00  0.00    +0.000 C 
ATOM     11  N   UNL     1       7.389   5.315  16.841  0.00  0.00    +0.000 NA
ATOM     12  C   UNL     1       7.815   5.446  18.261  0.00  0.00    +0.000 C 
ATOM     13  C   UNL     1       6.591   5.171  19.137  0.00  0.00    +0.000 C 
ATOM     14  N   UNL     1       5.694   4.566  18.150  0.00  0.00    +0.000 N 
BRANCH  10  15
ATOM     15  S   UNL     1       5.339   4.394  15.426  0.00  0.00    +0.000 S 
BRANCH  15  17
ATOM     16  C   UNL     1       6.181   3.642  12.907  0.00  0.00    +0.000 C 
ATOM     17  C   UNL     1       6.683   4.264  14.206  0.00  0.00    +0.000 C 
ENDBRANCH  15  17
ENDBRANCH  10  15
ENDBRANCH   1  14
TORSDOF 4
ENDMDL
MODEL 8
REMARK VINA RESULT:      -6.2      1.897      2.941
REMARK  Name = 
REMARK  5 active torsions:
REMARK  status: ('A' for Active; 'I' for Inactive)
REMARK    1  A    between atoms: C_1  and  C_2
REMARK    2  A    between atoms: C_2  and  S_3
REMARK    3  A    between atoms: S_3  and  C_4
REMARK    4  A    between atoms: N_8  and  S_9
REMARK    5  A    between atoms: S_9  and  C_12
REMARK                            x       y       z     vdW  Elec       q    Type
REMARK                         _______ _______ _______ _____ _____    ______ ____
ROOT
ATOM      1  S   UNL     1       4.023   4.349  18.403  0.00  0.00    +0.000 S 
ATOM      2  O   UNL     1       3.323   3.737  17.297  0.00  0.00    +0.000 OA
ATOM      3  O   UNL     1       4.075   3.688  19.689  0.00  0.00    +0.000 OA
ENDROOT
BRANCH   1   4
ATOM      4  C   UNL     1       3.256   5.942  18.659  0.00  0.00    +0.000 A 
ATOM      5  C   UNL     1       2.570   6.184  19.854  0.00  0.00    +0.000 A 
ATOM      6  C   UNL     1       1.916   7.404  20.037  0.00  0.00    +0.000 A 
ATOM      7  C   UNL     1       1.970   8.382  19.041  0.00  0.00    +0.000 A 
ATOM      8  C   UNL     1       2.699   8.158  17.873  0.00  0.00    +0.000 A 
ATOM      9  C   UNL     1       3.349   6.937  17.680  0.00  0.00    +0.000 A 
ENDBRANCH   1   4
BRANCH   1  14
ATOM     10  C   UNL     1       6.382   4.425  16.887  0.00  0.00    +0.000 C 
ATOM     11  N   UNL     1       7.646   4.675  17.037  0.00  0.00    +0.000 NA
ATOM     12  C   UNL     1       7.810   5.142  18.440  0.00  0.00    +0.000 C 
ATOM     13  C   UNL     1       6.414   5.428  18.999  0.00  0.00    +0.000 C 
ATOM     14  N   UNL     1       5.588   4.761  17.991  0.00  0.00    +0.000 N 
BRANCH  10  15
ATOM     15  S   UNL     1       5.728   3.838  15.402  0.00  0.00    +0.000 S 
BRANCH  15  17
ATOM     16  C   UNL     1       6.661   4.006  12.810  0.00  0.00    +0.000 C 
ATOM     17  C   UNL     1       6.814   4.645  14.185  0.00  0.00    +0.000 C 
ENDBRANCH  15  17
ENDBRANCH  10  15
ENDBRANCH   1  14
TORSDOF 4
ENDMDL
MODEL 9
REMARK VINA RESULT:      -6.2      2.370      3.587
REMARK  Name = 
REMARK  5 active torsions:
REMARK  status: ('A' for Active; 'I' for Inactive)
REMARK    1  A    between atoms: C_1  and  C_2
REMARK    2  A    between atoms: C_2  and  S_3
REMARK    3  A    between atoms: S_3  and  C_4
REMARK    4  A    between atoms: N_8  and  S_9
REMARK    5  A    between atoms: S_9  and  C_12
REMARK                            x       y       z     vdW  Elec       q    Type
REMARK                         _______ _______ _______ _____ _____    ______ ____
ROOT
ATOM      1  S   UNL     1       4.425   3.875  18.283  0.00  0.00    +0.000 S 
ATOM      2  O   UNL     1       4.366   2.946  17.178  0.00  0.00    +0.000 OA
ATOM      3  O   UNL     1       5.619   3.971  19.094  0.00  0.00    +0.000 OA
ENDROOT
BRANCH   1   4
ATOM      4  C   UNL     1       3.079   3.438  19.374  0.00  0.00    +0.000 A 
ATOM      5  C   UNL     1       1.957   2.791  18.848  0.00  0.00    +0.000 A 
ATOM      6  C   UNL     1       0.875   2.501  19.682  0.00  0.00    +0.000 A 
ATOM      7  C   UNL     1       0.928   2.835  21.037  0.00  0.00    +0.000 A 
ATOM      8  C   UNL     1       2.070   3.434  21.570  0.00  0.00    +0.000 A 
ATOM      9  C   UNL     1       3.153   3.733  20.741  0.00  0.00    +0.000 A 
ENDBRANCH   1   4
BRANCH   1  14
ATOM     10  C   UNL     1       4.786   6.467  17.274  0.00  0.00    +0.000 C 
ATOM     11  N   UNL     1       4.208   7.628  17.302  0.00  0.00    +0.000 NA
ATOM     12  C   UNL     1       2.927   7.434  18.034  0.00  0.00    +0.000 C 
ATOM     13  C   UNL     1       2.690   5.928  18.158  0.00  0.00    +0.000 C 
ATOM     14  N   UNL     1       4.020   5.424  17.808  0.00  0.00    +0.000 N 
BRANCH  10  15
ATOM     15  S   UNL     1       6.323   6.220  16.530  0.00  0.00    +0.000 S 
BRANCH  15  17
ATOM     16  C   UNL     1       7.843   8.234  17.649  0.00  0.00    +0.000 C 
ATOM     17  C   UNL     1       7.454   6.773  17.844  0.00  0.00    +0.000 C 
ENDBRANCH  15  17
ENDBRANCH  10  15
ENDBRANCH   1  14
TORSDOF 4
ENDMDL
