MODEL 1
REMARK VINA RESULT:      -8.3      0.000      0.000
REMARK  Name = 
REMARK  7 active torsions:
REMARK  status: ('A' for Active; 'I' for Inactive)
REMARK    1  A    between atoms: C_1  and  C_2
REMARK    2  A    between atoms: C_2  and  C_3
REMARK    3  A    between atoms: C_3  and  O_4
REMARK    4  A    between atoms: O_4  and  C_5
REMARK    5  A    between atoms: C_5  and  C_6
REMARK    6  A    between atoms: C_9  and  C_10
REMARK    7  A    between atoms: C_22  and  N_23
REMARK                            x       y       z     vdW  Elec       q    Type
REMARK                         _______ _______ _______ _____ _____    ______ ____
ROOT
ATOM      1  O   UNL     1       2.542   5.749  18.659  0.00  0.00    +0.000 OA
ENDROOT
BRANCH   1   2
ATOM      2  C   UNL     1       3.532   5.180  19.514  0.00  0.00    +0.000 C 
BRANCH   2   4
ATOM      3  C   UNL     1       4.497   2.866  19.575  0.00  0.00    +0.000 C 
ATOM      4  C   UNL     1       4.399   4.157  18.756  0.00  0.00    +0.000 C 
ATOM      5  C   UNL     1       5.806   4.723  18.428  0.00  0.00    +0.000 C 
ATOM      6  N   UNL     1       5.983   4.687  16.995  0.00  0.00    +0.000 N 
ATOM      7  C   UNL     1       7.023   5.018  16.192  0.00  0.00    +0.000 A 
ATOM      8  C   UNL     1       6.554   4.719  14.918  0.00  0.00    +0.000 A 
ATOM      9  N   UNL     1       5.262   4.205  14.955  0.00  0.00    +0.000 NA
ATOM     10  C   UNL     1       4.972   4.218  16.226  0.00  0.00    +0.000 A 
ATOM     11  S   UNL     1       3.597   3.730  17.122  0.00  0.00    +0.000 S 
BRANCH   8  12
ATOM     12  N   UNL     1       7.265   4.878  13.669  0.00  0.00    +0.000 N 
ATOM     13  O   UNL     1       6.889   4.167  12.721  0.00  0.00    +0.000 OA
ATOM     14  O   UNL     1       8.186   5.703  13.624  0.00  0.00    +0.000 OA
ENDBRANCH   8  12
ENDBRANCH   2   4
ENDBRANCH   1   2
BRANCH   1  15
ATOM     15  C   UNL     1       2.917   7.056  18.223  0.00  0.00    +0.000 C 
BRANCH  15  16
ATOM     16  C   UNL     1       2.028   8.065  18.895  0.00  0.00    +0.000 A 
ATOM     17  C   UNL     1       1.711   7.932  20.250  0.00  0.00    +0.000 A 
ATOM     18  C   UNL     1       0.879   8.863  20.881  0.00  0.00    +0.000 A 
ATOM     19  C   UNL     1       0.343   9.963  20.188  0.00  0.00    +0.000 A 
ATOM     20  C   UNL     1       0.684  10.089  18.830  0.00  0.00    +0.000 A 
ATOM     21  C   UNL     1       1.507   9.153  18.190  0.00  0.00    +0.000 A 
BRANCH  19  22
ATOM     22  C   UNL     1      -0.553  10.934  20.862  0.00  0.00    +0.000 A 
ATOM     23  C   UNL     1      -1.458  11.727  20.127  0.00  0.00    +0.000 A 
ATOM     24  C   UNL     1      -2.275  12.674  20.753  0.00  0.00    +0.000 A 
ATOM     25  C   UNL     1      -2.208  12.831  22.129  0.00  0.00    +0.000 A 
ATOM     26  F   UNL     1      -2.987  13.740  22.729  0.00  0.00    +0.000 F 
ATOM     27  C   UNL     1      -1.344  12.059  22.889  0.00  0.00    +0.000 A 
ATOM     28  C   UNL     1      -0.519  11.122  22.259  0.00  0.00    +0.000 A 
ENDBRANCH  19  22
ENDBRANCH  15  16
ENDBRANCH   1  15
TORSDOF 6
ENDMDL
MODEL 2
REMARK VINA RESULT:      -8.3      2.382      4.324
REMARK  Name = 
REMARK  7 active torsions:
REMARK  status: ('A' for Active; 'I' for Inactive)
REMARK    1  A    between atoms: C_1  and  C_2
REMARK    2  A    between atoms: C_2  and  C_3
REMARK    3  A    between atoms: C_3  and  O_4
REMARK    4  A    between atoms: O_4  and  C_5
REMARK    5  A    between atoms: C_5  and  C_6
REMARK    6  A    between atoms: C_9  and  C_10
REMARK    7  A    between atoms: C_22  and  N_23
REMARK                            x       y       z     vdW  Elec       q    Type
REMARK                         _______ _______ _______ _____ _____    ______ ____
ROOT
ATOM      1  O   UNL     1       5.022   7.448  17.479  0.00  0.00    +0.000 OA
ENDROOT
BRANCH   1   2
ATOM      2  C   UNL     1       5.885   6.605  16.718  0.00  0.00    +0.000 C 
BRANCH   2   4
ATOM      3  C   UNL     1       7.137   4.439  16.897  0.00  0.00    +0.000 C 
ATOM      4  C   UNL     1       5.815   5.147  17.211  0.00  0.00    +0.000 C 
ATOM      5  C   UNL     1       4.610   4.386  16.595  0.00  0.00    +0.000 C 
ATOM      6  N   UNL     1       3.774   3.916  17.676  0.00  0.00    +0.000 N 
ATOM      7  C   UNL     1       2.640   3.176  17.701  0.00  0.00    +0.000 A 
ATOM      8  C   UNL     1       2.365   3.055  19.058  0.00  0.00    +0.000 A 
ATOM      9  N   UNL     1       3.323   3.699  19.835  0.00  0.00    +0.000 NA
ATOM     10  C   UNL     1       4.136   4.202  18.949  0.00  0.00    +0.000 A 
ATOM     11  S   UNL     1       5.581   5.113  19.065  0.00  0.00    +0.000 S 
BRANCH   8  12
ATOM     12  N   UNL     1       1.255   2.352  19.663  0.00  0.00    +0.000 N 
ATOM     13  O   UNL     1       1.267   2.255  20.902  0.00  0.00    +0.000 OA
ATOM     14  O   UNL     1       0.376   1.903  18.917  0.00  0.00    +0.000 OA
ENDBRANCH   8  12
ENDBRANCH   2   4
ENDBRANCH   1   2
BRANCH   1  15
ATOM     15  C   UNL     1       3.672   7.365  17.022  0.00  0.00    +0.000 C 
BRANCH  15  16
ATOM     16  C   UNL     1       2.777   8.023  18.033  0.00  0.00    +0.000 A 
ATOM     17  C   UNL     1       2.189   9.260  17.754  0.00  0.00    +0.000 A 
ATOM     18  C   UNL     1       1.360   9.882  18.693  0.00  0.00    +0.000 A 
ATOM     19  C   UNL     1       1.078   9.290  19.937  0.00  0.00    +0.000 A 
ATOM     20  C   UNL     1       1.665   8.039  20.195  0.00  0.00    +0.000 A 
ATOM     21  C   UNL     1       2.507   7.417  19.263  0.00  0.00    +0.000 A 
BRANCH  19  22
ATOM     22  C   UNL     1       0.212   9.967  20.933  0.00  0.00    +0.000 A 
ATOM     23  C   UNL     1       0.085   9.474  22.248  0.00  0.00    +0.000 A 
ATOM     24  C   UNL     1      -0.763  10.083  23.178  0.00  0.00    +0.000 A 
ATOM     25  C   UNL     1      -1.486  11.207  22.809  0.00  0.00    +0.000 A 
ATOM     26  F   UNL     1      -2.302  11.790  23.698  0.00  0.00    +0.000 F 
ATOM     27  C   UNL     1      -1.377  11.733  21.531  0.00  0.00    +0.000 A 
ATOM     28  C   UNL     1      -0.537  11.114  20.599  0.00  0.00    +0.000 A 
ENDBRANCH  19  22
ENDBRANCH  15  16
ENDBRANCH   1  15
TORSDOF 6
ENDMDL
MODEL 3
REMARK VINA RESULT:      -8.1      0.788      1.174
REMARK  Name = 
REMARK  7 active torsions:
REMARK  status: ('A' for Active; 'I' for Inactive)
REMARK    1  A    between atoms: C_1  and  C_2
REMARK    2  A    between atoms: C_2  and  C_3
REMARK    3  A    between atoms: C_3  and  O_4
REMARK    4  A    between atoms: O_4  and  C_5
REMARK    5  A    between atoms: C_5  and  C_6
REMARK    6  A    between atoms: C_9  and  C_10
REMARK    7  A    between atoms: C_22  and  N_23
REMARK                            x       y       z     vdW  Elec       q    Type
REMARK                         _______ _______ _______ _____ _____    ______ ____
ROOT
ATOM      1  O   UNL     1       3.549   6.089  19.714  0.00  0.00    +0.000 OA
ENDROOT
BRANCH   1   2
ATOM      2  C   UNL     1       3.193   4.717  19.868  0.00  0.00    +0.000 C 
BRANCH   2   4
ATOM      3  C   UNL     1       4.389   2.514  19.938  0.00  0.00    +0.000 C 
ATOM      4  C   UNL     1       4.184   3.799  19.129  0.00  0.00    +0.000 C 
ATOM      5  C   UNL     1       5.535   4.511  18.854  0.00  0.00    +0.000 C 
ATOM      6  N   UNL     1       5.761   4.513  17.427  0.00  0.00    +0.000 N 
ATOM      7  C   UNL     1       6.786   4.960  16.662  0.00  0.00    +0.000 A 
ATOM      8  C   UNL     1       6.392   4.631  15.371  0.00  0.00    +0.000 A 
ATOM      9  N   UNL     1       5.159   3.987  15.359  0.00  0.00    +0.000 NA
ATOM     10  C   UNL     1       4.829   3.953  16.621  0.00  0.00    +0.000 A 
ATOM     11  S   UNL     1       3.484   3.314  17.465  0.00  0.00    +0.000 S 
BRANCH   8  12
ATOM     12  N   UNL     1       7.122   4.880  14.147  0.00  0.00    +0.000 N 
ATOM     13  O   UNL     1       6.713   4.297  13.128  0.00  0.00    +0.000 OA
ATOM     14  O   UNL     1       8.090   5.649  14.193  0.00  0.00    +0.000 OA
ENDBRANCH   8  12
ENDBRANCH   2   4
ENDBRANCH   1   2
BRANCH   1  15
ATOM     15  C   UNL     1       2.969   6.652  18.536  0.00  0.00    +0.000 C 
BRANCH  15  16
ATOM     16  C   UNL     1       2.113   7.822  18.929  0.00  0.00    +0.000 A 
ATOM     17  C   UNL     1       1.666   7.958  20.247  0.00  0.00    +0.000 A 
ATOM     18  C   UNL     1       0.863   9.041  20.618  0.00  0.00    +0.000 A 
ATOM     19  C   UNL     1       0.488  10.033  19.695  0.00  0.00    +0.000 A 
ATOM     20  C   UNL     1       0.959   9.889  18.378  0.00  0.00    +0.000 A 
ATOM     21  C   UNL     1       1.753   8.799  17.997  0.00  0.00    +0.000 A 
BRANCH  19  22
ATOM     22  C   UNL     1      -0.379  11.168  20.095  0.00  0.00    +0.000 A 
ATOM     23  C   UNL     1      -0.106  11.925  21.253  0.00  0.00    +0.000 A 
ATOM     24  C   UNL     1      -0.944  12.968  21.659  0.00  0.00    +0.000 A 
ATOM     25  C   UNL     1      -2.061  13.281  20.900  0.00  0.00    +0.000 A 
ATOM     26  F   UNL     1      -2.867  14.278  21.289  0.00  0.00    +0.000 F 
ATOM     27  C   UNL     1      -2.355  12.573  19.746  0.00  0.00    +0.000 A 
ATOM     28  C   UNL     1      -1.523  11.520  19.350  0.00  0.00    +0.000 A 
ENDBRANCH  19  22
ENDBRANCH  15  16
ENDBRANCH   1  15
TORSDOF 6
ENDMDL
MODEL 4
REMARK VINA RESULT:      -8.1      2.397      4.238
REMARK  Name = 
REMARK  7 active torsions:
REMARK  status: ('A' for Active; 'I' for Inactive)
REMARK    1  A    between atoms: C_1  and  C_2
REMARK    2  A    between atoms: C_2  and  C_3
REMARK    3  A    between atoms: C_3  and  O_4
REMARK    4  A    between atoms: O_4  and  C_5
REMARK    5  A    between atoms: C_5  and  C_6
REMARK    6  A    between atoms: C_9  and  C_10
REMARK    7  A    between atoms: C_22  and  N_23
REMARK                            x       y       z     vdW  Elec       q    Type
REMARK                         _______ _______ _______ _____ _____    ______ ____
ROOT
ATOM      1  O   UNL     1       5.022   7.430  17.470  0.00  0.00    +0.000 OA
ENDROOT
BRANCH   1   2
ATOM      2  C   UNL     1       5.891   6.592  16.711  0.00  0.00    +0.000 C 
BRANCH   2   4
ATOM      3  C   UNL     1       7.204   4.464  16.906  0.00  0.00    +0.000 C 
ATOM      4  C   UNL     1       5.874   5.147  17.243  0.00  0.00    +0.000 C 
ATOM      5  C   UNL     1       4.671   4.340  16.687  0.00  0.00    +0.000 C 
ATOM      6  N   UNL     1       3.882   3.878  17.806  0.00  0.00    +0.000 N 
ATOM      7  C   UNL     1       2.769   3.111  17.886  0.00  0.00    +0.000 A 
ATOM      8  C   UNL     1       2.540   3.019  19.254  0.00  0.00    +0.000 A 
ATOM      9  N   UNL     1       3.504   3.707  19.983  0.00  0.00    +0.000 NA
ATOM     10  C   UNL     1       4.276   4.207  19.058  0.00  0.00    +0.000 A 
ATOM     11  S   UNL     1       5.700   5.157  19.104  0.00  0.00    +0.000 S 
BRANCH   8  12
ATOM     12  N   UNL     1       1.468   2.304  19.912  0.00  0.00    +0.000 N 
ATOM     13  O   UNL     1       0.937   1.383  19.269  0.00  0.00    +0.000 OA
ATOM     14  O   UNL     1       1.157   2.650  21.059  0.00  0.00    +0.000 OA
ENDBRANCH   8  12
ENDBRANCH   2   4
ENDBRANCH   1   2
BRANCH   1  15
ATOM     15  C   UNL     1       3.669   7.319  17.028  0.00  0.00    +0.000 C 
BRANCH  15  16
ATOM     16  C   UNL     1       2.771   7.961  18.048  0.00  0.00    +0.000 A 
ATOM     17  C   UNL     1       2.156   9.186  17.773  0.00  0.00    +0.000 A 
ATOM     18  C   UNL     1       1.325   9.793  18.720  0.00  0.00    +0.000 A 
ATOM     19  C   UNL     1       1.067   9.196  19.967  0.00  0.00    +0.000 A 
ATOM     20  C   UNL     1       1.682   7.957  20.220  0.00  0.00    +0.000 A 
ATOM     21  C   UNL     1       2.525   7.351  19.281  0.00  0.00    +0.000 A 
BRANCH  19  22
ATOM     22  C   UNL     1       0.198   9.857  20.971  0.00  0.00    +0.000 A 
ATOM     23  C   UNL     1      -0.498  11.045  20.668  0.00  0.00    +0.000 A 
ATOM     24  C   UNL     1      -1.284  11.696  21.625  0.00  0.00    +0.000 A 
ATOM     25  C   UNL     1      -1.398  11.156  22.897  0.00  0.00    +0.000 A 
ATOM     26  F   UNL     1      -2.148  11.780  23.815  0.00  0.00    +0.000 F 
ATOM     27  C   UNL     1      -0.743   9.981  23.230  0.00  0.00    +0.000 A 
ATOM     28  C   UNL     1       0.054   9.340  22.275  0.00  0.00    +0.000 A 
ENDBRANCH  19  22
ENDBRANCH  15  16
ENDBRANCH   1  15
TORSDOF 6
ENDMDL
MODEL 5
REMARK VINA RESULT:      -8.1      2.428      4.281
REMARK  Name = 
REMARK  7 active torsions:
REMARK  status: ('A' for Active; 'I' for Inactive)
REMARK    1  A    between atoms: C_1  and  C_2
REMARK    2  A    between atoms: C_2  and  C_3
REMARK    3  A    between atoms: C_3  and  O_4
REMARK    4  A    between atoms: O_4  and  C_5
REMARK    5  A    between atoms: C_5  and  C_6
REMARK    6  A    between atoms: C_9  and  C_10
REMARK    7  A    between atoms: C_22  and  N_23
REMARK                            x       y       z     vdW  Elec       q    Type
REMARK                         _______ _______ _______ _____ _____    ______ ____
ROOT
ATOM      1  O   UNL     1       4.969   7.383  17.353  0.00  0.00    +0.000 OA
ENDROOT
BRANCH   1   2
ATOM      2  C   UNL     1       5.799   6.487  16.617  0.00  0.00    +0.000 C 
BRANCH   2   4
ATOM      3  C   UNL     1       7.179   4.416  16.923  0.00  0.00    +0.000 C 
ATOM      4  C   UNL     1       5.861   5.105  17.293  0.00  0.00    +0.000 C 
ATOM      5  C   UNL     1       4.641   4.223  16.917  0.00  0.00    +0.000 C 
ATOM      6  N   UNL     1       3.952   3.864  18.136  0.00  0.00    +0.000 N 
ATOM      7  C   UNL     1       2.869   3.089  18.381  0.00  0.00    +0.000 A 
ATOM      8  C   UNL     1       2.747   3.134  19.764  0.00  0.00    +0.000 A 
ATOM      9  N   UNL     1       3.745   3.911  20.342  0.00  0.00    +0.000 NA
ATOM     10  C   UNL     1       4.431   4.327  19.314  0.00  0.00    +0.000 A 
ATOM     11  S   UNL     1       5.829   5.303  19.151  0.00  0.00    +0.000 S 
BRANCH   8  12
ATOM     12  N   UNL     1       1.747   2.471  20.573  0.00  0.00    +0.000 N 
ATOM     13  O   UNL     1       2.027   2.299  21.772  0.00  0.00    +0.000 OA
ATOM     14  O   UNL     1       0.691   2.129  20.028  0.00  0.00    +0.000 OA
ENDBRANCH   8  12
ENDBRANCH   2   4
ENDBRANCH   1   2
BRANCH   1  15
ATOM     15  C   UNL     1       3.608   7.307  16.927  0.00  0.00    +0.000 C 
BRANCH  15  16
ATOM     16  C   UNL     1       2.740   7.984  17.949  0.00  0.00    +0.000 A 
ATOM     17  C   UNL     1       2.513   7.382  19.190  0.00  0.00    +0.000 A 
ATOM     18  C   UNL     1       1.701   8.002  20.144  0.00  0.00    +0.000 A 
ATOM     19  C   UNL     1       1.097   9.249  19.902  0.00  0.00    +0.000 A 
ATOM     20  C   UNL     1       1.349   9.848  18.654  0.00  0.00    +0.000 A 
ATOM     21  C   UNL     1       2.151   9.224  17.690  0.00  0.00    +0.000 A 
BRANCH  19  22
ATOM     22  C   UNL     1       0.223   9.890  20.914  0.00  0.00    +0.000 A 
ATOM     23  C   UNL     1      -0.510  11.058  20.615  0.00  0.00    +0.000 A 
ATOM     24  C   UNL     1      -1.301  11.691  21.578  0.00  0.00    +0.000 A 
ATOM     25  C   UNL     1      -1.386  11.153  22.853  0.00  0.00    +0.000 A 
ATOM     26  F   UNL     1      -2.141  11.760  23.778  0.00  0.00    +0.000 F 
ATOM     27  C   UNL     1      -0.695   9.998  23.183  0.00  0.00    +0.000 A 
ATOM     28  C   UNL     1       0.107   9.374  22.221  0.00  0.00    +0.000 A 
ENDBRANCH  19  22
ENDBRANCH  15  16
ENDBRANCH   1  15
TORSDOF 6
ENDMDL
MODEL 6
REMARK VINA RESULT:      -8.0      1.731      2.466
REMARK  Name = 
REMARK  7 active torsions:
REMARK  status: ('A' for Active; 'I' for Inactive)
REMARK    1  A    between atoms: C_1  and  C_2
REMARK    2  A    between atoms: C_2  and  C_3
REMARK    3  A    between atoms: C_3  and  O_4
REMARK    4  A    between atoms: O_4  and  C_5
REMARK    5  A    between atoms: C_5  and  C_6
REMARK    6  A    between atoms: C_9  and  C_10
REMARK    7  A    between atoms: C_22  and  N_23
REMARK                            x       y       z     vdW  Elec       q    Type
REMARK                         _______ _______ _______ _____ _____    ______ ____
ROOT
ATOM      1  O   UNL     1       1.923   5.784  20.747  0.00  0.00    +0.000 OA
ENDROOT
BRANCH   1   2
ATOM      2  C   UNL     1       1.174   4.744  20.122  0.00  0.00    +0.000 C 
BRANCH   2   4
ATOM      3  C   UNL     1       1.536   2.331  19.545  0.00  0.00    +0.000 C 
ATOM      4  C   UNL     1       2.100   3.748  19.401  0.00  0.00    +0.000 C 
ATOM      5  C   UNL     1       3.558   3.828  19.928  0.00  0.00    +0.000 C 
ATOM      6  N   UNL     1       4.421   4.155  18.817  0.00  0.00    +0.000 N 
ATOM      7  C   UNL     1       5.764   4.304  18.713  0.00  0.00    +0.000 A 
ATOM      8  C   UNL     1       5.953   4.587  17.366  0.00  0.00    +0.000 A 
ATOM      9  N   UNL     1       4.749   4.596  16.670  0.00  0.00    +0.000 NA
ATOM     10  C   UNL     1       3.868   4.338  17.595  0.00  0.00    +0.000 A 
ATOM     11  S   UNL     1       2.167   4.147  17.576  0.00  0.00    +0.000 S 
BRANCH   8  12
ATOM     12  N   UNL     1       7.211   4.836  16.697  0.00  0.00    +0.000 N 
ATOM     13  O   UNL     1       8.194   4.193  17.103  0.00  0.00    +0.000 OA
ATOM     14  O   UNL     1       7.225   5.659  15.773  0.00  0.00    +0.000 OA
ENDBRANCH   8  12
ENDBRANCH   2   4
ENDBRANCH   1   2
BRANCH   1  15
ATOM     15  C   UNL     1       2.109   6.895  19.870  0.00  0.00    +0.000 C 
BRANCH  15  16
ATOM     16  C   UNL     1       1.415   8.094  20.453  0.00  0.00    +0.000 A 
ATOM     17  C   UNL     1       1.292   9.268  19.705  0.00  0.00    +0.000 A 
ATOM     18  C   UNL     1       0.653  10.391  20.243  0.00  0.00    +0.000 A 
ATOM     19  C   UNL     1       0.105  10.378  21.538  0.00  0.00    +0.000 A 
ATOM     20  C   UNL     1       0.225   9.184  22.270  0.00  0.00    +0.000 A 
ATOM     21  C   UNL     1       0.875   8.061  21.741  0.00  0.00    +0.000 A 
BRANCH  19  22
ATOM     22  C   UNL     1      -0.554  11.580  22.106  0.00  0.00    +0.000 A 
ATOM     23  C   UNL     1      -1.638  11.466  23.000  0.00  0.00    +0.000 A 
ATOM     24  C   UNL     1      -2.291  12.595  23.504  0.00  0.00    +0.000 A 
ATOM     25  C   UNL     1      -1.856  13.858  23.134  0.00  0.00    +0.000 A 
ATOM     26  F   UNL     1      -2.482  14.941  23.613  0.00  0.00    +0.000 F 
ATOM     27  C   UNL     1      -0.782  14.013  22.271  0.00  0.00    +0.000 A 
ATOM     28  C   UNL     1      -0.140  12.881  21.757  0.00  0.00    +0.000 A 
ENDBRANCH  19  22
ENDBRANCH  15  16
ENDBRANCH   1  15
TORSDOF 6
ENDMDL
MODEL 7
REMARK VINA RESULT:      -8.0      2.284      2.920
REMARK  Name = 
REMARK  7 active torsions:
REMARK  status: ('A' for Active; 'I' for Inactive)
REMARK    1  A    between atoms: C_1  and  C_2
REMARK    2  A    between atoms: C_2  and  C_3
REMARK    3  A    between atoms: C_3  and  O_4
REMARK    4  A    between atoms: O_4  and  C_5
REMARK    5  A    between atoms: C_5  and  C_6
REMARK    6  A    between atoms: C_9  and  C_10
REMARK    7  A    between atoms: C_22  and  N_23
REMARK                            x       y       z     vdW  Elec       q    Type
REMARK                         _______ _______ _______ _____ _____    ______ ____
ROOT
ATOM      1  O   UNL     1       1.471   4.566  19.808  0.00  0.00    +0.000 OA
ENDROOT
BRANCH   1   2
ATOM      2  C   UNL     1       1.991   3.244  19.931  0.00  0.00    +0.000 C 
BRANCH   2   4
ATOM      3  C   UNL     1       3.053   1.548  18.420  0.00  0.00    +0.000 C 
ATOM      4  C   UNL     1       3.123   2.995  18.916  0.00  0.00    +0.000 C 
ATOM      5  C   UNL     1       4.518   3.317  19.516  0.00  0.00    +0.000 C 
ATOM      6  N   UNL     1       5.136   4.335  18.698  0.00  0.00    +0.000 N 
ATOM      7  C   UNL     1       6.347   4.939  18.747  0.00  0.00    +0.000 A 
ATOM      8  C   UNL     1       6.322   5.800  17.657  0.00  0.00    +0.000 A 
ATOM      9  N   UNL     1       5.124   5.707  16.957  0.00  0.00    +0.000 NA
ATOM     10  C   UNL     1       4.451   4.818  17.634  0.00  0.00    +0.000 A 
ATOM     11  S   UNL     1       2.905   4.113  17.434  0.00  0.00    +0.000 S 
BRANCH   8  12
ATOM     12  N   UNL     1       7.374   6.696  17.230  0.00  0.00    +0.000 N 
ATOM     13  O   UNL     1       7.810   6.534  16.077  0.00  0.00    +0.000 OA
ATOM     14  O   UNL     1       7.764   7.558  18.029  0.00  0.00    +0.000 OA
ENDBRANCH   8  12
ENDBRANCH   2   4
ENDBRANCH   1   2
BRANCH   1  15
ATOM     15  C   UNL     1       2.039   5.445  20.780  0.00  0.00    +0.000 C 
BRANCH  15  16
ATOM     16  C   UNL     1       1.730   6.863  20.389  0.00  0.00    +0.000 A 
ATOM     17  C   UNL     1       1.041   7.702  21.269  0.00  0.00    +0.000 A 
ATOM     18  C   UNL     1       0.744   9.020  20.910  0.00  0.00    +0.000 A 
ATOM     19  C   UNL     1       1.135   9.553  19.668  0.00  0.00    +0.000 A 
ATOM     20  C   UNL     1       1.841   8.700  18.802  0.00  0.00    +0.000 A 
ATOM     21  C   UNL     1       2.129   7.375  19.151  0.00  0.00    +0.000 A 
BRANCH  19  22
ATOM     22  C   UNL     1       0.800  10.948  19.290  0.00  0.00    +0.000 A 
ATOM     23  C   UNL     1       1.735  11.773  18.632  0.00  0.00    +0.000 A 
ATOM     24  C   UNL     1       1.439  13.102  18.313  0.00  0.00    +0.000 A 
ATOM     25  C   UNL     1       0.194  13.620  18.632  0.00  0.00    +0.000 A 
ATOM     26  F   UNL     1      -0.090  14.894  18.329  0.00  0.00    +0.000 F 
ATOM     27  C   UNL     1      -0.760  12.837  19.262  0.00  0.00    +0.000 A 
ATOM     28  C   UNL     1      -0.456  11.512  19.594  0.00  0.00    +0.000 A 
ENDBRANCH  19  22
ENDBRANCH  15  16
ENDBRANCH   1  15
TORSDOF 6
ENDMDL
MODEL 8
REMARK VINA RESULT:      -8.0      6.544      9.815
REMARK  Name = 
REMARK  7 active torsions:
REMARK  status: ('A' for Active; 'I' for Inactive)
REMARK    1  A    between atoms: C_1  and  C_2
REMARK    2  A    between atoms: C_2  and  C_3
REMARK    3  A    between atoms: C_3  and  O_4
REMARK    4  A    between atoms: O_4  and  C_5
REMARK    5  A    between atoms: C_5  and  C_6
REMARK    6  A    between atoms: C_9  and  C_10
REMARK    7  A    between atoms: C_22  and  N_23
REMARK                            x       y       z     vdW  Elec       q    Type
REMARK                         _______ _______ _______ _____ _____    ______ ____
ROOT
ATOM      1  O   UNL     1       1.028  10.620  21.094  0.00  0.00    +0.000 OA
ENDROOT
BRANCH   1   2
ATOM      2  C   UNL     1      -0.024  11.583  21.046  0.00  0.00    +0.000 C 
BRANCH   2   4
ATOM      3  C   UNL     1      -1.053  11.582  18.759  0.00  0.00    +0.000 C 
ATOM      4  C   UNL     1      -0.060  12.297  19.682  0.00  0.00    +0.000 C 
ATOM      5  C   UNL     1       1.348  12.381  19.035  0.00  0.00    +0.000 C 
ATOM      6  N   UNL     1       1.663  13.774  18.821  0.00  0.00    +0.000 N 
ATOM      7  C   UNL     1       2.728  14.396  18.260  0.00  0.00    +0.000 A 
ATOM      8  C   UNL     1       2.392  15.743  18.339  0.00  0.00    +0.000 A 
ATOM      9  N   UNL     1       1.144  15.927  18.926  0.00  0.00    +0.000 NA
ATOM     10  C   UNL     1       0.761  14.710  19.199  0.00  0.00    +0.000 A 
ATOM     11  S   UNL     1      -0.656  14.056  19.900  0.00  0.00    +0.000 S 
BRANCH   8  12
ATOM     12  N   UNL     1       3.180  16.866  17.879  0.00  0.00    +0.000 N 
ATOM     13  O   UNL     1       4.204  17.131  18.532  0.00  0.00    +0.000 OA
ATOM     14  O   UNL     1       2.790  17.477  16.877  0.00  0.00    +0.000 OA
ENDBRANCH   8  12
ENDBRANCH   2   4
ENDBRANCH   1   2
BRANCH   1  15
ATOM     15  C   UNL     1       0.517   9.287  21.101  0.00  0.00    +0.000 C 
BRANCH  15  16
ATOM     16  C   UNL     1       1.345   8.446  20.171  0.00  0.00    +0.000 A 
ATOM     17  C   UNL     1       1.816   7.196  20.582  0.00  0.00    +0.000 A 
ATOM     18  C   UNL     1       2.593   6.411  19.724  0.00  0.00    +0.000 A 
ATOM     19  C   UNL     1       2.917   6.837  18.424  0.00  0.00    +0.000 A 
ATOM     20  C   UNL     1       2.422   8.090  18.021  0.00  0.00    +0.000 A 
ATOM     21  C   UNL     1       1.654   8.886  18.881  0.00  0.00    +0.000 A 
BRANCH  19  22
ATOM     22  C   UNL     1       3.756   6.004  17.528  0.00  0.00    +0.000 A 
ATOM     23  C   UNL     1       3.693   4.596  17.566  0.00  0.00    +0.000 A 
ATOM     24  C   UNL     1       4.514   3.806  16.755  0.00  0.00    +0.000 A 
ATOM     25  C   UNL     1       5.399   4.415  15.880  0.00  0.00    +0.000 A 
ATOM     26  F   UNL     1       6.188   3.660  15.104  0.00  0.00    +0.000 F 
ATOM     27  C   UNL     1       5.480   5.797  15.800  0.00  0.00    +0.000 A 
ATOM     28  C   UNL     1       4.667   6.584  16.622  0.00  0.00    +0.000 A 
ENDBRANCH  19  22
ENDBRANCH  15  16
ENDBRANCH   1  15
TORSDOF 6
ENDMDL
MODEL 9
REMARK VINA RESULT:      -8.0      5.163      8.106
REMARK  Name = 
REMARK  7 active torsions:
REMARK  status: ('A' for Active; 'I' for Inactive)
REMARK    1  A    between atoms: C_1  and  C_2
REMARK    2  A    between atoms: C_2  and  C_3
REMARK    3  A    between atoms: C_3  and  O_4
REMARK    4  A    between atoms: O_4  and  C_5
REMARK    5  A    between atoms: C_5  and  C_6
REMARK    6  A    between atoms: C_9  and  C_10
REMARK    7  A    between atoms: C_22  and  N_23
REMARK                            x       y       z     vdW  Elec       q    Type
REMARK                         _______ _______ _______ _____ _____    ______ ____
ROOT
ATOM      1  O   UNL     1       5.700   4.254  18.889  0.00  0.00    +0.000 OA
ENDROOT
BRANCH   1   2
ATOM      2  C   UNL     1       4.735   3.254  18.571  0.00  0.00    +0.000 C 
BRANCH   2   4
ATOM      3  C   UNL     1       2.503   3.011  17.455  0.00  0.00    +0.000 C 
ATOM      4  C   UNL     1       3.330   3.866  18.420  0.00  0.00    +0.000 C 
ATOM      5  C   UNL     1       3.391   5.344  17.951  0.00  0.00    +0.000 C 
ATOM      6  N   UNL     1       2.731   6.160  18.944  0.00  0.00    +0.000 N 
ATOM      7  C   UNL     1       2.469   7.487  19.012  0.00  0.00    +0.000 A 
ATOM      8  C   UNL     1       1.781   7.618  20.212  0.00  0.00    +0.000 A 
ATOM      9  N   UNL     1       1.622   6.392  20.849  0.00  0.00    +0.000 NA
ATOM     10  C   UNL     1       2.219   5.558  20.043  0.00  0.00    +0.000 A 
ATOM     11  S   UNL     1       2.453   3.863  20.071  0.00  0.00    +0.000 S 
BRANCH   8  12
ATOM     12  N   UNL     1       1.254   8.837  20.785  0.00  0.00    +0.000 N 
ATOM     13  O   UNL     1       1.416   8.992  22.008  0.00  0.00    +0.000 OA
ATOM     14  O   UNL     1       0.687   9.637  20.030  0.00  0.00    +0.000 OA
ENDBRANCH   8  12
ENDBRANCH   2   4
ENDBRANCH   1   2
BRANCH   1  15
ATOM     15  C   UNL     1       6.531   4.556  17.768  0.00  0.00    +0.000 C 
BRANCH  15  16
ATOM     16  C   UNL     1       7.101   5.935  17.943  0.00  0.00    +0.000 A 
ATOM     17  C   UNL     1       8.007   6.198  18.974  0.00  0.00    +0.000 A 
ATOM     18  C   UNL     1       8.535   7.481  19.147  0.00  0.00    +0.000 A 
ATOM     19  C   UNL     1       8.190   8.544  18.293  0.00  0.00    +0.000 A 
ATOM     20  C   UNL     1       7.289   8.258  17.252  0.00  0.00    +0.000 A 
ATOM     21  C   UNL     1       6.746   6.978  17.082  0.00  0.00    +0.000 A 
BRANCH  19  22
ATOM     22  C   UNL     1       8.742   9.905  18.496  0.00  0.00    +0.000 A 
ATOM     23  C   UNL     1       9.568  10.203  19.600  0.00  0.00    +0.000 A 
ATOM     24  C   UNL     1      10.056  11.495  19.820  0.00  0.00    +0.000 A 
ATOM     25  C   UNL     1       9.737  12.507  18.927  0.00  0.00    +0.000 A 
ATOM     26  F   UNL     1      10.201  13.745  19.139  0.00  0.00    +0.000 F 
ATOM     27  C   UNL     1       8.943  12.252  17.821  0.00  0.00    +0.000 A 
ATOM     28  C   UNL     1       8.445  10.961  17.610  0.00  0.00    +0.000 A 
ENDBRANCH  19  22
ENDBRANCH  15  16
ENDBRANCH   1  15
TORSDOF 6
ENDMDL
