MODEL 1
REMARK VINA RESULT:      -8.1      0.000      0.000
REMARK  Name = 
REMARK  5 active torsions:
REMARK  status: ('A' for Active; 'I' for Inactive)
REMARK    1  A    between atoms: C_1  and  C_23
REMARK    2  A    between atoms: N_2  and  N_3
REMARK    3  A    between atoms: C_7  and  C_8
REMARK    4  A    between atoms: N_12  and  N_13
REMARK    5  A    between atoms: C_14  and  C_15
REMARK                            x       y       z     vdW  Elec       q    Type
REMARK                         _______ _______ _______ _____ _____    ______ ____
ROOT
ATOM      1  N   UNL     1       6.104   6.419  16.030  0.00  0.00    +0.000 N 
ATOM      2  C   UNL     1       6.950   6.865  16.990  0.00  0.00    +0.000 A 
ATOM      3  N   UNL     1       7.521   6.247  18.003  0.00  0.00    +0.000 NA
ATOM      4  N   UNL     1       8.284   7.187  18.667  0.00  0.00    +0.000 NA
ATOM      5  C   UNL     1       8.096   8.336  18.044  0.00  0.00    +0.000 A 
ATOM      6  O   UNL     1       7.274   8.194  16.945  0.00  0.00    +0.000 OA
ATOM      7  H   UNL     1       5.809   7.120  15.355  0.00  0.00    +0.000 HD
ENDROOT
BRANCH   5   8
ATOM      8  C   UNL     1       8.671   9.579  18.465  0.00  0.00    +0.000 A 
ATOM      9  N   UNL     1       8.608  10.693  17.760  0.00  0.00    +0.000 NA
ATOM     10  N   UNL     1       9.227  11.673  18.511  0.00  0.00    +0.000 NA
ATOM     11  C   UNL     1       9.677  11.090  19.601  0.00  0.00    +0.000 A 
ATOM     12  N   UNL     1      10.382  11.576  20.650  0.00  0.00    +0.000 N 
ATOM     13  O   UNL     1       9.355   9.760  19.649  0.00  0.00    +0.000 OA
ATOM     14  H   UNL     1      10.677  10.900  21.348  0.00  0.00    +0.000 HD
BRANCH  12  15
ATOM     15  N   UNL     1      10.391  12.905  20.956  0.00  0.00    +0.000 NA
ATOM     16  C   UNL     1       9.334  13.373  21.537  0.00  0.00    +0.000 C 
BRANCH  16  17
ATOM     17  C   UNL     1       9.202  14.815  21.835  0.00  0.00    +0.000 A 
ATOM     18  C   UNL     1       8.393  15.638  21.049  0.00  0.00    +0.000 A 
ATOM     19  C   UNL     1       8.256  16.991  21.361  0.00  0.00    +0.000 A 
ATOM     20  C   UNL     1       8.930  17.525  22.461  0.00  0.00    +0.000 A 
ATOM     21  C   UNL     1       9.743  16.708  23.247  0.00  0.00    +0.000 A 
ATOM     22  C   UNL     1       9.881  15.351  22.941  0.00  0.00    +0.000 A 
ENDBRANCH  16  17
ENDBRANCH  12  15
ENDBRANCH   5   8
BRANCH   1  24
ATOM     23  C   UNL     1       4.335   5.582  17.165  0.00  0.00    +0.000 C 
ATOM     24  N   UNL     1       5.256   5.377  16.277  0.00  0.00    +0.000 NA
BRANCH  23  25
ATOM     25  C   UNL     1       3.424   4.494  17.586  0.00  0.00    +0.000 A 
ATOM     26  C   UNL     1       2.121   4.786  18.006  0.00  0.00    +0.000 A 
ATOM     27  C   UNL     1       1.262   3.753  18.381  0.00  0.00    +0.000 A 
ATOM     28  C   UNL     1       1.701   2.430  18.336  0.00  0.00    +0.000 A 
ATOM     29  C   UNL     1       2.998   2.138  17.913  0.00  0.00    +0.000 A 
ATOM     30  C   UNL     1       3.864   3.168  17.535  0.00  0.00    +0.000 A 
ENDBRANCH  23  25
ENDBRANCH   1  24
TORSDOF 5
ENDMDL
MODEL 2
REMARK VINA RESULT:      -8.0      0.623     11.147
REMARK  Name = 
REMARK  5 active torsions:
REMARK  status: ('A' for Active; 'I' for Inactive)
REMARK    1  A    between atoms: C_1  and  C_23
REMARK    2  A    between atoms: N_2  and  N_3
REMARK    3  A    between atoms: C_7  and  C_8
REMARK    4  A    between atoms: N_12  and  N_13
REMARK    5  A    between atoms: C_14  and  C_15
REMARK                            x       y       z     vdW  Elec       q    Type
REMARK                         _______ _______ _______ _____ _____    ______ ____
ROOT
ATOM      1  N   UNL     1      10.639  11.813  20.665  0.00  0.00    +0.000 N 
ATOM      2  C   UNL     1       9.900  11.345  19.630  0.00  0.00    +0.000 A 
ATOM      3  N   UNL     1       9.417  11.946  18.563  0.00  0.00    +0.000 NA
ATOM      4  N   UNL     1       8.732  10.989  17.840  0.00  0.00    +0.000 NA
ATOM      5  C   UNL     1       8.799   9.868  18.537  0.00  0.00    +0.000 A 
ATOM      6  O   UNL     1       9.556  10.021  19.680  0.00  0.00    +0.000 OA
ATOM      7  H   UNL     1      10.881  11.123  21.370  0.00  0.00    +0.000 HD
ENDROOT
BRANCH   5   8
ATOM      8  C   UNL     1       8.157   8.647  18.152  0.00  0.00    +0.000 A 
ATOM      9  N   UNL     1       8.396   7.480  18.722  0.00  0.00    +0.000 NA
ATOM     10  N   UNL     1       7.559   6.564  18.118  0.00  0.00    +0.000 NA
ATOM     11  C   UNL     1       6.898   7.211  17.182  0.00  0.00    +0.000 A 
ATOM     12  N   UNL     1       5.982   6.789  16.279  0.00  0.00    +0.000 N 
ATOM     13  O   UNL     1       7.217   8.542  17.148  0.00  0.00    +0.000 OA
ATOM     14  H   UNL     1       5.664   7.478  15.602  0.00  0.00    +0.000 HD
BRANCH  12  15
ATOM     15  N   UNL     1       5.259   5.648  16.466  0.00  0.00    +0.000 NA
ATOM     16  C   UNL     1       4.268   5.720  17.296  0.00  0.00    +0.000 C 
BRANCH  16  17
ATOM     17  C   UNL     1       3.472   4.523  17.639  0.00  0.00    +0.000 A 
ATOM     18  C   UNL     1       2.095   4.615  17.849  0.00  0.00    +0.000 A 
ATOM     19  C   UNL     1       1.353   3.471  18.143  0.00  0.00    +0.000 A 
ATOM     20  C   UNL     1       1.987   2.231  18.229  0.00  0.00    +0.000 A 
ATOM     21  C   UNL     1       3.364   2.134  18.024  0.00  0.00    +0.000 A 
ATOM     22  C   UNL     1       4.111   3.276  17.726  0.00  0.00    +0.000 A 
ENDBRANCH  16  17
ENDBRANCH  12  15
ENDBRANCH   5   8
BRANCH   1  24
ATOM     23  C   UNL     1       9.568  13.398  21.873  0.00  0.00    +0.000 C 
ATOM     24  N   UNL     1      10.536  13.117  21.061  0.00  0.00    +0.000 NA
BRANCH  23  25
ATOM     25  C   UNL     1       9.299  14.793  22.289  0.00  0.00    +0.000 A 
ATOM     26  C   UNL     1      10.318  15.751  22.252  0.00  0.00    +0.000 A 
ATOM     27  C   UNL     1      10.050  17.068  22.625  0.00  0.00    +0.000 A 
ATOM     28  C   UNL     1       8.767  17.430  23.034  0.00  0.00    +0.000 A 
ATOM     29  C   UNL     1       7.749  16.477  23.067  0.00  0.00    +0.000 A 
ATOM     30  C   UNL     1       8.010  15.155  22.693  0.00  0.00    +0.000 A 
ENDBRANCH  23  25
ENDBRANCH   1  24
TORSDOF 5
ENDMDL
MODEL 3
REMARK VINA RESULT:      -8.0      1.166      1.406
REMARK  Name = 
REMARK  5 active torsions:
REMARK  status: ('A' for Active; 'I' for Inactive)
REMARK    1  A    between atoms: C_1  and  C_23
REMARK    2  A    between atoms: N_2  and  N_3
REMARK    3  A    between atoms: C_7  and  C_8
REMARK    4  A    between atoms: N_12  and  N_13
REMARK    5  A    between atoms: C_14  and  C_15
REMARK                            x       y       z     vdW  Elec       q    Type
REMARK                         _______ _______ _______ _____ _____    ______ ____
ROOT
ATOM      1  N   UNL     1       5.244   6.500  16.724  0.00  0.00    +0.000 N 
ATOM      2  C   UNL     1       6.364   6.893  17.377  0.00  0.00    +0.000 A 
ATOM      3  N   UNL     1       7.192   6.234  18.160  0.00  0.00    +0.000 NA
ATOM      4  N   UNL     1       8.164   7.129  18.560  0.00  0.00    +0.000 NA
ATOM      5  C   UNL     1       7.843   8.297  18.032  0.00  0.00    +0.000 A 
ATOM      6  O   UNL     1       6.716   8.208  17.241  0.00  0.00    +0.000 OA
ATOM      7  H   UNL     1       4.786   7.224  16.178  0.00  0.00    +0.000 HD
ENDROOT
BRANCH   5   8
ATOM      8  C   UNL     1       8.574   9.507  18.260  0.00  0.00    +0.000 A 
ATOM      9  N   UNL     1       8.438  10.597  17.528  0.00  0.00    +0.000 NA
ATOM     10  N   UNL     1       9.264  11.554  18.083  0.00  0.00    +0.000 NA
ATOM     11  C   UNL     1       9.894  10.979  19.085  0.00  0.00    +0.000 A 
ATOM     12  N   UNL     1      10.834  11.448  19.939  0.00  0.00    +0.000 N 
ATOM     13  O   UNL     1       9.503   9.680  19.266  0.00  0.00    +0.000 OA
ATOM     14  H   UNL     1      11.225  10.778  20.594  0.00  0.00    +0.000 HD
BRANCH  12  15
ATOM     15  N   UNL     1      10.995  12.783  20.168  0.00  0.00    +0.000 NA
ATOM     16  C   UNL     1      10.294  13.295  21.128  0.00  0.00    +0.000 C 
BRANCH  16  17
ATOM     17  C   UNL     1      10.326  14.746  21.406  0.00  0.00    +0.000 A 
ATOM     18  C   UNL     1       9.728  15.268  22.555  0.00  0.00    +0.000 A 
ATOM     19  C   UNL     1       9.792  16.637  22.818  0.00  0.00    +0.000 A 
ATOM     20  C   UNL     1      10.455  17.487  21.933  0.00  0.00    +0.000 A 
ATOM     21  C   UNL     1      11.051  16.972  20.781  0.00  0.00    +0.000 A 
ATOM     22  C   UNL     1      10.992  15.601  20.514  0.00  0.00    +0.000 A 
ENDBRANCH  16  17
ENDBRANCH  12  15
ENDBRANCH   5   8
BRANCH   1  24
ATOM     23  C   UNL     1       3.371   5.839  17.807  0.00  0.00    +0.000 C 
ATOM     24  N   UNL     1       4.469   5.488  17.216  0.00  0.00    +0.000 NA
BRANCH  23  25
ATOM     25  C   UNL     1       2.503   4.837  18.466  0.00  0.00    +0.000 A 
ATOM     26  C   UNL     1       2.020   5.061  19.760  0.00  0.00    +0.000 A 
ATOM     27  C   UNL     1       1.185   4.122  20.365  0.00  0.00    +0.000 A 
ATOM     28  C   UNL     1       0.830   2.960  19.679  0.00  0.00    +0.000 A 
ATOM     29  C   UNL     1       1.307   2.738  18.387  0.00  0.00    +0.000 A 
ATOM     30  C   UNL     1       2.144   3.676  17.775  0.00  0.00    +0.000 A 
ENDBRANCH  23  25
ENDBRANCH   1  24
TORSDOF 5
ENDMDL
MODEL 4
REMARK VINA RESULT:      -8.0      1.523     11.635
REMARK  Name = 
REMARK  5 active torsions:
REMARK  status: ('A' for Active; 'I' for Inactive)
REMARK    1  A    between atoms: C_1  and  C_23
REMARK    2  A    between atoms: N_2  and  N_3
REMARK    3  A    between atoms: C_7  and  C_8
REMARK    4  A    between atoms: N_12  and  N_13
REMARK    5  A    between atoms: C_14  and  C_15
REMARK                            x       y       z     vdW  Elec       q    Type
REMARK                         _______ _______ _______ _____ _____    ______ ____
ROOT
ATOM      1  N   UNL     1      10.838  11.730  19.819  0.00  0.00    +0.000 N 
ATOM      2  C   UNL     1       9.847  11.222  19.048  0.00  0.00    +0.000 A 
ATOM      3  N   UNL     1       8.963  11.808  18.268  0.00  0.00    +0.000 NA
ATOM      4  N   UNL     1       8.183  10.807  17.723  0.00  0.00    +0.000 NA
ATOM      5  C   UNL     1       8.610   9.670  18.241  0.00  0.00    +0.000 A 
ATOM      6  O   UNL     1       9.692   9.862  19.076  0.00  0.00    +0.000 OA
ATOM      7  H   UNL     1      11.384  11.041  20.330  0.00  0.00    +0.000 HD
ENDROOT
BRANCH   5   8
ATOM      8  C   UNL     1       8.017   8.394  17.972  0.00  0.00    +0.000 A 
ATOM      9  N   UNL     1       8.246   7.311  18.691  0.00  0.00    +0.000 NA
ATOM     10  N   UNL     1       7.464   6.307  18.156  0.00  0.00    +0.000 NA
ATOM     11  C   UNL     1       6.845   6.819  17.113  0.00  0.00    +0.000 A 
ATOM     12  N   UNL     1       5.993   6.268  16.218  0.00  0.00    +0.000 N 
ATOM     13  O   UNL     1       7.140   8.145  16.937  0.00  0.00    +0.000 OA
ATOM     14  H   UNL     1       5.701   6.862  15.447  0.00  0.00    +0.000 HD
BRANCH  12  15
ATOM     15  N   UNL     1       5.284   5.138  16.502  0.00  0.00    +0.000 NA
ATOM     16  C   UNL     1       4.199   5.293  17.190  0.00  0.00    +0.000 C 
BRANCH  16  17
ATOM     17  C   UNL     1       3.399   4.129  17.627  0.00  0.00    +0.000 A 
ATOM     18  C   UNL     1       3.990   2.874  17.786  0.00  0.00    +0.000 A 
ATOM     19  C   UNL     1       3.229   1.792  18.227  0.00  0.00    +0.000 A 
ATOM     20  C   UNL     1       1.873   1.962  18.510  0.00  0.00    +0.000 A 
ATOM     21  C   UNL     1       1.276   3.213  18.349  0.00  0.00    +0.000 A 
ATOM     22  C   UNL     1       2.036   4.301  17.910  0.00  0.00    +0.000 A 
ENDBRANCH  16  17
ENDBRANCH  12  15
ENDBRANCH   5   8
BRANCH   1  24
ATOM     23  C   UNL     1      11.499  13.893  19.844  0.00  0.00    +0.000 C 
ATOM     24  N   UNL     1      10.732  12.982  20.355  0.00  0.00    +0.000 NA
BRANCH  23  25
ATOM     25  C   UNL     1      11.543  15.260  20.410  0.00  0.00    +0.000 A 
ATOM     26  C   UNL     1      12.314  16.254  19.799  0.00  0.00    +0.000 A 
ATOM     27  C   UNL     1      12.333  17.546  20.326  0.00  0.00    +0.000 A 
ATOM     28  C   UNL     1      11.582  17.846  21.463  0.00  0.00    +0.000 A 
ATOM     29  C   UNL     1      10.809  16.856  22.071  0.00  0.00    +0.000 A 
ATOM     30  C   UNL     1      10.785  15.560  21.546  0.00  0.00    +0.000 A 
ENDBRANCH  23  25
ENDBRANCH   1  24
TORSDOF 5
ENDMDL
MODEL 5
REMARK VINA RESULT:      -7.9      0.660     11.239
REMARK  Name = 
REMARK  5 active torsions:
REMARK  status: ('A' for Active; 'I' for Inactive)
REMARK    1  A    between atoms: C_1  and  C_23
REMARK    2  A    between atoms: N_2  and  N_3
REMARK    3  A    between atoms: C_7  and  C_8
REMARK    4  A    between atoms: N_12  and  N_13
REMARK    5  A    between atoms: C_14  and  C_15
REMARK                            x       y       z     vdW  Elec       q    Type
REMARK                         _______ _______ _______ _____ _____    ______ ____
ROOT
ATOM      1  N   UNL     1      10.802  12.113  20.043  0.00  0.00    +0.000 N 
ATOM      2  C   UNL     1       9.927  11.556  19.173  0.00  0.00    +0.000 A 
ATOM      3  N   UNL     1       9.190  12.085  18.218  0.00  0.00    +0.000 NA
ATOM      4  N   UNL     1       8.474  11.053  17.646  0.00  0.00    +0.000 NA
ATOM      5  C   UNL     1       8.783   9.959  18.318  0.00  0.00    +0.000 A 
ATOM      6  O   UNL     1       9.729  10.207  19.292  0.00  0.00    +0.000 OA
ATOM      7  H   UNL     1      11.243  11.464  20.689  0.00  0.00    +0.000 HD
ENDROOT
BRANCH   5   8
ATOM      8  C   UNL     1       8.200   8.674  18.069  0.00  0.00    +0.000 A 
ATOM      9  N   UNL     1       8.419   7.610  18.819  0.00  0.00    +0.000 NA
ATOM     10  N   UNL     1       7.652   6.590  18.294  0.00  0.00    +0.000 NA
ATOM     11  C   UNL     1       7.052   7.073  17.228  0.00  0.00    +0.000 A 
ATOM     12  N   UNL     1       6.220   6.496  16.330  0.00  0.00    +0.000 N 
ATOM     13  O   UNL     1       7.344   8.395  17.024  0.00  0.00    +0.000 OA
ATOM     14  H   UNL     1       5.940   7.070  15.539  0.00  0.00    +0.000 HD
BRANCH  12  15
ATOM     15  N   UNL     1       5.510   5.370  16.628  0.00  0.00    +0.000 NA
ATOM     16  C   UNL     1       4.306   5.545  17.069  0.00  0.00    +0.000 C 
BRANCH  16  17
ATOM     17  C   UNL     1       3.479   4.400  17.504  0.00  0.00    +0.000 A 
ATOM     18  C   UNL     1       4.014   3.111  17.561  0.00  0.00    +0.000 A 
ATOM     19  C   UNL     1       3.229   2.045  18.001  0.00  0.00    +0.000 A 
ATOM     20  C   UNL     1       1.906   2.265  18.385  0.00  0.00    +0.000 A 
ATOM     21  C   UNL     1       1.364   3.549  18.326  0.00  0.00    +0.000 A 
ATOM     22  C   UNL     1       2.148   4.621  17.889  0.00  0.00    +0.000 A 
ENDBRANCH  16  17
ENDBRANCH  12  15
ENDBRANCH   5   8
BRANCH   1  24
ATOM     23  C   UNL     1       9.953  13.601  21.520  0.00  0.00    +0.000 C 
ATOM     24  N   UNL     1      10.653  13.410  20.448  0.00  0.00    +0.000 NA
BRANCH  23  25
ATOM     25  C   UNL     1       9.641  14.968  21.996  0.00  0.00    +0.000 A 
ATOM     26  C   UNL     1       9.044  15.162  23.246  0.00  0.00    +0.000 A 
ATOM     27  C   UNL     1       8.773  16.455  23.697  0.00  0.00    +0.000 A 
ATOM     28  C   UNL     1       9.098  17.553  22.900  0.00  0.00    +0.000 A 
ATOM     29  C   UNL     1       9.697  17.360  21.655  0.00  0.00    +0.000 A 
ATOM     30  C   UNL     1       9.972  16.067  21.199  0.00  0.00    +0.000 A 
ENDBRANCH  23  25
ENDBRANCH   1  24
TORSDOF 5
ENDMDL
MODEL 6
REMARK VINA RESULT:      -7.8      2.387     11.670
REMARK  Name = 
REMARK  5 active torsions:
REMARK  status: ('A' for Active; 'I' for Inactive)
REMARK    1  A    between atoms: C_1  and  C_23
REMARK    2  A    between atoms: N_2  and  N_3
REMARK    3  A    between atoms: C_7  and  C_8
REMARK    4  A    between atoms: N_12  and  N_13
REMARK    5  A    between atoms: C_14  and  C_15
REMARK                            x       y       z     vdW  Elec       q    Type
REMARK                         _______ _______ _______ _____ _____    ______ ____
ROOT
ATOM      1  N   UNL     1       8.723  13.368  17.655  0.00  0.00    +0.000 N 
ATOM      2  C   UNL     1       8.870  12.139  18.205  0.00  0.00    +0.000 A 
ATOM      3  N   UNL     1       9.590  11.721  19.225  0.00  0.00    +0.000 NA
ATOM      4  N   UNL     1       9.368  10.364  19.343  0.00  0.00    +0.000 NA
ATOM      5  C   UNL     1       8.559  10.025  18.356  0.00  0.00    +0.000 A 
ATOM      6  O   UNL     1       8.180  11.120  17.606  0.00  0.00    +0.000 OA
ATOM      7  H   UNL     1       8.093  13.413  16.859  0.00  0.00    +0.000 HD
ENDROOT
BRANCH   5   8
ATOM      8  C   UNL     1       8.133   8.683  18.094  0.00  0.00    +0.000 A 
ATOM      9  N   UNL     1       8.478   7.645  18.833  0.00  0.00    +0.000 NA
ATOM     10  N   UNL     1       7.837   6.546  18.297  0.00  0.00    +0.000 NA
ATOM     11  C   UNL     1       7.184   6.965  17.235  0.00  0.00    +0.000 A 
ATOM     12  N   UNL     1       6.427   6.302  16.330  0.00  0.00    +0.000 N 
ATOM     13  O   UNL     1       7.317   8.314  17.045  0.00  0.00    +0.000 OA
ATOM     14  H   UNL     1       6.081   6.845  15.545  0.00  0.00    +0.000 HD
BRANCH  12  15
ATOM     15  N   UNL     1       5.856   5.096  16.616  0.00  0.00    +0.000 NA
ATOM     16  C   UNL     1       4.890   5.103  17.478  0.00  0.00    +0.000 C 
BRANCH  16  17
ATOM     17  C   UNL     1       4.259   3.843  17.925  0.00  0.00    +0.000 A 
ATOM     18  C   UNL     1       4.655   3.226  19.113  0.00  0.00    +0.000 A 
ATOM     19  C   UNL     1       4.029   2.054  19.537  0.00  0.00    +0.000 A 
ATOM     20  C   UNL     1       3.004   1.494  18.772  0.00  0.00    +0.000 A 
ATOM     21  C   UNL     1       2.607   2.104  17.581  0.00  0.00    +0.000 A 
ATOM     22  C   UNL     1       3.229   3.281  17.155  0.00  0.00    +0.000 A 
ENDBRANCH  16  17
ENDBRANCH  12  15
ENDBRANCH   5   8
BRANCH   1  24
ATOM     23  C   UNL     1       9.533  15.310  18.488  0.00  0.00    +0.000 C 
ATOM     24  N   UNL     1       9.733  14.287  17.720  0.00  0.00    +0.000 NA
BRANCH  23  25
ATOM     25  C   UNL     1      10.513  16.416  18.558  0.00  0.00    +0.000 A 
ATOM     26  C   UNL     1      10.870  17.121  17.403  0.00  0.00    +0.000 A 
ATOM     27  C   UNL     1      11.778  18.177  17.482  0.00  0.00    +0.000 A 
ATOM     28  C   UNL     1      12.330  18.531  18.714  0.00  0.00    +0.000 A 
ATOM     29  C   UNL     1      11.971  17.832  19.867  0.00  0.00    +0.000 A 
ATOM     30  C   UNL     1      11.061  16.774  19.794  0.00  0.00    +0.000 A 
ENDBRANCH  23  25
ENDBRANCH   1  24
TORSDOF 5
ENDMDL
MODEL 7
REMARK VINA RESULT:      -7.8      1.712      1.947
REMARK  Name = 
REMARK  5 active torsions:
REMARK  status: ('A' for Active; 'I' for Inactive)
REMARK    1  A    between atoms: C_1  and  C_23
REMARK    2  A    between atoms: N_2  and  N_3
REMARK    3  A    between atoms: C_7  and  C_8
REMARK    4  A    between atoms: N_12  and  N_13
REMARK    5  A    between atoms: C_14  and  C_15
REMARK                            x       y       z     vdW  Elec       q    Type
REMARK                         _______ _______ _______ _____ _____    ______ ____
ROOT
ATOM      1  N   UNL     1       5.556   6.050  16.426  0.00  0.00    +0.000 N 
ATOM      2  C   UNL     1       6.550   6.544  17.202  0.00  0.00    +0.000 A 
ATOM      3  N   UNL     1       7.304   5.975  18.119  0.00  0.00    +0.000 NA
ATOM      4  N   UNL     1       8.155   6.949  18.601  0.00  0.00    +0.000 NA
ATOM      5  C   UNL     1       7.836   8.071  17.979  0.00  0.00    +0.000 A 
ATOM      6  O   UNL     1       6.834   7.874  17.051  0.00  0.00    +0.000 OA
ATOM      7  H   UNL     1       5.131   6.720  15.789  0.00  0.00    +0.000 HD
ENDROOT
BRANCH   5   8
ATOM      8  C   UNL     1       8.452   9.336  18.244  0.00  0.00    +0.000 A 
ATOM      9  N   UNL     1       8.265  10.414  17.505  0.00  0.00    +0.000 NA
ATOM     10  N   UNL     1       8.980  11.433  18.102  0.00  0.00    +0.000 NA
ATOM     11  C   UNL     1       9.602  10.909  19.136  0.00  0.00    +0.000 A 
ATOM     12  N   UNL     1      10.453  11.451  20.037  0.00  0.00    +0.000 N 
ATOM     13  O   UNL     1       9.309   9.582  19.297  0.00  0.00    +0.000 OA
ATOM     14  H   UNL     1      10.863  10.813  20.713  0.00  0.00    +0.000 HD
BRANCH  12  15
ATOM     15  N   UNL     1      10.492  12.794  20.273  0.00  0.00    +0.000 NA
ATOM     16  C   UNL     1      10.744  13.553  19.255  0.00  0.00    +0.000 C 
BRANCH  16  17
ATOM     17  C   UNL     1      10.895  15.015  19.414  0.00  0.00    +0.000 A 
ATOM     18  C   UNL     1       9.776  15.850  19.456  0.00  0.00    +0.000 A 
ATOM     19  C   UNL     1       9.934  17.225  19.635  0.00  0.00    +0.000 A 
ATOM     20  C   UNL     1      11.212  17.768  19.772  0.00  0.00    +0.000 A 
ATOM     21  C   UNL     1      12.333  16.940  19.726  0.00  0.00    +0.000 A 
ATOM     22  C   UNL     1      12.180  15.562  19.551  0.00  0.00    +0.000 A 
ENDBRANCH  16  17
ENDBRANCH  12  15
ENDBRANCH   5   8
BRANCH   1  24
ATOM     23  C   UNL     1       3.663   5.318  17.424  0.00  0.00    +0.000 C 
ATOM     24  N   UNL     1       4.786   5.008  16.858  0.00  0.00    +0.000 NA
BRANCH  23  25
ATOM     25  C   UNL     1       2.794   4.278  18.020  0.00  0.00    +0.000 A 
ATOM     26  C   UNL     1       2.854   2.957  17.562  0.00  0.00    +0.000 A 
ATOM     27  C   UNL     1       2.049   1.979  18.145  0.00  0.00    +0.000 A 
ATOM     28  C   UNL     1       1.183   2.318  19.185  0.00  0.00    +0.000 A 
ATOM     29  C   UNL     1       1.125   3.634  19.646  0.00  0.00    +0.000 A 
ATOM     30  C   UNL     1       1.931   4.618  19.066  0.00  0.00    +0.000 A 
ENDBRANCH  23  25
ENDBRANCH   1  24
TORSDOF 5
ENDMDL
MODEL 8
REMARK VINA RESULT:      -7.7      1.153      1.704
REMARK  Name = 
REMARK  5 active torsions:
REMARK  status: ('A' for Active; 'I' for Inactive)
REMARK    1  A    between atoms: C_1  and  C_23
REMARK    2  A    between atoms: N_2  and  N_3
REMARK    3  A    between atoms: C_7  and  C_8
REMARK    4  A    between atoms: N_12  and  N_13
REMARK    5  A    between atoms: C_14  and  C_15
REMARK                            x       y       z     vdW  Elec       q    Type
REMARK                         _______ _______ _______ _____ _____    ______ ____
ROOT
ATOM      1  N   UNL     1       5.203   6.547  16.648  0.00  0.00    +0.000 N 
ATOM      2  C   UNL     1       6.325   6.852  17.343  0.00  0.00    +0.000 A 
ATOM      3  N   UNL     1       7.103   6.115  18.108  0.00  0.00    +0.000 NA
ATOM      4  N   UNL     1       8.107   6.941  18.573  0.00  0.00    +0.000 NA
ATOM      5  C   UNL     1       7.854   8.148  18.099  0.00  0.00    +0.000 A 
ATOM      6  O   UNL     1       6.743   8.154  17.281  0.00  0.00    +0.000 OA
ATOM      7  H   UNL     1       4.792   7.319  16.130  0.00  0.00    +0.000 HD
ENDROOT
BRANCH   5   8
ATOM      8  C   UNL     1       8.637   9.309  18.403  0.00  0.00    +0.000 A 
ATOM      9  N   UNL     1       8.981  10.218  17.510  0.00  0.00    +0.000 NA
ATOM     10  N   UNL     1       9.680  11.196  18.189  0.00  0.00    +0.000 NA
ATOM     11  C   UNL     1       9.769  10.802  19.441  0.00  0.00    +0.000 A 
ATOM     12  N   UNL     1      10.373  11.362  20.515  0.00  0.00    +0.000 N 
ATOM     13  O   UNL     1       9.121   9.615  19.658  0.00  0.00    +0.000 OA
ATOM     14  H   UNL     1      10.361  10.820  21.374  0.00  0.00    +0.000 HD
BRANCH  12  15
ATOM     15  N   UNL     1      10.660  12.694  20.565  0.00  0.00    +0.000 NA
ATOM     16  C   UNL     1       9.670  13.491  20.813  0.00  0.00    +0.000 C 
BRANCH  16  17
ATOM     17  C   UNL     1       9.850  14.958  20.805  0.00  0.00    +0.000 A 
ATOM     18  C   UNL     1      10.556  15.598  21.826  0.00  0.00    +0.000 A 
ATOM     19  C   UNL     1      10.743  16.980  21.789  0.00  0.00    +0.000 A 
ATOM     20  C   UNL     1      10.225  17.726  20.730  0.00  0.00    +0.000 A 
ATOM     21  C   UNL     1       9.515  17.092  19.709  0.00  0.00    +0.000 A 
ATOM     22  C   UNL     1       9.328  15.708  19.740  0.00  0.00    +0.000 A 
ENDBRANCH  16  17
ENDBRANCH  12  15
ENDBRANCH   5   8
BRANCH   1  24
ATOM     23  C   UNL     1       3.429   5.898  17.892  0.00  0.00    +0.000 C 
ATOM     24  N   UNL     1       4.369   5.551  17.072  0.00  0.00    +0.000 NA
BRANCH  23  25
ATOM     25  C   UNL     1       2.530   4.888  18.495  0.00  0.00    +0.000 A 
ATOM     26  C   UNL     1       2.234   3.704  17.810  0.00  0.00    +0.000 A 
ATOM     27  C   UNL     1       1.404   2.749  18.395  0.00  0.00    +0.000 A 
ATOM     28  C   UNL     1       0.868   2.973  19.663  0.00  0.00    +0.000 A 
ATOM     29  C   UNL     1       1.165   4.151  20.349  0.00  0.00    +0.000 A 
ATOM     30  C   UNL     1       1.998   5.113  19.768  0.00  0.00    +0.000 A 
ENDBRANCH  23  25
ENDBRANCH   1  24
TORSDOF 5
ENDMDL
MODEL 9
REMARK VINA RESULT:      -7.6      6.592      8.160
REMARK  Name = 
REMARK  5 active torsions:
REMARK  status: ('A' for Active; 'I' for Inactive)
REMARK    1  A    between atoms: C_1  and  C_23
REMARK    2  A    between atoms: N_2  and  N_3
REMARK    3  A    between atoms: C_7  and  C_8
REMARK    4  A    between atoms: N_12  and  N_13
REMARK    5  A    between atoms: C_14  and  C_15
REMARK                            x       y       z     vdW  Elec       q    Type
REMARK                         _______ _______ _______ _____ _____    ______ ____
ROOT
ATOM      1  N   UNL     1       5.759   5.036  17.932  0.00  0.00    +0.000 N 
ATOM      2  C   UNL     1       4.449   5.285  18.170  0.00  0.00    +0.000 A 
ATOM      3  N   UNL     1       3.356   4.709  17.716  0.00  0.00    +0.000 NA
ATOM      4  N   UNL     1       2.287   5.372  18.284  0.00  0.00    +0.000 NA
ATOM      5  C   UNL     1       2.793   6.348  19.017  0.00  0.00    +0.000 A 
ATOM      6  O   UNL     1       4.173   6.331  19.009  0.00  0.00    +0.000 OA
ATOM      7  H   UNL     1       6.411   5.644  18.422  0.00  0.00    +0.000 HD
ENDROOT
BRANCH   5   8
ATOM      8  C   UNL     1       2.003   7.309  19.727  0.00  0.00    +0.000 A 
ATOM      9  N   UNL     1       1.452   7.081  20.905  0.00  0.00    +0.000 NA
ATOM     10  N   UNL     1       0.820   8.249  21.280  0.00  0.00    +0.000 NA
ATOM     11  C   UNL     1       0.975   9.102  20.290  0.00  0.00    +0.000 A 
ATOM     12  N   UNL     1       0.531  10.369  20.123  0.00  0.00    +0.000 N 
ATOM     13  O   UNL     1       1.724   8.580  19.270  0.00  0.00    +0.000 OA
ATOM     14  H   UNL     1       0.726  10.802  19.224  0.00  0.00    +0.000 HD
BRANCH  12  15
ATOM     15  N   UNL     1       0.173  11.152  21.181  0.00  0.00    +0.000 NA
ATOM     16  C   UNL     1      -1.027  11.635  21.164  0.00  0.00    +0.000 C 
BRANCH  16  17
ATOM     17  C   UNL     1      -1.490  12.565  22.216  0.00  0.00    +0.000 A 
ATOM     18  C   UNL     1      -2.701  12.351  22.878  0.00  0.00    +0.000 A 
ATOM     19  C   UNL     1      -3.110  13.221  23.889  0.00  0.00    +0.000 A 
ATOM     20  C   UNL     1      -2.309  14.308  24.241  0.00  0.00    +0.000 A 
ATOM     21  C   UNL     1      -1.101  14.529  23.579  0.00  0.00    +0.000 A 
ATOM     22  C   UNL     1      -0.685  13.658  22.568  0.00  0.00    +0.000 A 
ENDBRANCH  16  17
ENDBRANCH  12  15
ENDBRANCH   5   8
BRANCH   1  24
ATOM     23  C   UNL     1       6.128   5.287  15.715  0.00  0.00    +0.000 C 
ATOM     24  N   UNL     1       6.162   4.499  16.742  0.00  0.00    +0.000 NA
BRANCH  23  25
ATOM     25  C   UNL     1       6.445   4.788  14.358  0.00  0.00    +0.000 A 
ATOM     26  C   UNL     1       5.648   3.805  13.761  0.00  0.00    +0.000 A 
ATOM     27  C   UNL     1       5.940   3.356  12.473  0.00  0.00    +0.000 A 
ATOM     28  C   UNL     1       7.028   3.888  11.780  0.00  0.00    +0.000 A 
ATOM     29  C   UNL     1       7.822   4.871  12.373  0.00  0.00    +0.000 A 
ATOM     30  C   UNL     1       7.532   5.326  13.663  0.00  0.00    +0.000 A 
ENDBRANCH  23  25
ENDBRANCH   1  24
TORSDOF 5
ENDMDL
