MODEL 1
REMARK VINA RESULT:      -8.3      0.000      0.000
REMARK  Name = 
REMARK  4 active torsions:
REMARK  status: ('A' for Active; 'I' for Inactive)
REMARK    1  A    between atoms: C_1  and  C_2
REMARK    2  A    between atoms: C_5  and  C_6
REMARK    3  A    between atoms: C_9  and  C_10
REMARK    4  A    between atoms: C_15  and  C_16
REMARK                            x       y       z     vdW  Elec       q    Type
REMARK                         _______ _______ _______ _____ _____    ______ ____
ROOT
ATOM      1  C   UNL     1       1.497   7.939  20.377  0.00  0.00    +0.000 A 
ATOM      2  C   UNL     1       1.496   8.848  19.305  0.00  0.00    +0.000 A 
ATOM      3  C   UNL     1       0.816  10.072  19.385  0.00  0.00    +0.000 A 
ATOM      4  C   UNL     1       0.137  10.389  20.570  0.00  0.00    +0.000 A 
ATOM      5  N   UNL     1      -0.606  11.499  20.879  0.00  0.00    +0.000 NA
ATOM      6  C   UNL     1      -0.994  11.319  22.126  0.00  0.00    +0.000 A 
ATOM      7  N   UNL     1      -0.536  10.127  22.623  0.00  0.00    +0.000 N 
ATOM      8  C   UNL     1       0.174   9.498  21.634  0.00  0.00    +0.000 A 
ATOM      9  C   UNL     1       0.830   8.264  21.576  0.00  0.00    +0.000 A 
ATOM     10  H   UNL     1      -0.713   9.793  23.560  0.00  0.00    +0.000 HD
ENDROOT
BRANCH   1  19
ATOM     11  C   UNL     1       5.745   5.153  18.284  0.00  0.00    +0.000 C 
ATOM     12  C   UNL     1       4.701   4.464  19.116  0.00  0.00    +0.000 A 
ATOM     13  N   UNL     1       4.797   3.181  19.355  0.00  0.00    +0.000 NA
ATOM     14  C   UNL     1       3.817   2.591  20.132  0.00  0.00    +0.000 A 
ATOM     15  C   UNL     1       2.768   3.246  20.669  0.00  0.00    +0.000 A 
ATOM     16  C   UNL     1       1.716   2.597  21.509  0.00  0.00    +0.000 C 
ATOM     17  N   UNL     1       2.667   4.611  20.415  0.00  0.00    +0.000 N 
ATOM     18  N   UNL     1       1.752   5.520  20.813  0.00  0.00    +0.000 NA
ATOM     19  C   UNL     1       2.186   6.656  20.243  0.00  0.00    +0.000 A 
ATOM     20  N   UNL     1       3.343   6.513  19.506  0.00  0.00    +0.000 NA
ATOM     21  C   UNL     1       3.612   5.237  19.642  0.00  0.00    +0.000 A 
ENDBRANCH   1  19
BRANCH   6  22
ATOM     22  C   UNL     1      -1.812  12.279  22.912  0.00  0.00    +0.000 A 
ATOM     23  C   UNL     1      -1.363  13.546  23.225  0.00  0.00    +0.000 A 
ATOM     24  S   UNL     1      -2.540  14.359  24.168  0.00  0.00    +0.000 S 
ATOM     25  C   UNL     1      -3.539  12.966  24.081  0.00  0.00    +0.000 A 
ATOM     26  N   UNL     1      -3.072  11.951  23.384  0.00  0.00    +0.000 NA
ENDBRANCH   6  22
TORSDOF 2
ENDMDL
MODEL 2
REMARK VINA RESULT:      -8.3      0.566      2.000
REMARK  Name = 
REMARK  4 active torsions:
REMARK  status: ('A' for Active; 'I' for Inactive)
REMARK    1  A    between atoms: C_1  and  C_2
REMARK    2  A    between atoms: C_5  and  C_6
REMARK    3  A    between atoms: C_9  and  C_10
REMARK    4  A    between atoms: C_15  and  C_16
REMARK                            x       y       z     vdW  Elec       q    Type
REMARK                         _______ _______ _______ _____ _____    ______ ____
ROOT
ATOM      1  C   UNL     1       1.450   8.019  20.325  0.00  0.00    +0.000 A 
ATOM      2  C   UNL     1       1.488   8.973  19.294  0.00  0.00    +0.000 A 
ATOM      3  C   UNL     1       0.819  10.200  19.408  0.00  0.00    +0.000 A 
ATOM      4  C   UNL     1       0.111  10.474  20.586  0.00  0.00    +0.000 A 
ATOM      5  N   UNL     1      -0.629  11.578  20.922  0.00  0.00    +0.000 NA
ATOM      6  C   UNL     1      -1.054  11.349  22.149  0.00  0.00    +0.000 A 
ATOM      7  N   UNL     1      -0.623  10.132  22.607  0.00  0.00    +0.000 N 
ATOM      8  C   UNL     1       0.108   9.538  21.611  0.00  0.00    +0.000 A 
ATOM      9  C   UNL     1       0.753   8.300  21.518  0.00  0.00    +0.000 A 
ATOM     10  H   UNL     1      -0.829   9.760  23.523  0.00  0.00    +0.000 HD
ENDROOT
BRANCH   1  19
ATOM     11  C   UNL     1       1.646   2.675  21.585  0.00  0.00    +0.000 C 
ATOM     12  C   UNL     1       2.670   3.295  20.677  0.00  0.00    +0.000 A 
ATOM     13  N   UNL     1       3.626   2.559  20.170  0.00  0.00    +0.000 NA
ATOM     14  C   UNL     1       4.542   3.171  19.334  0.00  0.00    +0.000 A 
ATOM     15  C   UNL     1       4.517   4.476  18.997  0.00  0.00    +0.000 A 
ATOM     16  C   UNL     1       5.512   5.125  18.090  0.00  0.00    +0.000 C 
ATOM     17  N   UNL     1       3.499   5.259  19.535  0.00  0.00    +0.000 N 
ATOM     18  N   UNL     1       3.213   6.568  19.380  0.00  0.00    +0.000 NA
ATOM     19  C   UNL     1       2.129   6.735  20.155  0.00  0.00    +0.000 A 
ATOM     20  N   UNL     1       1.704   5.586  20.790  0.00  0.00    +0.000 NA
ATOM     21  C   UNL     1       2.573   4.695  20.377  0.00  0.00    +0.000 A 
ENDBRANCH   1  19
BRANCH   6  22
ATOM     22  C   UNL     1      -1.883  12.284  22.953  0.00  0.00    +0.000 A 
ATOM     23  C   UNL     1      -1.464  13.562  23.263  0.00  0.00    +0.000 A 
ATOM     24  S   UNL     1      -2.646  14.340  24.230  0.00  0.00    +0.000 S 
ATOM     25  C   UNL     1      -3.608  12.920  24.154  0.00  0.00    +0.000 A 
ATOM     26  N   UNL     1      -3.127  11.921  23.445  0.00  0.00    +0.000 NA
ENDBRANCH   6  22
TORSDOF 2
ENDMDL
MODEL 3
REMARK VINA RESULT:      -8.1      1.105      1.218
REMARK  Name = 
REMARK  4 active torsions:
REMARK  status: ('A' for Active; 'I' for Inactive)
REMARK    1  A    between atoms: C_1  and  C_2
REMARK    2  A    between atoms: C_5  and  C_6
REMARK    3  A    between atoms: C_9  and  C_10
REMARK    4  A    between atoms: C_15  and  C_16
REMARK                            x       y       z     vdW  Elec       q    Type
REMARK                         _______ _______ _______ _____ _____    ______ ____
ROOT
ATOM      1  C   UNL     1       1.867   7.858  19.755  0.00  0.00    +0.000 A 
ATOM      2  C   UNL     1       1.869   8.562  18.538  0.00  0.00    +0.000 A 
ATOM      3  C   UNL     1       1.276   9.828  18.425  0.00  0.00    +0.000 A 
ATOM      4  C   UNL     1       0.683  10.397  19.559  0.00  0.00    +0.000 A 
ATOM      5  N   UNL     1       0.031  11.596  19.694  0.00  0.00    +0.000 NA
ATOM      6  C   UNL     1      -0.303  11.667  20.967  0.00  0.00    +0.000 A 
ATOM      7  N   UNL     1       0.101  10.551  21.652  0.00  0.00    +0.000 N 
ATOM      8  C   UNL     1       0.716   9.707  20.764  0.00  0.00    +0.000 A 
ATOM      9  C   UNL     1       1.286   8.437  20.902  0.00  0.00    +0.000 A 
ATOM     10  H   UNL     1      -0.048  10.400  22.639  0.00  0.00    +0.000 HD
ENDROOT
BRANCH   1  19
ATOM     11  C   UNL     1       5.989   4.537  18.286  0.00  0.00    +0.000 C 
ATOM     12  C   UNL     1       4.857   4.036  19.136  0.00  0.00    +0.000 A 
ATOM     13  N   UNL     1       4.843   2.792  19.541  0.00  0.00    +0.000 NA
ATOM     14  C   UNL     1       3.784   2.377  20.328  0.00  0.00    +0.000 A 
ATOM     15  C   UNL     1       2.762   3.167  20.714  0.00  0.00    +0.000 A 
ATOM     16  C   UNL     1       1.624   2.708  21.566  0.00  0.00    +0.000 C 
ATOM     17  N   UNL     1       2.778   4.492  20.284  0.00  0.00    +0.000 N 
ATOM     18  N   UNL     1       1.915   5.505  20.509  0.00  0.00    +0.000 NA
ATOM     19  C   UNL     1       2.462   6.524  19.826  0.00  0.00    +0.000 A 
ATOM     20  N   UNL     1       3.641   6.207  19.182  0.00  0.00    +0.000 NA
ATOM     21  C   UNL     1       3.804   4.944  19.495  0.00  0.00    +0.000 A 
ENDBRANCH   1  19
BRANCH   6  22
ATOM     22  C   UNL     1      -1.014  12.808  21.601  0.00  0.00    +0.000 A 
ATOM     23  C   UNL     1      -1.657  13.780  20.861  0.00  0.00    +0.000 A 
ATOM     24  S   UNL     1      -2.330  14.955  21.910  0.00  0.00    +0.000 S 
ATOM     25  C   UNL     1      -1.713  14.077  23.250  0.00  0.00    +0.000 A 
ATOM     26  N   UNL     1      -1.065  12.965  22.977  0.00  0.00    +0.000 NA
ENDBRANCH   6  22
TORSDOF 2
ENDMDL
MODEL 4
REMARK VINA RESULT:      -8.1      1.219      2.302
REMARK  Name = 
REMARK  4 active torsions:
REMARK  status: ('A' for Active; 'I' for Inactive)
REMARK    1  A    between atoms: C_1  and  C_2
REMARK    2  A    between atoms: C_5  and  C_6
REMARK    3  A    between atoms: C_9  and  C_10
REMARK    4  A    between atoms: C_15  and  C_16
REMARK                            x       y       z     vdW  Elec       q    Type
REMARK                         _______ _______ _______ _____ _____    ______ ____
ROOT
ATOM      1  C   UNL     1       1.854   7.913  19.811  0.00  0.00    +0.000 A 
ATOM      2  C   UNL     1       1.851   8.681  18.633  0.00  0.00    +0.000 A 
ATOM      3  C   UNL     1       1.279   9.961  18.596  0.00  0.00    +0.000 A 
ATOM      4  C   UNL     1       0.712  10.479  19.768  0.00  0.00    +0.000 A 
ATOM      5  N   UNL     1       0.083  11.679  19.976  0.00  0.00    +0.000 NA
ATOM      6  C   UNL     1      -0.231  11.688  21.256  0.00  0.00    +0.000 A 
ATOM      7  N   UNL     1       0.163  10.530  21.874  0.00  0.00    +0.000 N 
ATOM      8  C   UNL     1       0.751   9.725  20.933  0.00  0.00    +0.000 A 
ATOM      9  C   UNL     1       1.300   8.440  20.995  0.00  0.00    +0.000 A 
ATOM     10  H   UNL     1       0.026  10.330  22.854  0.00  0.00    +0.000 HD
ENDROOT
BRANCH   1  19
ATOM     11  C   UNL     1       1.557   2.735  21.621  0.00  0.00    +0.000 C 
ATOM     12  C   UNL     1       2.659   3.170  20.697  0.00  0.00    +0.000 A 
ATOM     13  N   UNL     1       3.565   2.310  20.308  0.00  0.00    +0.000 NA
ATOM     14  C   UNL     1       4.556   2.754  19.452  0.00  0.00    +0.000 A 
ATOM     15  C   UNL     1       4.652   4.014  18.981  0.00  0.00    +0.000 A 
ATOM     16  C   UNL     1       5.727   4.481  18.054  0.00  0.00    +0.000 C 
ATOM     17  N   UNL     1       3.687   4.929  19.394  0.00  0.00    +0.000 N 
ATOM     18  N   UNL     1       3.519   6.233  19.093  0.00  0.00    +0.000 NA
ATOM     19  C   UNL     1       2.427   6.568  19.801  0.00  0.00    +0.000 A 
ATOM     20  N   UNL     1       1.887   5.531  20.534  0.00  0.00    +0.000 NA
ATOM     21  C   UNL     1       2.691   4.535  20.251  0.00  0.00    +0.000 A 
ENDBRANCH   1  19
BRANCH   6  22
ATOM     22  C   UNL     1      -0.913  12.806  21.960  0.00  0.00    +0.000 A 
ATOM     23  C   UNL     1      -1.933  13.531  21.378  0.00  0.00    +0.000 A 
ATOM     24  S   UNL     1      -2.454  14.759  22.454  0.00  0.00    +0.000 S 
ATOM     25  C   UNL     1      -1.287  14.224  23.593  0.00  0.00    +0.000 A 
ATOM     26  N   UNL     1      -0.555  13.188  23.243  0.00  0.00    +0.000 NA
ENDBRANCH   6  22
TORSDOF 2
ENDMDL
MODEL 5
REMARK VINA RESULT:      -8.0      1.625      1.836
REMARK  Name = 
REMARK  4 active torsions:
REMARK  status: ('A' for Active; 'I' for Inactive)
REMARK    1  A    between atoms: C_1  and  C_2
REMARK    2  A    between atoms: C_5  and  C_6
REMARK    3  A    between atoms: C_9  and  C_10
REMARK    4  A    between atoms: C_15  and  C_16
REMARK                            x       y       z     vdW  Elec       q    Type
REMARK                         _______ _______ _______ _____ _____    ______ ____
ROOT
ATOM      1  C   UNL     1       1.966   7.704  19.248  0.00  0.00    +0.000 A 
ATOM      2  C   UNL     1       2.031   8.573  18.145  0.00  0.00    +0.000 A 
ATOM      3  C   UNL     1       1.614   9.908  18.242  0.00  0.00    +0.000 A 
ATOM      4  C   UNL     1       1.135  10.377  19.472  0.00  0.00    +0.000 A 
ATOM      5  N   UNL     1       0.657  11.618  19.807  0.00  0.00    +0.000 NA
ATOM      6  C   UNL     1       0.371  11.543  21.092  0.00  0.00    +0.000 A 
ATOM      7  N   UNL     1       0.637  10.295  21.590  0.00  0.00    +0.000 N 
ATOM      8  C   UNL     1       1.107   9.518  20.563  0.00  0.00    +0.000 A 
ATOM      9  C   UNL     1       1.501   8.178  20.492  0.00  0.00    +0.000 A 
ATOM     10  H   UNL     1       0.497  10.022  22.552  0.00  0.00    +0.000 HD
ENDROOT
BRANCH   1  19
ATOM     11  C   UNL     1       4.737   3.971  16.322  0.00  0.00    +0.000 C 
ATOM     12  C   UNL     1       3.982   3.579  17.559  0.00  0.00    +0.000 A 
ATOM     13  N   UNL     1       3.980   2.333  17.958  0.00  0.00    +0.000 NA
ATOM     14  C   UNL     1       3.277   2.020  19.108  0.00  0.00    +0.000 A 
ATOM     15  C   UNL     1       2.595   2.912  19.854  0.00  0.00    +0.000 A 
ATOM     16  C   UNL     1       1.841   2.562  21.095  0.00  0.00    +0.000 C 
ATOM     17  N   UNL     1       2.599   4.238  19.430  0.00  0.00    +0.000 N 
ATOM     18  N   UNL     1       2.025   5.338  19.961  0.00  0.00    +0.000 NA
ATOM     19  C   UNL     1       2.375   6.307  19.099  0.00  0.00    +0.000 A 
ATOM     20  N   UNL     1       3.155   5.875  18.047  0.00  0.00    +0.000 NA
ATOM     21  C   UNL     1       3.275   4.593  18.290  0.00  0.00    +0.000 A 
ENDBRANCH   1  19
BRANCH   6  22
ATOM     22  C   UNL     1      -0.160  12.662  21.915  0.00  0.00    +0.000 A 
ATOM     23  C   UNL     1      -1.280  12.527  22.709  0.00  0.00    +0.000 A 
ATOM     24  S   UNL     1      -1.625  14.017  23.480  0.00  0.00    +0.000 S 
ATOM     25  C   UNL     1      -0.263  14.710  22.697  0.00  0.00    +0.000 A 
ATOM     26  N   UNL     1       0.441  13.911  21.924  0.00  0.00    +0.000 NA
ENDBRANCH   6  22
TORSDOF 2
ENDMDL
MODEL 6
REMARK VINA RESULT:      -7.8      1.397      1.596
REMARK  Name = 
REMARK  4 active torsions:
REMARK  status: ('A' for Active; 'I' for Inactive)
REMARK    1  A    between atoms: C_1  and  C_2
REMARK    2  A    between atoms: C_5  and  C_6
REMARK    3  A    between atoms: C_9  and  C_10
REMARK    4  A    between atoms: C_15  and  C_16
REMARK                            x       y       z     vdW  Elec       q    Type
REMARK                         _______ _______ _______ _____ _____    ______ ____
ROOT
ATOM      1  C   UNL     1       1.834   8.260  19.236  0.00  0.00    +0.000 A 
ATOM      2  C   UNL     1       1.754   9.260  18.251  0.00  0.00    +0.000 A 
ATOM      3  C   UNL     1       1.118  10.484  18.502  0.00  0.00    +0.000 A 
ATOM      4  C   UNL     1       0.563  10.707  19.770  0.00  0.00    +0.000 A 
ATOM      5  N   UNL     1      -0.118  11.799  20.245  0.00  0.00    +0.000 NA
ATOM      6  C   UNL     1      -0.390  11.516  21.503  0.00  0.00    +0.000 A 
ATOM      7  N   UNL     1       0.081  10.277  21.849  0.00  0.00    +0.000 N 
ATOM      8  C   UNL     1       0.678   9.725  20.745  0.00  0.00    +0.000 A 
ATOM      9  C   UNL     1       1.292   8.489  20.518  0.00  0.00    +0.000 A 
ATOM     10  H   UNL     1      -0.014   9.865  22.766  0.00  0.00    +0.000 HD
ENDROOT
BRANCH   1  19
ATOM     11  C   UNL     1       5.209   5.443  15.941  0.00  0.00    +0.000 C 
ATOM     12  C   UNL     1       4.524   4.777  17.100  0.00  0.00    +0.000 A 
ATOM     13  N   UNL     1       4.730   3.507  17.341  0.00  0.00    +0.000 NA
ATOM     14  C   UNL     1       4.083   2.938  18.423  0.00  0.00    +0.000 A 
ATOM     15  C   UNL     1       3.257   3.602  19.256  0.00  0.00    +0.000 A 
ATOM     16  C   UNL     1       2.566   2.976  20.424  0.00  0.00    +0.000 C 
ATOM     17  N   UNL     1       3.039   4.953  19.001  0.00  0.00    +0.000 N 
ATOM     18  N   UNL     1       2.286   5.866  19.650  0.00  0.00    +0.000 NA
ATOM     19  C   UNL     1       2.473   6.981  18.925  0.00  0.00    +0.000 A 
ATOM     20  N   UNL     1       3.319   6.822  17.848  0.00  0.00    +0.000 NA
ATOM     21  C   UNL     1       3.653   5.557  17.933  0.00  0.00    +0.000 A 
ENDBRANCH   1  19
BRANCH   6  22
ATOM     22  C   UNL     1      -1.104  12.418  22.445  0.00  0.00    +0.000 A 
ATOM     23  C   UNL     1      -2.443  12.264  22.742  0.00  0.00    +0.000 A 
ATOM     24  S   UNL     1      -2.939  13.494  23.826  0.00  0.00    +0.000 S 
ATOM     25  C   UNL     1      -1.341  14.122  23.808  0.00  0.00    +0.000 A 
ATOM     26  N   UNL     1      -0.462  13.472  23.075  0.00  0.00    +0.000 NA
ENDBRANCH   6  22
TORSDOF 2
ENDMDL
MODEL 7
REMARK VINA RESULT:      -7.7      1.180      1.428
REMARK  Name = 
REMARK  4 active torsions:
REMARK  status: ('A' for Active; 'I' for Inactive)
REMARK    1  A    between atoms: C_1  and  C_2
REMARK    2  A    between atoms: C_5  and  C_6
REMARK    3  A    between atoms: C_9  and  C_10
REMARK    4  A    between atoms: C_15  and  C_16
REMARK                            x       y       z     vdW  Elec       q    Type
REMARK                         _______ _______ _______ _____ _____    ______ ____
ROOT
ATOM      1  C   UNL     1       1.501   8.603  19.329  0.00  0.00    +0.000 A 
ATOM      2  C   UNL     1       1.147   9.510  18.315  0.00  0.00    +0.000 A 
ATOM      3  C   UNL     1       0.332  10.620  18.579  0.00  0.00    +0.000 A 
ATOM      4  C   UNL     1      -0.124  10.825  19.888  0.00  0.00    +0.000 A 
ATOM      5  N   UNL     1      -0.937  11.811  20.385  0.00  0.00    +0.000 NA
ATOM      6  C   UNL     1      -1.028  11.566  21.677  0.00  0.00    +0.000 A 
ATOM      7  N   UNL     1      -0.312  10.450  22.024  0.00  0.00    +0.000 N 
ATOM      8  C   UNL     1       0.260   9.940  20.888  0.00  0.00    +0.000 A 
ATOM      9  C   UNL     1       1.058   8.816  20.650  0.00  0.00    +0.000 A 
ATOM     10  H   UNL     1      -0.241  10.087  22.964  0.00  0.00    +0.000 HD
ENDROOT
BRANCH   1  19
ATOM     11  C   UNL     1       5.260   6.348  16.018  0.00  0.00    +0.000 C 
ATOM     12  C   UNL     1       4.679   5.576  17.169  0.00  0.00    +0.000 A 
ATOM     13  N   UNL     1       5.070   4.349  17.397  0.00  0.00    +0.000 NA
ATOM     14  C   UNL     1       4.513   3.680  18.472  0.00  0.00    +0.000 A 
ATOM     15  C   UNL     1       3.596   4.206  19.308  0.00  0.00    +0.000 A 
ATOM     16  C   UNL     1       3.003   3.473  20.468  0.00  0.00    +0.000 C 
ATOM     17  N   UNL     1       3.182   5.513  19.066  0.00  0.00    +0.000 N 
ATOM     18  N   UNL     1       2.301   6.298  19.721  0.00  0.00    +0.000 NA
ATOM     19  C   UNL     1       2.322   7.436  19.008  0.00  0.00    +0.000 A 
ATOM     20  N   UNL     1       3.185   7.414  17.932  0.00  0.00    +0.000 NA
ATOM     21  C   UNL     1       3.701   6.211  18.006  0.00  0.00    +0.000 A 
ENDBRANCH   1  19
BRANCH   6  22
ATOM     22  C   UNL     1      -1.792  12.389  22.650  0.00  0.00    +0.000 A 
ATOM     23  C   UNL     1      -1.327  13.602  23.116  0.00  0.00    +0.000 A 
ATOM     24  S   UNL     1      -2.439  14.253  24.245  0.00  0.00    +0.000 S 
ATOM     25  C   UNL     1      -3.438  12.875  24.019  0.00  0.00    +0.000 A 
ATOM     26  N   UNL     1      -3.017  11.980  23.151  0.00  0.00    +0.000 NA
ENDBRANCH   6  22
TORSDOF 2
ENDMDL
MODEL 8
REMARK VINA RESULT:      -7.6      1.169      2.368
REMARK  Name = 
REMARK  4 active torsions:
REMARK  status: ('A' for Active; 'I' for Inactive)
REMARK    1  A    between atoms: C_1  and  C_2
REMARK    2  A    between atoms: C_5  and  C_6
REMARK    3  A    between atoms: C_9  and  C_10
REMARK    4  A    between atoms: C_15  and  C_16
REMARK                            x       y       z     vdW  Elec       q    Type
REMARK                         _______ _______ _______ _____ _____    ______ ____
ROOT
ATOM      1  C   UNL     1       1.815   8.481  19.230  0.00  0.00    +0.000 A 
ATOM      2  C   UNL     1       1.777   9.529  18.294  0.00  0.00    +0.000 A 
ATOM      3  C   UNL     1       1.105  10.729  18.567  0.00  0.00    +0.000 A 
ATOM      4  C   UNL     1       0.471  10.878  19.808  0.00  0.00    +0.000 A 
ATOM      5  N   UNL     1      -0.258  11.934  20.294  0.00  0.00    +0.000 NA
ATOM      6  C   UNL     1      -0.601  11.582  21.517  0.00  0.00    +0.000 A 
ATOM      7  N   UNL     1      -0.129  10.334  21.829  0.00  0.00    +0.000 N 
ATOM      8  C   UNL     1       0.543   9.849  20.737  0.00  0.00    +0.000 A 
ATOM      9  C   UNL     1       1.192   8.636  20.486  0.00  0.00    +0.000 A 
ATOM     10  H   UNL     1      -0.273   9.874  22.716  0.00  0.00    +0.000 HD
ENDROOT
BRANCH   1  19
ATOM     11  C   UNL     1       2.743   3.221  20.516  0.00  0.00    +0.000 C 
ATOM     12  C   UNL     1       3.398   3.853  19.322  0.00  0.00    +0.000 A 
ATOM     13  N   UNL     1       4.202   3.149  18.567  0.00  0.00    +0.000 NA
ATOM     14  C   UNL     1       4.777   3.771  17.474  0.00  0.00    +0.000 A 
ATOM     15  C   UNL     1       4.564   5.055  17.125  0.00  0.00    +0.000 A 
ATOM     16  C   UNL     1       5.189   5.716  15.939  0.00  0.00    +0.000 C 
ATOM     17  N   UNL     1       3.707   5.805  17.927  0.00  0.00    +0.000 N 
ATOM     18  N   UNL     1       3.301   7.088  17.831  0.00  0.00    +0.000 NA
ATOM     19  C   UNL     1       2.494   7.230  18.896  0.00  0.00    +0.000 A 
ATOM     20  N   UNL     1       2.361   6.090  19.662  0.00  0.00    +0.000 NA
ATOM     21  C   UNL     1       3.121   5.231  19.027  0.00  0.00    +0.000 A 
ENDBRANCH   1  19
BRANCH   6  22
ATOM     22  C   UNL     1      -1.387  12.424  22.458  0.00  0.00    +0.000 A 
ATOM     23  C   UNL     1      -0.980  13.689  22.832  0.00  0.00    +0.000 A 
ATOM     24  S   UNL     1      -2.099  14.348  23.949  0.00  0.00    +0.000 S 
ATOM     25  C   UNL     1      -3.021  12.904  23.842  0.00  0.00    +0.000 A 
ATOM     26  N   UNL     1      -2.572  11.979  23.020  0.00  0.00    +0.000 NA
ENDBRANCH   6  22
TORSDOF 2
ENDMDL
MODEL 9
REMARK VINA RESULT:      -7.6      2.313      3.317
REMARK  Name = 
REMARK  4 active torsions:
REMARK  status: ('A' for Active; 'I' for Inactive)
REMARK    1  A    between atoms: C_1  and  C_2
REMARK    2  A    between atoms: C_5  and  C_6
REMARK    3  A    between atoms: C_9  and  C_10
REMARK    4  A    between atoms: C_15  and  C_16
REMARK                            x       y       z     vdW  Elec       q    Type
REMARK                         _______ _______ _______ _____ _____    ______ ____
ROOT
ATOM      1  C   UNL     1       1.516   8.151  20.428  0.00  0.00    +0.000 A 
ATOM      2  C   UNL     1       1.200   8.399  21.776  0.00  0.00    +0.000 A 
ATOM      3  C   UNL     1       0.755   9.658  22.202  0.00  0.00    +0.000 A 
ATOM      4  C   UNL     1       0.614  10.680  21.254  0.00  0.00    +0.000 A 
ATOM      5  N   UNL     1       0.220  11.982  21.425  0.00  0.00    +0.000 NA
ATOM      6  C   UNL     1       0.223  12.507  20.216  0.00  0.00    +0.000 A 
ATOM      7  N   UNL     1       0.615  11.590  19.276  0.00  0.00    +0.000 N 
ATOM      8  C   UNL     1       0.896  10.413  19.920  0.00  0.00    +0.000 A 
ATOM      9  C   UNL     1       1.358   9.172  19.469  0.00  0.00    +0.000 A 
ATOM     10  H   UNL     1       0.682  11.780  18.286  0.00  0.00    +0.000 HD
ENDROOT
BRANCH   1  19
ATOM     11  C   UNL     1       1.721   2.759  21.460  0.00  0.00    +0.000 C 
ATOM     12  C   UNL     1       2.447   3.351  20.286  0.00  0.00    +0.000 A 
ATOM     13  N   UNL     1       3.139   2.579  19.488  0.00  0.00    +0.000 NA
ATOM     14  C   UNL     1       3.785   3.167  18.415  0.00  0.00    +0.000 A 
ATOM     15  C   UNL     1       3.748   4.484  18.128  0.00  0.00    +0.000 A 
ATOM     16  C   UNL     1       4.449   5.107  16.965  0.00  0.00    +0.000 C 
ATOM     17  N   UNL     1       3.010   5.305  18.977  0.00  0.00    +0.000 N 
ATOM     18  N   UNL     1       2.784   6.635  18.945  0.00  0.00    +0.000 NA
ATOM     19  C   UNL     1       2.014   6.836  20.027  0.00  0.00    +0.000 A 
ATOM     20  N   UNL     1       1.731   5.691  20.743  0.00  0.00    +0.000 NA
ATOM     21  C   UNL     1       2.360   4.766  20.058  0.00  0.00    +0.000 A 
ENDBRANCH   1  19
BRANCH   6  22
ATOM     22  C   UNL     1      -0.161  13.905  19.892  0.00  0.00    +0.000 A 
ATOM     23  C   UNL     1       0.428  14.613  18.864  0.00  0.00    +0.000 A 
ATOM     24  S   UNL     1      -0.226  16.195  18.801  0.00  0.00    +0.000 S 
ATOM     25  C   UNL     1      -1.230  15.807  20.138  0.00  0.00    +0.000 A 
ATOM     26  N   UNL     1      -1.132  14.583  20.612  0.00  0.00    +0.000 NA
ENDBRANCH   6  22
TORSDOF 2
ENDMDL
