MODEL 1
REMARK VINA RESULT:      -8.1      0.000      0.000
REMARK  Name = 
REMARK  10 active torsions:
REMARK  status: ('A' for Active; 'I' for Inactive)
REMARK    1  A    between atoms: C_1  and  C_2
REMARK    2  A    between atoms: C_6  and  C_7
REMARK    3  A    between atoms: C_9  and  C_11
REMARK    4  A    between atoms: C_11  and  O_12
REMARK    5  A    between atoms: O_12  and  C_13
REMARK    6  A    between atoms: C_16  and  C_17
REMARK    7  A    between atoms: N_19  and  N_20
REMARK    8  A    between atoms: C_21  and  C_22
REMARK    9  A    between atoms: C_25  and  C_26
REMARK   10  A    between atoms: C_26  and  O_28
REMARK                            x       y       z     vdW  Elec       q    Type
REMARK                         _______ _______ _______ _____ _____    ______ ____
ROOT
ATOM      1  C   UNL     1       3.072   7.365  18.239  0.00  0.00    +0.000 A 
ATOM      2  C   UNL     1       2.658   8.441  17.458  0.00  0.00    +0.000 A 
ATOM      3  C   UNL     1       1.747   9.371  17.962  0.00  0.00    +0.000 A 
ATOM      4  C   UNL     1       1.220   9.248  19.256  0.00  0.00    +0.000 A 
ATOM      5  C   UNL     1       1.623   8.156  20.035  0.00  0.00    +0.000 A 
ATOM      6  C   UNL     1       2.538   7.219  19.522  0.00  0.00    +0.000 A 
ENDROOT
BRANCH   4   7
ATOM      7  C   UNL     1       0.256  10.310  19.690  0.00  0.00    +0.000 C 
ATOM      8  O   UNL     1      -0.728  10.540  18.982  0.00  0.00    +0.000 OA
ATOM      9  N   UNL     1       0.514  10.984  20.878  0.00  0.00    +0.000 N 
ATOM     10  H   UNL     1       1.309  10.763  21.465  0.00  0.00    +0.000 HD
BRANCH   9  11
ATOM     11  N   UNL     1      -0.364  11.947  21.290  0.00  0.00    +0.000 NA
ATOM     12  C   UNL     1      -1.030  11.701  22.369  0.00  0.00    +0.000 C 
BRANCH  12  13
ATOM     13  C   UNL     1      -2.045  12.652  22.873  0.00  0.00    +0.000 A 
ATOM     14  C   UNL     1      -3.388  12.436  22.556  0.00  0.00    +0.000 A 
ATOM     15  C   UNL     1      -4.356  13.344  22.997  0.00  0.00    +0.000 A 
ATOM     16  C   UNL     1      -3.992  14.461  23.764  0.00  0.00    +0.000 A 
ATOM     17  C   UNL     1      -2.646  14.657  24.102  0.00  0.00    +0.000 A 
ATOM     18  C   UNL     1      -1.672  13.759  23.643  0.00  0.00    +0.000 A 
BRANCH  16  19
ATOM     19  C   UNL     1      -5.083  15.361  24.229  0.00  0.00    +0.000 C 
ATOM     20  O   UNL     1      -4.893  16.539  24.482  0.00  0.00    +0.000 OA
BRANCH  19  21
ATOM     21  O   UNL     1      -6.283  14.764  24.383  0.00  0.00    +0.000 OA
ATOM     22  H   UNL     1      -7.004  15.102  23.823  0.00  0.00    +0.000 HD
ENDBRANCH  19  21
ENDBRANCH  16  19
ENDBRANCH  12  13
ENDBRANCH   9  11
ENDBRANCH   4   7
BRANCH   1  23
ATOM     23  O   UNL     1       3.945   6.394  17.828  0.00  0.00    +0.000 OA
BRANCH  23  24
ATOM     24  C   UNL     1       3.362   5.122  17.550  0.00  0.00    +0.000 C 
BRANCH  24  33
ATOM     25  C   UNL     1       0.706   2.423  18.544  0.00  0.00    +0.000 C 
ATOM     26  C   UNL     1       1.456   3.599  19.185  0.00  0.00    +0.000 C 
ATOM     27  C   UNL     1       0.892   3.969  20.561  0.00  0.00    +0.000 C 
ATOM     28  C   UNL     1       1.224   2.918  21.614  0.00  0.00    +0.000 C 
ATOM     29  C   UNL     1       2.725   2.650  21.655  0.00  0.00    +0.000 C 
ATOM     30  C   UNL     1       3.298   2.297  20.268  0.00  0.00    +0.000 C 
ATOM     31  C   UNL     1       4.784   1.964  20.431  0.00  0.00    +0.000 C 
ATOM     32  N   UNL     1       2.915   3.344  19.283  0.00  0.00    +0.000 N 
ATOM     33  C   UNL     1       3.857   4.028  18.503  0.00  0.00    +0.000 C 
ATOM     34  O   UNL     1       5.062   3.769  18.502  0.00  0.00    +0.000 OA
ENDBRANCH  24  33
ENDBRANCH  23  24
ENDBRANCH   1  23
TORSDOF 8
ENDMDL
MODEL 2
REMARK VINA RESULT:      -8.1      0.683      1.196
REMARK  Name = 
REMARK  10 active torsions:
REMARK  status: ('A' for Active; 'I' for Inactive)
REMARK    1  A    between atoms: C_1  and  C_2
REMARK    2  A    between atoms: C_6  and  C_7
REMARK    3  A    between atoms: C_9  and  C_11
REMARK    4  A    between atoms: C_11  and  O_12
REMARK    5  A    between atoms: O_12  and  C_13
REMARK    6  A    between atoms: C_16  and  C_17
REMARK    7  A    between atoms: N_19  and  N_20
REMARK    8  A    between atoms: C_21  and  C_22
REMARK    9  A    between atoms: C_25  and  C_26
REMARK   10  A    between atoms: C_26  and  O_28
REMARK                            x       y       z     vdW  Elec       q    Type
REMARK                         _______ _______ _______ _____ _____    ______ ____
ROOT
ATOM      1  C   UNL     1       2.928   7.458  18.547  0.00  0.00    +0.000 A 
ATOM      2  C   UNL     1       2.252   7.464  19.764  0.00  0.00    +0.000 A 
ATOM      3  C   UNL     1       1.238   8.393  20.004  0.00  0.00    +0.000 A 
ATOM      4  C   UNL     1       0.878   9.346  19.039  0.00  0.00    +0.000 A 
ATOM      5  C   UNL     1       1.570   9.351  17.821  0.00  0.00    +0.000 A 
ATOM      6  C   UNL     1       2.593   8.415  17.585  0.00  0.00    +0.000 A 
ENDROOT
BRANCH   4   7
ATOM      7  C   UNL     1      -0.229  10.286  19.407  0.00  0.00    +0.000 C 
ATOM      8  O   UNL     1      -1.198  10.383  18.649  0.00  0.00    +0.000 OA
ATOM      9  N   UNL     1      -0.114  11.003  20.592  0.00  0.00    +0.000 N 
ATOM     10  H   UNL     1       0.672  10.890  21.220  0.00  0.00    +0.000 HD
BRANCH   9  11
ATOM     11  N   UNL     1      -1.123  11.856  20.943  0.00  0.00    +0.000 NA
ATOM     12  C   UNL     1      -1.481  11.851  22.184  0.00  0.00    +0.000 C 
BRANCH  12  13
ATOM     13  C   UNL     1      -2.597  12.696  22.660  0.00  0.00    +0.000 A 
ATOM     14  C   UNL     1      -2.785  13.954  22.083  0.00  0.00    +0.000 A 
ATOM     15  C   UNL     1      -3.816  14.778  22.544  0.00  0.00    +0.000 A 
ATOM     16  C   UNL     1      -4.670  14.349  23.572  0.00  0.00    +0.000 A 
ATOM     17  C   UNL     1      -4.494  13.075  24.128  0.00  0.00    +0.000 A 
ATOM     18  C   UNL     1      -3.448  12.256  23.681  0.00  0.00    +0.000 A 
BRANCH  16  19
ATOM     19  C   UNL     1      -5.767  15.267  23.982  0.00  0.00    +0.000 C 
ATOM     20  O   UNL     1      -5.659  16.481  23.920  0.00  0.00    +0.000 OA
BRANCH  19  21
ATOM     21  O   UNL     1      -6.870  14.655  24.462  0.00  0.00    +0.000 OA
ATOM     22  H   UNL     1      -7.720  14.963  24.104  0.00  0.00    +0.000 HD
ENDBRANCH  19  21
ENDBRANCH  16  19
ENDBRANCH  12  13
ENDBRANCH   9  11
ENDBRANCH   4   7
BRANCH   1  23
ATOM     23  O   UNL     1       3.946   6.600  18.225  0.00  0.00    +0.000 OA
BRANCH  23  24
ATOM     24  C   UNL     1       3.542   5.340  17.693  0.00  0.00    +0.000 C 
BRANCH  24  33
ATOM     25  C   UNL     1       0.785   2.662  18.438  0.00  0.00    +0.000 C 
ATOM     26  C   UNL     1       1.559   3.762  19.177  0.00  0.00    +0.000 C 
ATOM     27  C   UNL     1       0.980   4.047  20.568  0.00  0.00    +0.000 C 
ATOM     28  C   UNL     1       1.258   2.911  21.544  0.00  0.00    +0.000 C 
ATOM     29  C   UNL     1       2.750   2.592  21.591  0.00  0.00    +0.000 C 
ATOM     30  C   UNL     1       3.338   2.325  20.191  0.00  0.00    +0.000 C 
ATOM     31  C   UNL     1       4.810   1.933  20.354  0.00  0.00    +0.000 C 
ATOM     32  N   UNL     1       3.006   3.454  19.281  0.00  0.00    +0.000 N 
ATOM     33  C   UNL     1       3.984   4.163  18.570  0.00  0.00    +0.000 C 
ATOM     34  O   UNL     1       5.181   3.866  18.571  0.00  0.00    +0.000 OA
ENDBRANCH  24  33
ENDBRANCH  23  24
ENDBRANCH   1  23
TORSDOF 8
ENDMDL
MODEL 3
REMARK VINA RESULT:      -7.7      1.039      1.179
REMARK  Name = 
REMARK  10 active torsions:
REMARK  status: ('A' for Active; 'I' for Inactive)
REMARK    1  A    between atoms: C_1  and  C_2
REMARK    2  A    between atoms: C_6  and  C_7
REMARK    3  A    between atoms: C_9  and  C_11
REMARK    4  A    between atoms: C_11  and  O_12
REMARK    5  A    between atoms: O_12  and  C_13
REMARK    6  A    between atoms: C_16  and  C_17
REMARK    7  A    between atoms: N_19  and  N_20
REMARK    8  A    between atoms: C_21  and  C_22
REMARK    9  A    between atoms: C_25  and  C_26
REMARK   10  A    between atoms: C_26  and  O_28
REMARK                            x       y       z     vdW  Elec       q    Type
REMARK                         _______ _______ _______ _____ _____    ______ ____
ROOT
ATOM      1  C   UNL     1       2.689   7.383  18.584  0.00  0.00    +0.000 A 
ATOM      2  C   UNL     1       2.098   8.570  18.161  0.00  0.00    +0.000 A 
ATOM      3  C   UNL     1       1.280   9.299  19.027  0.00  0.00    +0.000 A 
ATOM      4  C   UNL     1       1.026   8.858  20.334  0.00  0.00    +0.000 A 
ATOM      5  C   UNL     1       1.607   7.654  20.753  0.00  0.00    +0.000 A 
ATOM      6  C   UNL     1       2.427   6.921  19.876  0.00  0.00    +0.000 A 
ENDROOT
BRANCH   4   7
ATOM      7  C   UNL     1       0.139   9.727  21.173  0.00  0.00    +0.000 C 
ATOM      8  O   UNL     1      -0.419   9.228  22.155  0.00  0.00    +0.000 OA
ATOM      9  N   UNL     1      -0.008  11.060  20.809  0.00  0.00    +0.000 N 
ATOM     10  H   UNL     1       0.481  11.463  20.019  0.00  0.00    +0.000 HD
BRANCH   9  11
ATOM     11  N   UNL     1      -0.805  11.864  21.574  0.00  0.00    +0.000 NA
ATOM     12  C   UNL     1      -2.002  12.079  21.137  0.00  0.00    +0.000 C 
BRANCH  12  13
ATOM     13  C   UNL     1      -2.929  12.976  21.859  0.00  0.00    +0.000 A 
ATOM     14  C   UNL     1      -3.336  12.629  23.148  0.00  0.00    +0.000 A 
ATOM     15  C   UNL     1      -4.239  13.449  23.832  0.00  0.00    +0.000 A 
ATOM     16  C   UNL     1      -4.729  14.624  23.240  0.00  0.00    +0.000 A 
ATOM     17  C   UNL     1      -4.294  14.981  21.956  0.00  0.00    +0.000 A 
ATOM     18  C   UNL     1      -3.406  14.149  21.262  0.00  0.00    +0.000 A 
BRANCH  16  19
ATOM     19  C   UNL     1      -5.656  15.465  24.045  0.00  0.00    +0.000 C 
ATOM     20  O   UNL     1      -5.320  16.540  24.513  0.00  0.00    +0.000 OA
BRANCH  19  21
ATOM     21  O   UNL     1      -6.877  14.929  24.248  0.00  0.00    +0.000 OA
ATOM     22  H   UNL     1      -7.556  15.531  24.599  0.00  0.00    +0.000 HD
ENDBRANCH  19  21
ENDBRANCH  16  19
ENDBRANCH  12  13
ENDBRANCH   9  11
ENDBRANCH   4   7
BRANCH   1  23
ATOM     23  O   UNL     1       3.489   6.590  17.804  0.00  0.00    +0.000 OA
BRANCH  23  24
ATOM     24  C   UNL     1       2.977   5.289  17.522  0.00  0.00    +0.000 C 
BRANCH  24  33
ATOM     25  C   UNL     1       0.637   2.323  18.547  0.00  0.00    +0.000 C 
ATOM     26  C   UNL     1       1.325   3.531  19.197  0.00  0.00    +0.000 C 
ATOM     27  C   UNL     1       0.827   3.788  20.624  0.00  0.00    +0.000 C 
ATOM     28  C   UNL     1       1.319   2.725  21.598  0.00  0.00    +0.000 C 
ATOM     29  C   UNL     1       2.837   2.589  21.529  0.00  0.00    +0.000 C 
ATOM     30  C   UNL     1       3.342   2.351  20.092  0.00  0.00    +0.000 C 
ATOM     31  C   UNL     1       4.858   2.144  20.142  0.00  0.00    +0.000 C 
ATOM     32  N   UNL     1       2.803   3.403  19.188  0.00  0.00    +0.000 N 
ATOM     33  C   UNL     1       3.628   4.202  18.385  0.00  0.00    +0.000 C 
ATOM     34  O   UNL     1       4.849   4.052  18.294  0.00  0.00    +0.000 OA
ENDBRANCH  24  33
ENDBRANCH  23  24
ENDBRANCH   1  23
TORSDOF 8
ENDMDL
MODEL 4
REMARK VINA RESULT:      -7.6      1.120      1.736
REMARK  Name = 
REMARK  10 active torsions:
REMARK  status: ('A' for Active; 'I' for Inactive)
REMARK    1  A    between atoms: C_1  and  C_2
REMARK    2  A    between atoms: C_6  and  C_7
REMARK    3  A    between atoms: C_9  and  C_11
REMARK    4  A    between atoms: C_11  and  O_12
REMARK    5  A    between atoms: O_12  and  C_13
REMARK    6  A    between atoms: C_16  and  C_17
REMARK    7  A    between atoms: N_19  and  N_20
REMARK    8  A    between atoms: C_21  and  C_22
REMARK    9  A    between atoms: C_25  and  C_26
REMARK   10  A    between atoms: C_26  and  O_28
REMARK                            x       y       z     vdW  Elec       q    Type
REMARK                         _______ _______ _______ _____ _____    ______ ____
ROOT
ATOM      1  C   UNL     1       2.981   7.013  18.290  0.00  0.00    +0.000 A 
ATOM      2  C   UNL     1       2.663   6.732  19.616  0.00  0.00    +0.000 A 
ATOM      3  C   UNL     1       1.871   7.613  20.354  0.00  0.00    +0.000 A 
ATOM      4  C   UNL     1       1.382   8.801  19.790  0.00  0.00    +0.000 A 
ATOM      5  C   UNL     1       1.717   9.092  18.461  0.00  0.00    +0.000 A 
ATOM      6  C   UNL     1       2.519   8.202  17.723  0.00  0.00    +0.000 A 
ENDROOT
BRANCH   4   7
ATOM      7  C   UNL     1       0.537   9.665  20.676  0.00  0.00    +0.000 C 
ATOM      8  O   UNL     1       0.523   9.433  21.888  0.00  0.00    +0.000 OA
ATOM      9  N   UNL     1      -0.190  10.694  20.089  0.00  0.00    +0.000 N 
ATOM     10  H   UNL     1      -0.145  10.892  19.097  0.00  0.00    +0.000 HD
BRANCH   9  11
ATOM     11  N   UNL     1      -0.956  11.495  20.889  0.00  0.00    +0.000 NA
ATOM     12  C   UNL     1      -0.363  12.500  21.441  0.00  0.00    +0.000 C 
BRANCH  12  13
ATOM     13  C   UNL     1      -1.085  13.399  22.367  0.00  0.00    +0.000 A 
ATOM     14  C   UNL     1      -0.473  14.588  22.768  0.00  0.00    +0.000 A 
ATOM     15  C   UNL     1      -1.128  15.433  23.669  0.00  0.00    +0.000 A 
ATOM     16  C   UNL     1      -2.400  15.104  24.164  0.00  0.00    +0.000 A 
ATOM     17  C   UNL     1      -3.021  13.923  23.735  0.00  0.00    +0.000 A 
ATOM     18  C   UNL     1      -2.356  13.065  22.849  0.00  0.00    +0.000 A 
BRANCH  16  19
ATOM     19  C   UNL     1      -3.050  16.072  25.089  0.00  0.00    +0.000 C 
ATOM     20  O   UNL     1      -2.407  16.843  25.780  0.00  0.00    +0.000 OA
BRANCH  19  21
ATOM     21  O   UNL     1      -4.396  16.001  25.130  0.00  0.00    +0.000 OA
ATOM     22  H   UNL     1      -4.876  16.757  24.749  0.00  0.00    +0.000 HD
ENDBRANCH  19  21
ENDBRANCH  16  19
ENDBRANCH  12  13
ENDBRANCH   9  11
ENDBRANCH   4   7
BRANCH   1  23
ATOM     23  O   UNL     1       3.765   6.221  17.492  0.00  0.00    +0.000 OA
BRANCH  23  24
ATOM     24  C   UNL     1       3.278   4.898  17.274  0.00  0.00    +0.000 C 
BRANCH  24  33
ATOM     25  C   UNL     1       0.711   2.209  18.502  0.00  0.00    +0.000 C 
ATOM     26  C   UNL     1       1.429   3.454  19.041  0.00  0.00    +0.000 C 
ATOM     27  C   UNL     1       0.863   3.915  20.389  0.00  0.00    +0.000 C 
ATOM     28  C   UNL     1       1.232   2.962  21.518  0.00  0.00    +0.000 C 
ATOM     29  C   UNL     1       2.741   2.743  21.568  0.00  0.00    +0.000 C 
ATOM     30  C   UNL     1       3.316   2.297  20.209  0.00  0.00    +0.000 C 
ATOM     31  C   UNL     1       4.812   2.022  20.385  0.00  0.00    +0.000 C 
ATOM     32  N   UNL     1       2.895   3.251  19.146  0.00  0.00    +0.000 N 
ATOM     33  C   UNL     1       3.812   3.898  18.307  0.00  0.00    +0.000 C 
ATOM     34  O   UNL     1       5.025   3.676  18.317  0.00  0.00    +0.000 OA
ENDBRANCH  24  33
ENDBRANCH  23  24
ENDBRANCH   1  23
TORSDOF 8
ENDMDL
MODEL 5
REMARK VINA RESULT:      -7.6      3.090     12.131
REMARK  Name = 
REMARK  10 active torsions:
REMARK  status: ('A' for Active; 'I' for Inactive)
REMARK    1  A    between atoms: C_1  and  C_2
REMARK    2  A    between atoms: C_6  and  C_7
REMARK    3  A    between atoms: C_9  and  C_11
REMARK    4  A    between atoms: C_11  and  O_12
REMARK    5  A    between atoms: O_12  and  C_13
REMARK    6  A    between atoms: C_16  and  C_17
REMARK    7  A    between atoms: N_19  and  N_20
REMARK    8  A    between atoms: C_21  and  C_22
REMARK    9  A    between atoms: C_25  and  C_26
REMARK   10  A    between atoms: C_26  and  O_28
REMARK                            x       y       z     vdW  Elec       q    Type
REMARK                         _______ _______ _______ _____ _____    ______ ____
ROOT
ATOM      1  C   UNL     1      -0.879  11.096  22.674  0.00  0.00    +0.000 A 
ATOM      2  C   UNL     1      -0.640  11.690  21.437  0.00  0.00    +0.000 A 
ATOM      3  C   UNL     1       0.037  10.989  20.436  0.00  0.00    +0.000 A 
ATOM      4  C   UNL     1       0.499   9.682  20.647  0.00  0.00    +0.000 A 
ATOM      5  C   UNL     1       0.274   9.092  21.897  0.00  0.00    +0.000 A 
ATOM      6  C   UNL     1      -0.405   9.803  22.904  0.00  0.00    +0.000 A 
ENDROOT
BRANCH   4   7
ATOM      7  C   UNL     1       1.205   9.028  19.498  0.00  0.00    +0.000 C 
ATOM      8  O   UNL     1       1.337   9.663  18.448  0.00  0.00    +0.000 OA
ATOM      9  N   UNL     1       1.685   7.735  19.673  0.00  0.00    +0.000 N 
ATOM     10  H   UNL     1       1.596   7.238  20.551  0.00  0.00    +0.000 HD
BRANCH   9  11
ATOM     11  N   UNL     1       2.340   7.134  18.635  0.00  0.00    +0.000 NA
ATOM     12  C   UNL     1       3.576   6.817  18.835  0.00  0.00    +0.000 C 
BRANCH  12  13
ATOM     13  C   UNL     1       4.392   6.211  17.762  0.00  0.00    +0.000 A 
ATOM     14  C   UNL     1       5.547   6.871  17.337  0.00  0.00    +0.000 A 
ATOM     15  C   UNL     1       6.312   6.328  16.301  0.00  0.00    +0.000 A 
ATOM     16  C   UNL     1       5.938   5.119  15.692  0.00  0.00    +0.000 A 
ATOM     17  C   UNL     1       4.793   4.447  16.142  0.00  0.00    +0.000 A 
ATOM     18  C   UNL     1       4.014   5.002  17.167  0.00  0.00    +0.000 A 
BRANCH  16  19
ATOM     19  C   UNL     1       6.824   4.585  14.622  0.00  0.00    +0.000 C 
ATOM     20  O   UNL     1       7.788   5.205  14.205  0.00  0.00    +0.000 OA
BRANCH  19  21
ATOM     21  O   UNL     1       6.454   3.386  14.127  0.00  0.00    +0.000 OA
ATOM     22  H   UNL     1       5.680   2.971  14.544  0.00  0.00    +0.000 HD
ENDBRANCH  19  21
ENDBRANCH  16  19
ENDBRANCH  12  13
ENDBRANCH   9  11
ENDBRANCH   4   7
BRANCH   1  23
ATOM     23  O   UNL     1      -1.516  11.708  23.721  0.00  0.00    +0.000 OA
BRANCH  23  24
ATOM     24  C   UNL     1      -2.218  12.906  23.397  0.00  0.00    +0.000 C 
BRANCH  24  33
ATOM     25  C   UNL     1      -4.521  14.633  20.744  0.00  0.00    +0.000 C 
ATOM     26  C   UNL     1      -4.083  14.833  22.201  0.00  0.00    +0.000 C 
ATOM     27  C   UNL     1      -4.508  16.199  22.754  0.00  0.00    +0.000 C 
ATOM     28  C   UNL     1      -6.013  16.278  22.981  0.00  0.00    +0.000 C 
ATOM     29  C   UNL     1      -6.488  15.124  23.857  0.00  0.00    +0.000 C 
ATOM     30  C   UNL     1      -6.046  13.751  23.313  0.00  0.00    +0.000 C 
ATOM     31  C   UNL     1      -6.642  12.662  24.210  0.00  0.00    +0.000 C 
ATOM     32  N   UNL     1      -4.575  13.749  23.086  0.00  0.00    +0.000 N 
ATOM     33  C   UNL     1      -3.725  12.793  23.656  0.00  0.00    +0.000 C 
ATOM     34  O   UNL     1      -4.121  11.831  24.319  0.00  0.00    +0.000 OA
ENDBRANCH  24  33
ENDBRANCH  23  24
ENDBRANCH   1  23
TORSDOF 8
ENDMDL
MODEL 6
REMARK VINA RESULT:      -7.5      1.591      2.031
REMARK  Name = 
REMARK  10 active torsions:
REMARK  status: ('A' for Active; 'I' for Inactive)
REMARK    1  A    between atoms: C_1  and  C_2
REMARK    2  A    between atoms: C_6  and  C_7
REMARK    3  A    between atoms: C_9  and  C_11
REMARK    4  A    between atoms: C_11  and  O_12
REMARK    5  A    between atoms: O_12  and  C_13
REMARK    6  A    between atoms: C_16  and  C_17
REMARK    7  A    between atoms: N_19  and  N_20
REMARK    8  A    between atoms: C_21  and  C_22
REMARK    9  A    between atoms: C_25  and  C_26
REMARK   10  A    between atoms: C_26  and  O_28
REMARK                            x       y       z     vdW  Elec       q    Type
REMARK                         _______ _______ _______ _____ _____    ______ ____
ROOT
ATOM      1  C   UNL     1       2.849   7.369  18.493  0.00  0.00    +0.000 A 
ATOM      2  C   UNL     1       2.387   7.189  19.794  0.00  0.00    +0.000 A 
ATOM      3  C   UNL     1       1.488   8.098  20.355  0.00  0.00    +0.000 A 
ATOM      4  C   UNL     1       1.033   9.213  19.635  0.00  0.00    +0.000 A 
ATOM      5  C   UNL     1       1.512   9.402  18.333  0.00  0.00    +0.000 A 
ATOM      6  C   UNL     1       2.420   8.486  17.773  0.00  0.00    +0.000 A 
ENDROOT
BRANCH   4   7
ATOM      7  C   UNL     1       0.064  10.114  20.339  0.00  0.00    +0.000 C 
ATOM      8  O   UNL     1      -0.255   9.846  21.500  0.00  0.00    +0.000 OA
ATOM      9  N   UNL     1      -0.426  11.217  19.649  0.00  0.00    +0.000 N 
ATOM     10  H   UNL     1      -0.131  11.441  18.707  0.00  0.00    +0.000 HD
BRANCH   9  11
ATOM     11  N   UNL     1      -1.302  12.051  20.284  0.00  0.00    +0.000 NA
ATOM     12  C   UNL     1      -2.504  12.098  19.814  0.00  0.00    +0.000 C 
BRANCH  12  13
ATOM     13  C   UNL     1      -3.517  13.007  20.393  0.00  0.00    +0.000 A 
ATOM     14  C   UNL     1      -3.107  14.249  20.880  0.00  0.00    +0.000 A 
ATOM     15  C   UNL     1      -4.046  15.107  21.461  0.00  0.00    +0.000 A 
ATOM     16  C   UNL     1      -5.397  14.736  21.547  0.00  0.00    +0.000 A 
ATOM     17  C   UNL     1      -5.806  13.500  21.030  0.00  0.00    +0.000 A 
ATOM     18  C   UNL     1      -4.863  12.630  20.467  0.00  0.00    +0.000 A 
BRANCH  16  19
ATOM     19  C   UNL     1      -6.343  15.719  22.143  0.00  0.00    +0.000 C 
ATOM     20  O   UNL     1      -6.003  16.850  22.445  0.00  0.00    +0.000 OA
BRANCH  19  21
ATOM     21  O   UNL     1      -7.589  15.248  22.358  0.00  0.00    +0.000 OA
ATOM     22  H   UNL     1      -8.249  15.457  21.675  0.00  0.00    +0.000 HD
ENDBRANCH  19  21
ENDBRANCH  16  19
ENDBRANCH  12  13
ENDBRANCH   9  11
ENDBRANCH   4   7
BRANCH   1  23
ATOM     23  O   UNL     1       3.744   6.544  17.863  0.00  0.00    +0.000 OA
BRANCH  23  24
ATOM     24  C   UNL     1       3.252   5.249  17.524  0.00  0.00    +0.000 C 
BRANCH  24  33
ATOM     25  C   UNL     1       0.715   2.437  18.514  0.00  0.00    +0.000 C 
ATOM     26  C   UNL     1       1.439   3.623  19.165  0.00  0.00    +0.000 C 
ATOM     27  C   UNL     1       0.896   3.941  20.563  0.00  0.00    +0.000 C 
ATOM     28  C   UNL     1       1.289   2.878  21.582  0.00  0.00    +0.000 C 
ATOM     29  C   UNL     1       2.799   2.662  21.582  0.00  0.00    +0.000 C 
ATOM     30  C   UNL     1       3.350   2.361  20.174  0.00  0.00    +0.000 C 
ATOM     31  C   UNL     1       4.850   2.077  20.295  0.00  0.00    +0.000 C 
ATOM     32  N   UNL     1       2.908   3.417  19.224  0.00  0.00    +0.000 N 
ATOM     33  C   UNL     1       3.807   4.152  18.439  0.00  0.00    +0.000 C 
ATOM     34  O   UNL     1       5.020   3.935  18.404  0.00  0.00    +0.000 OA
ENDBRANCH  24  33
ENDBRANCH  23  24
ENDBRANCH   1  23
TORSDOF 8
ENDMDL
MODEL 7
REMARK VINA RESULT:      -7.5      7.260      9.244
REMARK  Name = 
REMARK  10 active torsions:
REMARK  status: ('A' for Active; 'I' for Inactive)
REMARK    1  A    between atoms: C_1  and  C_2
REMARK    2  A    between atoms: C_6  and  C_7
REMARK    3  A    between atoms: C_9  and  C_11
REMARK    4  A    between atoms: C_11  and  O_12
REMARK    5  A    between atoms: O_12  and  C_13
REMARK    6  A    between atoms: C_16  and  C_17
REMARK    7  A    between atoms: N_19  and  N_20
REMARK    8  A    between atoms: C_21  and  C_22
REMARK    9  A    between atoms: C_25  and  C_26
REMARK   10  A    between atoms: C_26  and  O_28
REMARK                            x       y       z     vdW  Elec       q    Type
REMARK                         _______ _______ _______ _____ _____    ______ ____
ROOT
ATOM      1  C   UNL     1       6.198   5.142  17.503  0.00  0.00    +0.000 A 
ATOM      2  C   UNL     1       5.930   6.328  16.824  0.00  0.00    +0.000 A 
ATOM      3  C   UNL     1       6.643   7.490  17.125  0.00  0.00    +0.000 A 
ATOM      4  C   UNL     1       7.635   7.501  18.117  0.00  0.00    +0.000 A 
ATOM      5  C   UNL     1       7.891   6.312  18.812  0.00  0.00    +0.000 A 
ATOM      6  C   UNL     1       7.168   5.144  18.507  0.00  0.00    +0.000 A 
ENDROOT
BRANCH   4   7
ATOM      7  C   UNL     1       8.337   8.804  18.348  0.00  0.00    +0.000 C 
ATOM      8  O   UNL     1       9.156   8.879  19.268  0.00  0.00    +0.000 OA
ATOM      9  N   UNL     1       8.037   9.869  17.506  0.00  0.00    +0.000 N 
ATOM     10  H   UNL     1       7.386   9.784  16.735  0.00  0.00    +0.000 HD
BRANCH   9  11
ATOM     11  N   UNL     1       8.680  11.059  17.700  0.00  0.00    +0.000 NA
ATOM     12  C   UNL     1       7.972  12.131  17.558  0.00  0.00    +0.000 C 
BRANCH  12  13
ATOM     13  C   UNL     1       8.581  13.471  17.693  0.00  0.00    +0.000 A 
ATOM     14  C   UNL     1       9.971  13.590  17.638  0.00  0.00    +0.000 A 
ATOM     15  C   UNL     1      10.564  14.846  17.797  0.00  0.00    +0.000 A 
ATOM     16  C   UNL     1       9.775  15.989  18.000  0.00  0.00    +0.000 A 
ATOM     17  C   UNL     1       8.379  15.868  18.026  0.00  0.00    +0.000 A 
ATOM     18  C   UNL     1       7.784  14.606  17.888  0.00  0.00    +0.000 A 
BRANCH  16  19
ATOM     19  C   UNL     1      10.477  17.296  18.122  0.00  0.00    +0.000 C 
ATOM     20  O   UNL     1      10.856  17.734  19.196  0.00  0.00    +0.000 OA
BRANCH  19  21
ATOM     21  O   UNL     1      10.625  17.971  16.964  0.00  0.00    +0.000 OA
ATOM     22  H   UNL     1      11.409  17.745  16.434  0.00  0.00    +0.000 HD
ENDBRANCH  19  21
ENDBRANCH  16  19
ENDBRANCH  12  13
ENDBRANCH   9  11
ENDBRANCH   4   7
BRANCH   1  23
ATOM     23  O   UNL     1       5.541   3.958  17.292  0.00  0.00    +0.000 OA
BRANCH  23  24
ATOM     24  C   UNL     1       4.355   4.047  16.505  0.00  0.00    +0.000 C 
BRANCH  24  33
ATOM     25  C   UNL     1       2.008   6.773  18.048  0.00  0.00    +0.000 C 
ATOM     26  C   UNL     1       2.997   5.698  18.518  0.00  0.00    +0.000 C 
ATOM     27  C   UNL     1       3.326   5.822  20.010  0.00  0.00    +0.000 C 
ATOM     28  C   UNL     1       2.149   5.413  20.888  0.00  0.00    +0.000 C 
ATOM     29  C   UNL     1       1.657   4.018  20.516  0.00  0.00    +0.000 C 
ATOM     30  C   UNL     1       1.345   3.886  19.012  0.00  0.00    +0.000 C 
ATOM     31  C   UNL     1       0.780   2.485  18.758  0.00  0.00    +0.000 C 
ATOM     32  N   UNL     1       2.520   4.327  18.212  0.00  0.00    +0.000 N 
ATOM     33  C   UNL     1       3.120   3.515  17.242  0.00  0.00    +0.000 C 
ATOM     34  O   UNL     1       2.685   2.410  16.908  0.00  0.00    +0.000 OA
ENDBRANCH  24  33
ENDBRANCH  23  24
ENDBRANCH   1  23
TORSDOF 8
ENDMDL
MODEL 8
REMARK VINA RESULT:      -7.5      7.323      9.376
REMARK  Name = 
REMARK  10 active torsions:
REMARK  status: ('A' for Active; 'I' for Inactive)
REMARK    1  A    between atoms: C_1  and  C_2
REMARK    2  A    between atoms: C_6  and  C_7
REMARK    3  A    between atoms: C_9  and  C_11
REMARK    4  A    between atoms: C_11  and  O_12
REMARK    5  A    between atoms: O_12  and  C_13
REMARK    6  A    between atoms: C_16  and  C_17
REMARK    7  A    between atoms: N_19  and  N_20
REMARK    8  A    between atoms: C_21  and  C_22
REMARK    9  A    between atoms: C_25  and  C_26
REMARK   10  A    between atoms: C_26  and  O_28
REMARK                            x       y       z     vdW  Elec       q    Type
REMARK                         _______ _______ _______ _____ _____    ______ ____
ROOT
ATOM      1  C   UNL     1       6.812   5.892  17.683  0.00  0.00    +0.000 A 
ATOM      2  C   UNL     1       6.632   7.037  16.912  0.00  0.00    +0.000 A 
ATOM      3  C   UNL     1       7.311   8.216  17.228  0.00  0.00    +0.000 A 
ATOM      4  C   UNL     1       8.182   8.283  18.326  0.00  0.00    +0.000 A 
ATOM      5  C   UNL     1       8.350   7.135  19.111  0.00  0.00    +0.000 A 
ATOM      6  C   UNL     1       7.661   5.952  18.791  0.00  0.00    +0.000 A 
ENDROOT
BRANCH   4   7
ATOM      7  C   UNL     1       8.860   9.598  18.562  0.00  0.00    +0.000 C 
ATOM      8  O   UNL     1       8.909  10.413  17.636  0.00  0.00    +0.000 OA
ATOM      9  N   UNL     1       9.399   9.842  19.820  0.00  0.00    +0.000 N 
ATOM     10  H   UNL     1       9.324   9.176  20.580  0.00  0.00    +0.000 HD
BRANCH   9  11
ATOM     11  N   UNL     1      10.010  11.042  20.050  0.00  0.00    +0.000 NA
ATOM     12  C   UNL     1       9.324  11.929  20.691  0.00  0.00    +0.000 C 
BRANCH  12  13
ATOM     13  C   UNL     1       9.870  13.279  20.947  0.00  0.00    +0.000 A 
ATOM     14  C   UNL     1      10.798  13.813  20.050  0.00  0.00    +0.000 A 
ATOM     15  C   UNL     1      11.349  15.074  20.294  0.00  0.00    +0.000 A 
ATOM     16  C   UNL     1      10.969  15.814  21.425  0.00  0.00    +0.000 A 
ATOM     17  C   UNL     1      10.016  15.286  22.306  0.00  0.00    +0.000 A 
ATOM     18  C   UNL     1       9.478  14.012  22.073  0.00  0.00    +0.000 A 
BRANCH  16  19
ATOM     19  C   UNL     1      11.570  17.165  21.596  0.00  0.00    +0.000 C 
ATOM     20  O   UNL     1      12.114  17.509  22.632  0.00  0.00    +0.000 OA
BRANCH  19  21
ATOM     21  O   UNL     1      11.432  17.986  20.535  0.00  0.00    +0.000 OA
ATOM     22  H   UNL     1      10.566  17.971  20.092  0.00  0.00    +0.000 HD
ENDBRANCH  19  21
ENDBRANCH  16  19
ENDBRANCH  12  13
ENDBRANCH   9  11
ENDBRANCH   4   7
BRANCH   1  23
ATOM     23  O   UNL     1       6.178   4.698  17.464  0.00  0.00    +0.000 OA
BRANCH  23  24
ATOM     24  C   UNL     1       4.817   4.793  17.049  0.00  0.00    +0.000 C 
BRANCH  24  33
ATOM     25  C   UNL     1       4.464   2.150  19.916  0.00  0.00    +0.000 C 
ATOM     26  C   UNL     1       3.626   2.731  18.769  0.00  0.00    +0.000 C 
ATOM     27  C   UNL     1       2.334   1.940  18.532  0.00  0.00    +0.000 C 
ATOM     28  C   UNL     1       1.323   2.154  19.652  0.00  0.00    +0.000 C 
ATOM     29  C   UNL     1       1.061   3.641  19.866  0.00  0.00    +0.000 C 
ATOM     30  C   UNL     1       2.360   4.442  20.085  0.00  0.00    +0.000 C 
ATOM     31  C   UNL     1       1.986   5.898  20.375  0.00  0.00    +0.000 C 
ATOM     32  N   UNL     1       3.314   4.167  18.976  0.00  0.00    +0.000 N 
ATOM     33  C   UNL     1       3.880   5.185  18.198  0.00  0.00    +0.000 C 
ATOM     34  O   UNL     1       3.706   6.387  18.411  0.00  0.00    +0.000 OA
ENDBRANCH  24  33
ENDBRANCH  23  24
ENDBRANCH   1  23
TORSDOF 8
ENDMDL
MODEL 9
REMARK VINA RESULT:      -7.5      2.178      3.602
REMARK  Name = 
REMARK  10 active torsions:
REMARK  status: ('A' for Active; 'I' for Inactive)
REMARK    1  A    between atoms: C_1  and  C_2
REMARK    2  A    between atoms: C_6  and  C_7
REMARK    3  A    between atoms: C_9  and  C_11
REMARK    4  A    between atoms: C_11  and  O_12
REMARK    5  A    between atoms: O_12  and  C_13
REMARK    6  A    between atoms: C_16  and  C_17
REMARK    7  A    between atoms: N_19  and  N_20
REMARK    8  A    between atoms: C_21  and  C_22
REMARK    9  A    between atoms: C_25  and  C_26
REMARK   10  A    between atoms: C_26  and  O_28
REMARK                            x       y       z     vdW  Elec       q    Type
REMARK                         _______ _______ _______ _____ _____    ______ ____
ROOT
ATOM      1  C   UNL     1       2.293   6.368  18.929  0.00  0.00    +0.000 A 
ATOM      2  C   UNL     1       1.893   6.326  20.262  0.00  0.00    +0.000 A 
ATOM      3  C   UNL     1       1.440   7.483  20.900  0.00  0.00    +0.000 A 
ATOM      4  C   UNL     1       1.382   8.712  20.225  0.00  0.00    +0.000 A 
ATOM      5  C   UNL     1       1.801   8.756  18.889  0.00  0.00    +0.000 A 
ATOM      6  C   UNL     1       2.260   7.589  18.252  0.00  0.00    +0.000 A 
ENDROOT
BRANCH   4   7
ATOM      7  C   UNL     1       0.872   9.883  21.009  0.00  0.00    +0.000 C 
ATOM      8  O   UNL     1       1.046  11.018  20.557  0.00  0.00    +0.000 OA
ATOM      9  N   UNL     1       0.218   9.633  22.211  0.00  0.00    +0.000 N 
ATOM     10  H   UNL     1       0.055   8.695  22.554  0.00  0.00    +0.000 HD
BRANCH   9  11
ATOM     11  N   UNL     1      -0.261  10.693  22.928  0.00  0.00    +0.000 NA
ATOM     12  C   UNL     1      -1.325  11.267  22.475  0.00  0.00    +0.000 C 
BRANCH  12  13
ATOM     13  C   UNL     1      -1.896  12.455  23.144  0.00  0.00    +0.000 A 
ATOM     14  C   UNL     1      -1.109  13.602  23.271  0.00  0.00    +0.000 A 
ATOM     15  C   UNL     1      -1.622  14.723  23.931  0.00  0.00    +0.000 A 
ATOM     16  C   UNL     1      -2.924  14.710  24.456  0.00  0.00    +0.000 A 
ATOM     17  C   UNL     1      -3.719  13.566  24.301  0.00  0.00    +0.000 A 
ATOM     18  C   UNL     1      -3.198  12.435  23.658  0.00  0.00    +0.000 A 
BRANCH  16  19
ATOM     19  C   UNL     1      -3.413  15.954  25.111  0.00  0.00    +0.000 C 
ATOM     20  O   UNL     1      -2.679  16.680  25.760  0.00  0.00    +0.000 OA
BRANCH  19  21
ATOM     21  O   UNL     1      -4.733  16.192  24.963  0.00  0.00    +0.000 OA
ATOM     22  H   UNL     1      -5.130  16.812  25.599  0.00  0.00    +0.000 HD
ENDBRANCH  19  21
ENDBRANCH  16  19
ENDBRANCH  12  13
ENDBRANCH   9  11
ENDBRANCH   4   7
BRANCH   1  23
ATOM     23  O   UNL     1       2.769   5.293  18.225  0.00  0.00    +0.000 OA
BRANCH  23  24
ATOM     24  C   UNL     1       3.597   4.395  18.961  0.00  0.00    +0.000 C 
BRANCH  24  33
ATOM     25  C   UNL     1       4.714   6.590  15.919  0.00  0.00    +0.000 C 
ATOM     26  C   UNL     1       4.918   5.167  16.455  0.00  0.00    +0.000 C 
ATOM     27  C   UNL     1       5.606   4.253  15.434  0.00  0.00    +0.000 C 
ATOM     28  C   UNL     1       7.074   4.612  15.246  0.00  0.00    +0.000 C 
ATOM     29  C   UNL     1       7.801   4.633  16.587  0.00  0.00    +0.000 C 
ATOM     30  C   UNL     1       7.101   5.536  17.622  0.00  0.00    +0.000 C 
ATOM     31  C   UNL     1       7.949   5.557  18.897  0.00  0.00    +0.000 C 
ATOM     32  N   UNL     1       5.667   5.154  17.736  0.00  0.00    +0.000 N 
ATOM     33  C   UNL     1       5.070   4.819  18.958  0.00  0.00    +0.000 C 
ATOM     34  O   UNL     1       5.649   4.890  20.045  0.00  0.00    +0.000 OA
ENDBRANCH  24  33
ENDBRANCH  23  24
ENDBRANCH   1  23
TORSDOF 8
ENDMDL
