MODEL 1
REMARK VINA RESULT:      -8.1      0.000      0.000
REMARK  Name = 
REMARK  8 active torsions:
REMARK  status: ('A' for Active; 'I' for Inactive)
REMARK    1  A    between atoms: C_1  and  N_2
REMARK    2  A    between atoms: N_5  and  C_6
REMARK    3  A    between atoms: C_6  and  C_7
REMARK    4  A    between atoms: C_7  and  C_8
REMARK    5  A    between atoms: C_8  and  N_9
REMARK    6  A    between atoms: C_15  and  O_16
REMARK    7  A    between atoms: O_16  and  C_17
REMARK    8  A    between atoms: N_27  and  C_28
REMARK                            x       y       z     vdW  Elec       q    Type
REMARK                         _______ _______ _______ _____ _____    ______ ____
ROOT
ATOM      1  N   UNL     1      -0.641  12.767  21.760  0.00  0.00    +0.000 N 
ATOM      2  C   UNL     1      -0.122  11.500  21.541  0.00  0.00    +0.000 A 
ATOM      3  N   UNL     1      -0.263  10.624  22.543  0.00  0.00    +0.000 NA
ATOM      4  C   UNL     1       0.276   9.401  22.361  0.00  0.00    +0.000 A 
ATOM      5  C   UNL     1       0.935   9.020  21.217  0.00  0.00    +0.000 A 
ATOM      6  C   UNL     1       1.573   7.728  21.042  0.00  0.00    +0.000 A 
ATOM      7  C   UNL     1       2.185   7.427  19.887  0.00  0.00    +0.000 A 
ATOM      8  C   UNL     1       2.079   8.387  18.718  0.00  0.00    +0.000 A 
ATOM      9  O   UNL     1       2.413   8.044  17.585  0.00  0.00    +0.000 OA
ATOM     10  N   UNL     1       1.623   9.665  19.003  0.00  0.00    +0.000 N 
ATOM     11  C   UNL     1       1.674  10.703  17.987  0.00  0.00    +0.000 C 
ATOM     12  C   UNL     1       1.004   9.987  20.234  0.00  0.00    +0.000 A 
ATOM     13  N   UNL     1       0.490  11.219  20.388  0.00  0.00    +0.000 NA
ATOM     14  H   UNL     1      -1.298  12.669  22.526  0.00  0.00    +0.000 HD
ENDROOT
BRANCH   1  15
ATOM     15  C   UNL     1      -1.172  13.411  20.568  0.00  0.00    +0.000 C 
BRANCH  15  16
ATOM     16  C   UNL     1      -2.620  12.965  20.371  0.00  0.00    +0.000 C 
BRANCH  16  17
ATOM     17  C   UNL     1      -2.898  12.465  18.948  0.00  0.00    +0.000 C 
BRANCH  17  22
ATOM     18  C   UNL     1      -2.960  10.266  14.622  0.00  0.00    +0.000 C 
ATOM     19  N   UNL     1      -3.224  10.106  16.047  0.00  0.00    +0.000 NA
ATOM     20  C   UNL     1      -4.284  11.023  16.500  0.00  0.00    +0.000 C 
ATOM     21  C   UNL     1      -4.549  10.880  18.017  0.00  0.00    +0.000 C 
ATOM     22  N   UNL     1      -3.358  11.070  18.875  0.00  0.00    +0.000 NA
ATOM     23  C   UNL     1      -2.285  10.182  18.367  0.00  0.00    +0.000 C 
ATOM     24  C   UNL     1      -2.004  10.306  16.848  0.00  0.00    +0.000 C 
ENDBRANCH  17  22
ENDBRANCH  16  17
ENDBRANCH  15  16
ENDBRANCH   1  15
BRANCH   7  25
ATOM     25  O   UNL     1       2.857   6.208  19.790  0.00  0.00    +0.000 OA
BRANCH  25  26
ATOM     26  C   UNL     1       2.158   5.053  19.530  0.00  0.00    +0.000 A 
ATOM     27  C   UNL     1       1.352   4.405  20.473  0.00  0.00    +0.000 A 
ATOM     28  C   UNL     1       0.752   3.187  20.152  0.00  0.00    +0.000 A 
ATOM     29  C   UNL     1       0.909   2.658  18.874  0.00  0.00    +0.000 A 
ATOM     30  F   UNL     1       0.345   1.479  18.579  0.00  0.00    +0.000 F 
ATOM     31  C   UNL     1       1.636   3.331  17.902  0.00  0.00    +0.000 A 
ATOM     32  C   UNL     1       2.256   4.529  18.238  0.00  0.00    +0.000 A 
ATOM     33  F   UNL     1       2.961   5.179  17.299  0.00  0.00    +0.000 F 
ENDBRANCH  25  26
ENDBRANCH   7  25
TORSDOF 6
ENDMDL
MODEL 2
REMARK VINA RESULT:      -8.0      1.686      2.484
REMARK  Name = 
REMARK  8 active torsions:
REMARK  status: ('A' for Active; 'I' for Inactive)
REMARK    1  A    between atoms: C_1  and  N_2
REMARK    2  A    between atoms: N_5  and  C_6
REMARK    3  A    between atoms: C_6  and  C_7
REMARK    4  A    between atoms: C_7  and  C_8
REMARK    5  A    between atoms: C_8  and  N_9
REMARK    6  A    between atoms: C_15  and  O_16
REMARK    7  A    between atoms: O_16  and  C_17
REMARK    8  A    between atoms: N_27  and  C_28
REMARK                            x       y       z     vdW  Elec       q    Type
REMARK                         _______ _______ _______ _____ _____    ______ ____
ROOT
ATOM      1  N   UNL     1      -1.327  12.508  21.739  0.00  0.00    +0.000 N 
ATOM      2  C   UNL     1      -0.695  11.293  21.519  0.00  0.00    +0.000 A 
ATOM      3  N   UNL     1      -0.844  10.370  22.476  0.00  0.00    +0.000 NA
ATOM      4  C   UNL     1      -0.199   9.199  22.297  0.00  0.00    +0.000 A 
ATOM      5  C   UNL     1       0.573   8.915  21.197  0.00  0.00    +0.000 A 
ATOM      6  C   UNL     1       1.321   7.682  21.029  0.00  0.00    +0.000 A 
ATOM      7  C   UNL     1       2.042   7.474  19.917  0.00  0.00    +0.000 A 
ATOM      8  C   UNL     1       1.951   8.469  18.777  0.00  0.00    +0.000 A 
ATOM      9  O   UNL     1       2.395   8.197  17.663  0.00  0.00    +0.000 OA
ATOM     10  N   UNL     1       1.376   9.696  19.068  0.00  0.00    +0.000 N 
ATOM     11  C   UNL     1       1.424  10.775  18.094  0.00  0.00    +0.000 C 
ATOM     12  C   UNL     1       0.642   9.922  20.255  0.00  0.00    +0.000 A 
ATOM     13  N   UNL     1       0.023  11.105  20.409  0.00  0.00    +0.000 NA
ATOM     14  H   UNL     1      -2.031  12.330  22.447  0.00  0.00    +0.000 HD
ENDROOT
BRANCH   1  15
ATOM     15  C   UNL     1      -1.814  13.157  20.530  0.00  0.00    +0.000 C 
BRANCH  15  16
ATOM     16  C   UNL     1      -3.340  13.205  20.579  0.00  0.00    +0.000 C 
BRANCH  16  17
ATOM     17  C   UNL     1      -3.995  12.342  19.493  0.00  0.00    +0.000 C 
BRANCH  17  22
ATOM     18  C   UNL     1      -7.911   9.858  20.927  0.00  0.00    +0.000 C 
ATOM     19  N   UNL     1      -7.439  11.012  20.172  0.00  0.00    +0.000 NA
ATOM     20  C   UNL     1      -6.594  10.601  19.038  0.00  0.00    +0.000 C 
ATOM     21  C   UNL     1      -6.066  11.822  18.250  0.00  0.00    +0.000 C 
ATOM     22  N   UNL     1      -5.322  12.810  19.064  0.00  0.00    +0.000 NA
ATOM     23  C   UNL     1      -6.164  13.167  20.230  0.00  0.00    +0.000 C 
ATOM     24  C   UNL     1      -6.707  11.958  21.033  0.00  0.00    +0.000 C 
ENDBRANCH  17  22
ENDBRANCH  16  17
ENDBRANCH  15  16
ENDBRANCH   1  15
BRANCH   7  25
ATOM     25  O   UNL     1       2.812   6.313  19.832  0.00  0.00    +0.000 OA
BRANCH  25  26
ATOM     26  C   UNL     1       2.216   5.108  19.545  0.00  0.00    +0.000 A 
ATOM     27  C   UNL     1       1.398   4.413  20.444  0.00  0.00    +0.000 A 
ATOM     28  C   UNL     1       0.909   3.152  20.102  0.00  0.00    +0.000 A 
ATOM     29  C   UNL     1       1.187   2.623  18.845  0.00  0.00    +0.000 A 
ATOM     30  F   UNL     1       0.729   1.403  18.531  0.00  0.00    +0.000 F 
ATOM     31  C   UNL     1       1.926   3.336  17.913  0.00  0.00    +0.000 A 
ATOM     32  C   UNL     1       2.435   4.580  18.270  0.00  0.00    +0.000 A 
ATOM     33  F   UNL     1       3.153   5.269  17.369  0.00  0.00    +0.000 F 
ENDBRANCH  25  26
ENDBRANCH   7  25
TORSDOF 6
ENDMDL
MODEL 3
REMARK VINA RESULT:      -7.6      2.974      5.258
REMARK  Name = 
REMARK  8 active torsions:
REMARK  status: ('A' for Active; 'I' for Inactive)
REMARK    1  A    between atoms: C_1  and  N_2
REMARK    2  A    between atoms: N_5  and  C_6
REMARK    3  A    between atoms: C_6  and  C_7
REMARK    4  A    between atoms: C_7  and  C_8
REMARK    5  A    between atoms: C_8  and  N_9
REMARK    6  A    between atoms: C_15  and  O_16
REMARK    7  A    between atoms: O_16  and  C_17
REMARK    8  A    between atoms: N_27  and  C_28
REMARK                            x       y       z     vdW  Elec       q    Type
REMARK                         _______ _______ _______ _____ _____    ______ ____
ROOT
ATOM      1  N   UNL     1      -1.712  12.592  22.900  0.00  0.00    +0.000 N 
ATOM      2  C   UNL     1      -1.014  11.462  22.503  0.00  0.00    +0.000 A 
ATOM      3  N   UNL     1      -0.893  10.493  23.417  0.00  0.00    +0.000 NA
ATOM      4  C   UNL     1      -0.179   9.405  23.060  0.00  0.00    +0.000 A 
ATOM      5  C   UNL     1       0.402   9.248  21.825  0.00  0.00    +0.000 A 
ATOM      6  C   UNL     1       1.226   8.110  21.457  0.00  0.00    +0.000 A 
ATOM      7  C   UNL     1       1.747   8.023  20.224  0.00  0.00    +0.000 A 
ATOM      8  C   UNL     1       1.351   9.045  19.177  0.00  0.00    +0.000 A 
ATOM      9  O   UNL     1       1.608   8.864  17.988  0.00  0.00    +0.000 OA
ATOM     10  N   UNL     1       0.720  10.191  19.635  0.00  0.00    +0.000 N 
ATOM     11  C   UNL     1       0.482  11.305  18.731  0.00  0.00    +0.000 C 
ATOM     12  C   UNL     1       0.197  10.291  20.945  0.00  0.00    +0.000 A 
ATOM     13  N   UNL     1      -0.497  11.394  21.274  0.00  0.00    +0.000 NA
ATOM     14  H   UNL     1      -2.254  12.313  23.711  0.00  0.00    +0.000 HD
ENDROOT
BRANCH   1  15
ATOM     15  C   UNL     1      -2.475  13.231  21.837  0.00  0.00    +0.000 C 
BRANCH  15  16
ATOM     16  C   UNL     1      -2.051  14.695  21.739  0.00  0.00    +0.000 C 
BRANCH  16  17
ATOM     17  C   UNL     1      -1.445  15.226  23.044  0.00  0.00    +0.000 C 
BRANCH  17  22
ATOM     18  C   UNL     1       0.134  17.005  27.276  0.00  0.00    +0.000 C 
ATOM     19  N   UNL     1      -0.986  16.959  26.342  0.00  0.00    +0.000 NA
ATOM     20  C   UNL     1      -1.494  15.586  26.184  0.00  0.00    +0.000 C 
ATOM     21  C   UNL     1      -2.663  15.525  25.173  0.00  0.00    +0.000 C 
ATOM     22  N   UNL     1      -2.352  16.073  23.834  0.00  0.00    +0.000 NA
ATOM     23  C   UNL     1      -1.788  17.431  24.017  0.00  0.00    +0.000 C 
ATOM     24  C   UNL     1      -0.617  17.517  25.029  0.00  0.00    +0.000 C 
ENDBRANCH  17  22
ENDBRANCH  16  17
ENDBRANCH  15  16
ENDBRANCH   1  15
BRANCH   7  25
ATOM     25  O   UNL     1       2.600   6.956  19.938  0.00  0.00    +0.000 OA
BRANCH  25  26
ATOM     26  C   UNL     1       2.082   5.716  19.651  0.00  0.00    +0.000 A 
ATOM     27  C   UNL     1       1.413   4.918  20.588  0.00  0.00    +0.000 A 
ATOM     28  C   UNL     1       1.001   3.633  20.234  0.00  0.00    +0.000 A 
ATOM     29  C   UNL     1       1.201   3.178  18.935  0.00  0.00    +0.000 A 
ATOM     30  F   UNL     1       0.819   1.936  18.608  0.00  0.00    +0.000 F 
ATOM     31  C   UNL     1       1.787   3.988  17.972  0.00  0.00    +0.000 A 
ATOM     32  C   UNL     1       2.223   5.257  18.339  0.00  0.00    +0.000 A 
ATOM     33  F   UNL     1       2.792   6.039  17.409  0.00  0.00    +0.000 F 
ENDBRANCH  25  26
ENDBRANCH   7  25
TORSDOF 6
ENDMDL
MODEL 4
REMARK VINA RESULT:      -7.6      2.277      3.929
REMARK  Name = 
REMARK  8 active torsions:
REMARK  status: ('A' for Active; 'I' for Inactive)
REMARK    1  A    between atoms: C_1  and  N_2
REMARK    2  A    between atoms: N_5  and  C_6
REMARK    3  A    between atoms: C_6  and  C_7
REMARK    4  A    between atoms: C_7  and  C_8
REMARK    5  A    between atoms: C_8  and  N_9
REMARK    6  A    between atoms: C_15  and  O_16
REMARK    7  A    between atoms: O_16  and  C_17
REMARK    8  A    between atoms: N_27  and  C_28
REMARK                            x       y       z     vdW  Elec       q    Type
REMARK                         _______ _______ _______ _____ _____    ______ ____
ROOT
ATOM      1  N   UNL     1      -1.538  12.538  22.236  0.00  0.00    +0.000 N 
ATOM      2  C   UNL     1      -0.882  11.349  21.955  0.00  0.00    +0.000 A 
ATOM      3  N   UNL     1      -0.961  10.397  22.892  0.00  0.00    +0.000 NA
ATOM      4  C   UNL     1      -0.292   9.251  22.652  0.00  0.00    +0.000 A 
ATOM      5  C   UNL     1       0.437   9.019  21.511  0.00  0.00    +0.000 A 
ATOM      6  C   UNL     1       1.213   7.814  21.276  0.00  0.00    +0.000 A 
ATOM      7  C   UNL     1       1.888   7.657  20.127  0.00  0.00    +0.000 A 
ATOM      8  C   UNL     1       1.717   8.679  19.020  0.00  0.00    +0.000 A 
ATOM      9  O   UNL     1       2.119   8.450  17.881  0.00  0.00    +0.000 OA
ATOM     10  N   UNL     1       1.121   9.880  19.371  0.00  0.00    +0.000 N 
ATOM     11  C   UNL     1       1.094  10.985  18.426  0.00  0.00    +0.000 C 
ATOM     12  C   UNL     1       0.435  10.052  20.596  0.00  0.00    +0.000 A 
ATOM     13  N   UNL     1      -0.210  11.211  20.810  0.00  0.00    +0.000 NA
ATOM     14  H   UNL     1      -2.205  12.321  22.969  0.00  0.00    +0.000 HD
ENDROOT
BRANCH   1  15
ATOM     15  C   UNL     1      -2.098  13.204  21.069  0.00  0.00    +0.000 C 
BRANCH  15  16
ATOM     16  C   UNL     1      -2.037  14.715  21.289  0.00  0.00    +0.000 C 
BRANCH  16  17
ATOM     17  C   UNL     1      -0.603  15.258  21.275  0.00  0.00    +0.000 C 
BRANCH  17  22
ATOM     18  C   UNL     1       3.660  17.280  20.136  0.00  0.00    +0.000 C 
ATOM     19  N   UNL     1       2.814  16.104  19.972  0.00  0.00    +0.000 NA
ATOM     20  C   UNL     1       1.554  16.443  19.290  0.00  0.00    +0.000 C 
ATOM     21  C   UNL     1       0.638  15.206  19.139  0.00  0.00    +0.000 C 
ATOM     22  N   UNL     1       0.321  14.512  20.407  0.00  0.00    +0.000 NA
ATOM     23  C   UNL     1       1.598  14.231  21.105  0.00  0.00    +0.000 C 
ATOM     24  C   UNL     1       2.533  15.457  21.265  0.00  0.00    +0.000 C 
ENDBRANCH  17  22
ENDBRANCH  16  17
ENDBRANCH  15  16
ENDBRANCH   1  15
BRANCH   7  25
ATOM     25  O   UNL     1       2.687   6.522  19.977  0.00  0.00    +0.000 OA
BRANCH  25  26
ATOM     26  C   UNL     1       2.117   5.316  19.648  0.00  0.00    +0.000 A 
ATOM     27  C   UNL     1       1.317   4.572  20.524  0.00  0.00    +0.000 A 
ATOM     28  C   UNL     1       0.855   3.312  20.140  0.00  0.00    +0.000 A 
ATOM     29  C   UNL     1       1.141   2.834  18.866  0.00  0.00    +0.000 A 
ATOM     30  F   UNL     1       0.710   1.615  18.510  0.00  0.00    +0.000 F 
ATOM     31  C   UNL     1       1.862   3.595  17.957  0.00  0.00    +0.000 A 
ATOM     32  C   UNL     1       2.345   4.837  18.356  0.00  0.00    +0.000 A 
ATOM     33  F   UNL     1       3.045   5.572  17.478  0.00  0.00    +0.000 F 
ENDBRANCH  25  26
ENDBRANCH   7  25
TORSDOF 6
ENDMDL
MODEL 5
REMARK VINA RESULT:      -7.4      3.394      5.566
REMARK  Name = 
REMARK  8 active torsions:
REMARK  status: ('A' for Active; 'I' for Inactive)
REMARK    1  A    between atoms: C_1  and  N_2
REMARK    2  A    between atoms: N_5  and  C_6
REMARK    3  A    between atoms: C_6  and  C_7
REMARK    4  A    between atoms: C_7  and  C_8
REMARK    5  A    between atoms: C_8  and  N_9
REMARK    6  A    between atoms: C_15  and  O_16
REMARK    7  A    between atoms: O_16  and  C_17
REMARK    8  A    between atoms: N_27  and  C_28
REMARK                            x       y       z     vdW  Elec       q    Type
REMARK                         _______ _______ _______ _____ _____    ______ ____
ROOT
ATOM      1  N   UNL     1       0.730   9.113  20.209  0.00  0.00    +0.000 N 
ATOM      2  C   UNL     1       1.613   8.253  19.574  0.00  0.00    +0.000 A 
ATOM      3  N   UNL     1       2.197   8.722  18.465  0.00  0.00    +0.000 NA
ATOM      4  C   UNL     1       3.025   7.881  17.812  0.00  0.00    +0.000 A 
ATOM      5  C   UNL     1       3.298   6.602  18.232  0.00  0.00    +0.000 A 
ATOM      6  C   UNL     1       4.136   5.670  17.499  0.00  0.00    +0.000 A 
ATOM      7  C   UNL     1       4.366   4.441  17.984  0.00  0.00    +0.000 A 
ATOM      8  C   UNL     1       3.866   4.084  19.370  0.00  0.00    +0.000 A 
ATOM      9  O   UNL     1       4.258   3.069  19.942  0.00  0.00    +0.000 OA
ATOM     10  N   UNL     1       2.929   4.938  19.931  0.00  0.00    +0.000 N 
ATOM     11  C   UNL     1       2.252   4.572  21.165  0.00  0.00    +0.000 C 
ATOM     12  C   UNL     1       2.667   6.223  19.400  0.00  0.00    +0.000 A 
ATOM     13  N   UNL     1       1.826   7.031  20.067  0.00  0.00    +0.000 NA
ATOM     14  H   UNL     1       0.949  10.042  19.864  0.00  0.00    +0.000 HD
ENDROOT
BRANCH   1  15
ATOM     15  C   UNL     1       0.704   8.983  21.659  0.00  0.00    +0.000 C 
BRANCH  15  16
ATOM     16  C   UNL     1       0.125  10.263  22.258  0.00  0.00    +0.000 C 
BRANCH  16  17
ATOM     17  C   UNL     1       0.200  11.455  21.296  0.00  0.00    +0.000 C 
BRANCH  17  22
ATOM     18  C   UNL     1      -0.045  15.650  18.866  0.00  0.00    +0.000 C 
ATOM     19  N   UNL     1      -0.800  14.491  19.328  0.00  0.00    +0.000 NA
ATOM     20  C   UNL     1      -0.807  14.409  20.798  0.00  0.00    +0.000 C 
ATOM     21  C   UNL     1      -1.582  13.167  21.295  0.00  0.00    +0.000 C 
ATOM     22  N   UNL     1      -1.099  11.877  20.750  0.00  0.00    +0.000 NA
ATOM     23  C   UNL     1      -1.043  11.999  19.274  0.00  0.00    +0.000 C 
ATOM     24  C   UNL     1      -0.274  13.240  18.753  0.00  0.00    +0.000 C 
ENDBRANCH  17  22
ENDBRANCH  16  17
ENDBRANCH  15  16
ENDBRANCH   1  15
BRANCH   7  25
ATOM     25  O   UNL     1       5.109   3.549  17.208  0.00  0.00    +0.000 OA
BRANCH  25  26
ATOM     26  C   UNL     1       5.683   3.970  16.033  0.00  0.00    +0.000 A 
ATOM     27  C   UNL     1       5.065   3.853  14.782  0.00  0.00    +0.000 A 
ATOM     28  C   UNL     1       5.759   4.223  13.629  0.00  0.00    +0.000 A 
ATOM     29  C   UNL     1       7.037   4.762  13.738  0.00  0.00    +0.000 A 
ATOM     30  F   UNL     1       7.705   5.097  12.626  0.00  0.00    +0.000 F 
ATOM     31  C   UNL     1       7.630   4.962  14.977  0.00  0.00    +0.000 A 
ATOM     32  C   UNL     1       6.944   4.565  16.120  0.00  0.00    +0.000 A 
ATOM     33  F   UNL     1       7.518   4.755  17.318  0.00  0.00    +0.000 F 
ENDBRANCH  25  26
ENDBRANCH   7  25
TORSDOF 6
ENDMDL
MODEL 6
REMARK VINA RESULT:      -7.4      4.720      9.124
REMARK  Name = 
REMARK  8 active torsions:
REMARK  status: ('A' for Active; 'I' for Inactive)
REMARK    1  A    between atoms: C_1  and  N_2
REMARK    2  A    between atoms: N_5  and  C_6
REMARK    3  A    between atoms: C_6  and  C_7
REMARK    4  A    between atoms: C_7  and  C_8
REMARK    5  A    between atoms: C_8  and  N_9
REMARK    6  A    between atoms: C_15  and  O_16
REMARK    7  A    between atoms: O_16  and  C_17
REMARK    8  A    between atoms: N_27  and  C_28
REMARK                            x       y       z     vdW  Elec       q    Type
REMARK                         _______ _______ _______ _____ _____    ______ ____
ROOT
ATOM      1  N   UNL     1       2.502   7.615  18.498  0.00  0.00    +0.000 N 
ATOM      2  C   UNL     1       1.587   8.591  18.862  0.00  0.00    +0.000 A 
ATOM      3  N   UNL     1       0.991   9.244  17.857  0.00  0.00    +0.000 NA
ATOM      4  C   UNL     1       0.131  10.226  18.196  0.00  0.00    +0.000 A 
ATOM      5  C   UNL     1      -0.162  10.569  19.494  0.00  0.00    +0.000 A 
ATOM      6  C   UNL     1      -1.036  11.668  19.864  0.00  0.00    +0.000 A 
ATOM      7  C   UNL     1      -1.283  11.930  21.156  0.00  0.00    +0.000 A 
ATOM      8  C   UNL     1      -0.761  10.983  22.218  0.00  0.00    +0.000 A 
ATOM      9  O   UNL     1      -1.165  11.050  23.378  0.00  0.00    +0.000 OA
ATOM     10  N   UNL     1       0.206  10.073  21.819  0.00  0.00    +0.000 N 
ATOM     11  C   UNL     1       0.899   9.263  22.807  0.00  0.00    +0.000 C 
ATOM     12  C   UNL     1       0.485   9.820  20.456  0.00  0.00    +0.000 A 
ATOM     13  N   UNL     1       1.357   8.844  20.153  0.00  0.00    +0.000 NA
ATOM     14  H   UNL     1       2.296   7.388  17.531  0.00  0.00    +0.000 HD
ENDROOT
BRANCH   1  15
ATOM     15  C   UNL     1       2.555   6.476  19.403  0.00  0.00    +0.000 C 
BRANCH  15  16
ATOM     16  C   UNL     1       2.445   5.191  18.584  0.00  0.00    +0.000 C 
BRANCH  16  17
ATOM     17  C   UNL     1       3.450   5.139  17.427  0.00  0.00    +0.000 C 
BRANCH  17  22
ATOM     18  C   UNL     1       7.984   5.951  18.961  0.00  0.00    +0.000 C 
ATOM     19  N   UNL     1       7.045   4.939  18.490  0.00  0.00    +0.000 NA
ATOM     20  C   UNL     1       6.595   5.224  17.117  0.00  0.00    +0.000 C 
ATOM     21  C   UNL     1       5.577   4.171  16.622  0.00  0.00    +0.000 C 
ATOM     22  N   UNL     1       4.387   4.006  17.487  0.00  0.00    +0.000 NA
ATOM     23  C   UNL     1       4.860   3.778  18.873  0.00  0.00    +0.000 C 
ATOM     24  C   UNL     1       5.884   4.820  19.389  0.00  0.00    +0.000 C 
ENDBRANCH  17  22
ENDBRANCH  16  17
ENDBRANCH  15  16
ENDBRANCH   1  15
BRANCH   7  25
ATOM     25  O   UNL     1      -2.061  13.046  21.470  0.00  0.00    +0.000 OA
BRANCH  25  26
ATOM     26  C   UNL     1      -3.429  12.935  21.539  0.00  0.00    +0.000 A 
ATOM     27  C   UNL     1      -4.246  12.702  20.427  0.00  0.00    +0.000 A 
ATOM     28  C   UNL     1      -5.634  12.696  20.575  0.00  0.00    +0.000 A 
ATOM     29  C   UNL     1      -6.191  12.860  21.840  0.00  0.00    +0.000 A 
ATOM     30  F   UNL     1      -7.525  12.873  21.972  0.00  0.00    +0.000 F 
ATOM     31  C   UNL     1      -5.392  13.009  22.964  0.00  0.00    +0.000 A 
ATOM     32  C   UNL     1      -4.011  13.043  22.805  0.00  0.00    +0.000 A 
ATOM     33  F   UNL     1      -3.237  13.190  23.892  0.00  0.00    +0.000 F 
ENDBRANCH  25  26
ENDBRANCH   7  25
TORSDOF 6
ENDMDL
MODEL 7
REMARK VINA RESULT:      -7.4      4.953      8.952
REMARK  Name = 
REMARK  8 active torsions:
REMARK  status: ('A' for Active; 'I' for Inactive)
REMARK    1  A    between atoms: C_1  and  N_2
REMARK    2  A    between atoms: N_5  and  C_6
REMARK    3  A    between atoms: C_6  and  C_7
REMARK    4  A    between atoms: C_7  and  C_8
REMARK    5  A    between atoms: C_8  and  N_9
REMARK    6  A    between atoms: C_15  and  O_16
REMARK    7  A    between atoms: O_16  and  C_17
REMARK    8  A    between atoms: N_27  and  C_28
REMARK                            x       y       z     vdW  Elec       q    Type
REMARK                         _______ _______ _______ _____ _____    ______ ____
ROOT
ATOM      1  N   UNL     1       1.882   7.224  20.551  0.00  0.00    +0.000 N 
ATOM      2  C   UNL     1       1.239   8.372  20.991  0.00  0.00    +0.000 A 
ATOM      3  N   UNL     1       1.370   8.658  22.292  0.00  0.00    +0.000 NA
ATOM      4  C   UNL     1       0.714   9.747  22.743  0.00  0.00    +0.000 A 
ATOM      5  C   UNL     1      -0.052  10.560  21.944  0.00  0.00    +0.000 A 
ATOM      6  C   UNL     1      -0.813  11.695  22.437  0.00  0.00    +0.000 A 
ATOM      7  C   UNL     1      -1.526  12.451  21.588  0.00  0.00    +0.000 A 
ATOM      8  C   UNL     1      -1.415  12.200  20.097  0.00  0.00    +0.000 A 
ATOM      9  O   UNL     1      -1.854  13.012  19.285  0.00  0.00    +0.000 OA
ATOM     10  N   UNL     1      -0.829  11.004  19.711  0.00  0.00    +0.000 N 
ATOM     11  C   UNL     1      -0.857  10.594  18.316  0.00  0.00    +0.000 C 
ATOM     12  C   UNL     1      -0.102  10.194  20.614  0.00  0.00    +0.000 A 
ATOM     13  N   UNL     1       0.529   9.109  20.135  0.00  0.00    +0.000 NA
ATOM     14  H   UNL     1       2.579   7.009  21.256  0.00  0.00    +0.000 HD
ENDROOT
BRANCH   1  15
ATOM     15  C   UNL     1       2.387   7.306  19.188  0.00  0.00    +0.000 C 
BRANCH  15  16
ATOM     16  C   UNL     1       2.924   5.936  18.780  0.00  0.00    +0.000 C 
BRANCH  16  17
ATOM     17  C   UNL     1       4.442   5.935  18.560  0.00  0.00    +0.000 C 
BRANCH  17  22
ATOM     18  C   UNL     1       6.931   4.751  14.564  0.00  0.00    +0.000 C 
ATOM     19  N   UNL     1       6.485   4.291  15.873  0.00  0.00    +0.000 NA
ATOM     20  C   UNL     1       5.015   4.244  15.951  0.00  0.00    +0.000 C 
ATOM     21  C   UNL     1       4.533   3.784  17.347  0.00  0.00    +0.000 C 
ATOM     22  N   UNL     1       5.043   4.595  18.476  0.00  0.00    +0.000 NA
ATOM     23  C   UNL     1       6.517   4.679  18.347  0.00  0.00    +0.000 C 
ATOM     24  C   UNL     1       7.023   5.135  16.955  0.00  0.00    +0.000 C 
ENDBRANCH  17  22
ENDBRANCH  16  17
ENDBRANCH  15  16
ENDBRANCH   1  15
BRANCH   7  25
ATOM     25  O   UNL     1      -2.309  13.480  22.114  0.00  0.00    +0.000 OA
BRANCH  25  26
ATOM     26  C   UNL     1      -3.512  13.195  22.713  0.00  0.00    +0.000 A 
ATOM     27  C   UNL     1      -3.643  12.845  24.063  0.00  0.00    +0.000 A 
ATOM     28  C   UNL     1      -4.893  12.480  24.566  0.00  0.00    +0.000 A 
ATOM     29  C   UNL     1      -6.009  12.529  23.737  0.00  0.00    +0.000 A 
ATOM     30  F   UNL     1      -7.203  12.160  24.222  0.00  0.00    +0.000 F 
ATOM     31  C   UNL     1      -5.909  12.954  22.420  0.00  0.00    +0.000 A 
ATOM     32  C   UNL     1      -4.656  13.287  21.917  0.00  0.00    +0.000 A 
ATOM     33  F   UNL     1      -4.559  13.696  20.642  0.00  0.00    +0.000 F 
ENDBRANCH  25  26
ENDBRANCH   7  25
TORSDOF 6
ENDMDL
MODEL 8
REMARK VINA RESULT:      -7.3      2.486      3.423
REMARK  Name = 
REMARK  8 active torsions:
REMARK  status: ('A' for Active; 'I' for Inactive)
REMARK    1  A    between atoms: C_1  and  N_2
REMARK    2  A    between atoms: N_5  and  C_6
REMARK    3  A    between atoms: C_6  and  C_7
REMARK    4  A    between atoms: C_7  and  C_8
REMARK    5  A    between atoms: C_8  and  N_9
REMARK    6  A    between atoms: C_15  and  O_16
REMARK    7  A    between atoms: O_16  and  C_17
REMARK    8  A    between atoms: N_27  and  C_28
REMARK                            x       y       z     vdW  Elec       q    Type
REMARK                         _______ _______ _______ _____ _____    ______ ____
ROOT
ATOM      1  N   UNL     1      -1.336  11.651  23.097  0.00  0.00    +0.000 N 
ATOM      2  C   UNL     1      -0.589  10.696  22.423  0.00  0.00    +0.000 A 
ATOM      3  N   UNL     1      -0.229   9.621  23.134  0.00  0.00    +0.000 NA
ATOM      4  C   UNL     1       0.535   8.704  22.505  0.00  0.00    +0.000 A 
ATOM      5  C   UNL     1       0.939   8.818  21.196  0.00  0.00    +0.000 A 
ATOM      6  C   UNL     1       1.815   7.868  20.534  0.00  0.00    +0.000 A 
ATOM      7  C   UNL     1       2.153   8.042  19.248  0.00  0.00    +0.000 A 
ATOM      8  C   UNL     1       1.497   9.153  18.452  0.00  0.00    +0.000 A 
ATOM      9  O   UNL     1       1.592   9.195  17.227  0.00  0.00    +0.000 OA
ATOM     10  N   UNL     1       0.823  10.123  19.179  0.00  0.00    +0.000 N 
ATOM     11  C   UNL     1       0.335  11.323  18.519  0.00  0.00    +0.000 C 
ATOM     12  C   UNL     1       0.495   9.949  20.544  0.00  0.00    +0.000 A 
ATOM     13  N   UNL     1      -0.257  10.888  21.144  0.00  0.00    +0.000 NA
ATOM     14  H   UNL     1      -1.717  11.181  23.911  0.00  0.00    +0.000 HD
ENDROOT
BRANCH   1  15
ATOM     15  C   UNL     1      -2.313  12.342  22.267  0.00  0.00    +0.000 C 
BRANCH  15  16
ATOM     16  C   UNL     1      -3.134  13.278  23.151  0.00  0.00    +0.000 C 
BRANCH  16  17
ATOM     17  C   UNL     1      -4.601  12.846  23.271  0.00  0.00    +0.000 C 
BRANCH  17  22
ATOM     18  C   UNL     1      -7.449  12.265  19.383  0.00  0.00    +0.000 C 
ATOM     19  N   UNL     1      -7.119  13.140  20.502  0.00  0.00    +0.000 NA
ATOM     20  C   UNL     1      -5.727  13.613  20.418  0.00  0.00    +0.000 C 
ATOM     21  C   UNL     1      -5.360  14.518  21.617  0.00  0.00    +0.000 C 
ATOM     22  N   UNL     1      -5.573  13.901  22.946  0.00  0.00    +0.000 NA
ATOM     23  C   UNL     1      -6.960  13.380  22.990  0.00  0.00    +0.000 C 
ATOM     24  C   UNL     1      -7.350  12.473  21.796  0.00  0.00    +0.000 C 
ENDBRANCH  17  22
ENDBRANCH  16  17
ENDBRANCH  15  16
ENDBRANCH   1  15
BRANCH   7  25
ATOM     25  O   UNL     1       3.063   7.152  18.674  0.00  0.00    +0.000 OA
BRANCH  25  26
ATOM     26  C   UNL     1       2.793   5.805  18.656  0.00  0.00    +0.000 A 
ATOM     27  C   UNL     1       1.692   5.242  18.000  0.00  0.00    +0.000 A 
ATOM     28  C   UNL     1       1.443   3.874  18.112  0.00  0.00    +0.000 A 
ATOM     29  C   UNL     1       2.327   3.070  18.824  0.00  0.00    +0.000 A 
ATOM     30  F   UNL     1       2.072   1.759  18.942  0.00  0.00    +0.000 F 
ATOM     31  C   UNL     1       3.468   3.599  19.410  0.00  0.00    +0.000 A 
ATOM     32  C   UNL     1       3.695   4.968  19.319  0.00  0.00    +0.000 A 
ATOM     33  F   UNL     1       4.796   5.481  19.888  0.00  0.00    +0.000 F 
ENDBRANCH  25  26
ENDBRANCH   7  25
TORSDOF 6
ENDMDL
MODEL 9
REMARK VINA RESULT:      -7.3      4.615      8.917
REMARK  Name = 
REMARK  8 active torsions:
REMARK  status: ('A' for Active; 'I' for Inactive)
REMARK    1  A    between atoms: C_1  and  N_2
REMARK    2  A    between atoms: N_5  and  C_6
REMARK    3  A    between atoms: C_6  and  C_7
REMARK    4  A    between atoms: C_7  and  C_8
REMARK    5  A    between atoms: C_8  and  N_9
REMARK    6  A    between atoms: C_15  and  O_16
REMARK    7  A    between atoms: O_16  and  C_17
REMARK    8  A    between atoms: N_27  and  C_28
REMARK                            x       y       z     vdW  Elec       q    Type
REMARK                         _______ _______ _______ _____ _____    ______ ____
ROOT
ATOM      1  N   UNL     1       2.594   7.434  18.511  0.00  0.00    +0.000 N 
ATOM      2  C   UNL     1       1.736   8.464  18.866  0.00  0.00    +0.000 A 
ATOM      3  N   UNL     1       1.195   9.155  17.856  0.00  0.00    +0.000 NA
ATOM      4  C   UNL     1       0.393  10.187  18.187  0.00  0.00    +0.000 A 
ATOM      5  C   UNL     1       0.104  10.544  19.482  0.00  0.00    +0.000 A 
ATOM      6  C   UNL     1      -0.705  11.693  19.844  0.00  0.00    +0.000 A 
ATOM      7  C   UNL     1      -0.953  11.966  21.134  0.00  0.00    +0.000 A 
ATOM      8  C   UNL     1      -0.506  10.986  22.200  0.00  0.00    +0.000 A 
ATOM      9  O   UNL     1      -0.920  11.074  23.354  0.00  0.00    +0.000 OA
ATOM     10  N   UNL     1       0.408  10.019  21.810  0.00  0.00    +0.000 N 
ATOM     11  C   UNL     1       1.037   9.165  22.804  0.00  0.00    +0.000 C 
ATOM     12  C   UNL     1       0.691   9.754  20.450  0.00  0.00    +0.000 A 
ATOM     13  N   UNL     1       1.505   8.726  20.154  0.00  0.00    +0.000 NA
ATOM     14  H   UNL     1       2.388   7.223  17.540  0.00  0.00    +0.000 HD
ENDROOT
BRANCH   1  15
ATOM     15  C   UNL     1       2.564   6.291  19.412  0.00  0.00    +0.000 C 
BRANCH  15  16
ATOM     16  C   UNL     1       3.182   5.088  18.702  0.00  0.00    +0.000 C 
BRANCH  16  17
ATOM     17  C   UNL     1       4.691   4.966  18.948  0.00  0.00    +0.000 C 
BRANCH  17  22
ATOM     18  C   UNL     1       7.863   8.383  17.597  0.00  0.00    +0.000 C 
ATOM     19  N   UNL     1       7.310   7.073  17.276  0.00  0.00    +0.000 NA
ATOM     20  C   UNL     1       5.867   7.156  16.995  0.00  0.00    +0.000 C 
ATOM     21  C   UNL     1       5.267   5.766  16.682  0.00  0.00    +0.000 C 
ATOM     22  N   UNL     1       5.489   4.745  17.731  0.00  0.00    +0.000 NA
ATOM     23  C   UNL     1       6.938   4.718  18.041  0.00  0.00    +0.000 C 
ATOM     24  C   UNL     1       7.561   6.102  18.355  0.00  0.00    +0.000 C 
ENDBRANCH  17  22
ENDBRANCH  16  17
ENDBRANCH  15  16
ENDBRANCH   1  15
BRANCH   7  25
ATOM     25  O   UNL     1      -1.665  13.127  21.442  0.00  0.00    +0.000 OA
BRANCH  25  26
ATOM     26  C   UNL     1      -2.963  13.043  21.886  0.00  0.00    +0.000 A 
ATOM     27  C   UNL     1      -3.333  13.168  23.231  0.00  0.00    +0.000 A 
ATOM     28  C   UNL     1      -4.664  12.976  23.604  0.00  0.00    +0.000 A 
ATOM     29  C   UNL     1      -5.623  12.724  22.628  0.00  0.00    +0.000 A 
ATOM     30  F   UNL     1      -6.896  12.523  22.996  0.00  0.00    +0.000 F 
ATOM     31  C   UNL     1      -5.285  12.680  21.283  0.00  0.00    +0.000 A 
ATOM     32  C   UNL     1      -3.953  12.843  20.920  0.00  0.00    +0.000 A 
ATOM     33  F   UNL     1      -3.626  12.798  19.620  0.00  0.00    +0.000 F 
ENDBRANCH  25  26
ENDBRANCH   7  25
TORSDOF 6
ENDMDL
