MODEL 1
REMARK VINA RESULT:      -7.2      0.000      0.000
REMARK  Name = 
REMARK  16 active torsions:
REMARK  status: ('A' for Active; 'I' for Inactive)
REMARK    1  A    between atoms: N_4  and  C_5
REMARK    2  A    between atoms: C_8  and  O_9
REMARK    3  A    between atoms: O_9  and  C_10
REMARK    4  A    between atoms: C_13  and  N_14
REMARK    5  A    between atoms: C_15  and  C_17
REMARK    6  A    between atoms: C_17  and  C_18
REMARK    7  A    between atoms: C_18  and  C_19
REMARK    8  A    between atoms: C_19  and  C_20
REMARK    9  A    between atoms: C_20  and  C_21
REMARK   10  A    between atoms: C_21  and  C_22
REMARK   11  A    between atoms: C_22  and  C_23
REMARK   12  A    between atoms: C_23  and  C_24
REMARK   13  A    between atoms: C_24  and  C_25
REMARK   14  A    between atoms: C_25  and  C_26
REMARK   15  A    between atoms: C_26  and  C_27
REMARK   16  A    between atoms: C_27  and  N_28
REMARK                            x       y       z     vdW  Elec       q    Type
REMARK                         _______ _______ _______ _____ _____    ______ ____
ROOT
ATOM      1  C   UNL     1       1.328   9.313  19.073  0.00  0.00    +0.000 A 
ATOM      2  C   UNL     1       2.115   8.386  18.386  0.00  0.00    +0.000 A 
ATOM      3  C   UNL     1       2.428   7.159  18.947  0.00  0.00    +0.000 A 
ATOM      4  C   UNL     1       2.061   6.846  20.244  0.00  0.00    +0.000 A 
ATOM      5  C   UNL     1       1.269   7.767  20.956  0.00  0.00    +0.000 A 
ATOM      6  C   UNL     1       0.904   8.999  20.365  0.00  0.00    +0.000 A 
ENDROOT
BRANCH   4   7
ATOM      7  N   UNL     1       2.487   5.634  20.837  0.00  0.00    +0.000 N 
ATOM      8  C   UNL     1       1.779   4.438  20.737  0.00  0.00    +0.000 C 
ATOM      9  O   UNL     1       0.713   4.260  20.154  0.00  0.00    +0.000 OA
ATOM     10  H   UNL     1       3.415   5.615  21.239  0.00  0.00    +0.000 HD
BRANCH   8  11
ATOM     11  C   UNL     1       2.472   3.244  21.360  0.00  0.00    +0.000 C 
BRANCH  11  12
ATOM     12  C   UNL     1       3.570   2.735  20.425  0.00  0.00    +0.000 C 
BRANCH  12  13
ATOM     13  C   UNL     1       3.018   2.188  19.110  0.00  0.00    +0.000 C 
BRANCH  13  14
ATOM     14  C   UNL     1       3.847   2.711  17.942  0.00  0.00    +0.000 C 
BRANCH  14  15
ATOM     15  C   UNL     1       3.248   3.992  17.378  0.00  0.00    +0.000 C 
BRANCH  15  16
ATOM     16  C   UNL     1       4.301   4.801  16.630  0.00  0.00    +0.000 C 
BRANCH  16  17
ATOM     17  C   UNL     1       5.470   3.906  16.233  0.00  0.00    +0.000 C 
BRANCH  17  18
ATOM     18  C   UNL     1       6.793   4.471  16.738  0.00  0.00    +0.000 C 
BRANCH  18  19
ATOM     19  C   UNL     1       6.671   5.969  17.003  0.00  0.00    +0.000 C 
BRANCH  19  20
ATOM     20  C   UNL     1       7.544   6.389  18.182  0.00  0.00    +0.000 C 
BRANCH  20  21
ATOM     21  C   UNL     1       7.075   5.722  19.471  0.00  0.00    +0.000 C 
BRANCH  21  22
ATOM     22  N   UNL     1       8.222   5.263  20.243  0.00  0.00    +0.000 NA
ATOM     23  H   UNL     1       8.399   4.279  20.042  0.00  0.00    +0.000 HD
ATOM     24  H   UNL     1       8.001   5.311  21.237  0.00  0.00    +0.000 HD
ENDBRANCH  21  22
ENDBRANCH  20  21
ENDBRANCH  19  20
ENDBRANCH  18  19
ENDBRANCH  17  18
ENDBRANCH  16  17
ENDBRANCH  15  16
ENDBRANCH  14  15
ENDBRANCH  13  14
ENDBRANCH  12  13
ENDBRANCH  11  12
ENDBRANCH   8  11
ENDBRANCH   4   7
BRANCH   1  25
ATOM     25  O   UNL     1       0.952  10.524  18.496  0.00  0.00    +0.000 OA
BRANCH  25  29
ATOM     26  C   UNL     1      -3.021  11.908  18.778  0.00  0.00    +0.000 A 
ATOM     27  C   UNL     1      -2.589  11.175  17.667  0.00  0.00    +0.000 A 
ATOM     28  C   UNL     1      -1.311  10.631  17.622  0.00  0.00    +0.000 A 
ATOM     29  C   UNL     1      -0.375  10.903  18.633  0.00  0.00    +0.000 A 
ATOM     30  C   UNL     1      -0.805  11.575  19.775  0.00  0.00    +0.000 A 
ATOM     31  C   UNL     1      -2.136  12.036  19.858  0.00  0.00    +0.000 A 
BRANCH  26  35
ATOM     32  N   UNL     1      -5.622  10.468  18.319  0.00  0.00    +0.000 NA
ATOM     33  C   UNL     1      -5.501  11.697  18.624  0.00  0.00    +0.000 C 
ATOM     34  N   UNL     1      -6.610  12.460  18.835  0.00  0.00    +0.000 N 
ATOM     35  N   UNL     1      -4.341  12.397  18.768  0.00  0.00    +0.000 N 
ATOM     36  H   UNL     1      -6.595  10.203  18.276  0.00  0.00    +0.000 HD
ATOM     37  H   UNL     1      -7.478  12.051  18.483  0.00  0.00    +0.000 HD
ATOM     38  H   UNL     1      -6.556  13.444  18.639  0.00  0.00    +0.000 HD
ATOM     39  H   UNL     1      -4.406  13.385  18.973  0.00  0.00    +0.000 HD
ENDBRANCH  26  35
ENDBRANCH  25  29
ENDBRANCH   1  25
TORSDOF 16
ENDMDL
MODEL 2
REMARK VINA RESULT:      -7.2      2.281      2.836
REMARK  Name = 
REMARK  16 active torsions:
REMARK  status: ('A' for Active; 'I' for Inactive)
REMARK    1  A    between atoms: N_4  and  C_5
REMARK    2  A    between atoms: C_8  and  O_9
REMARK    3  A    between atoms: O_9  and  C_10
REMARK    4  A    between atoms: C_13  and  N_14
REMARK    5  A    between atoms: C_15  and  C_17
REMARK    6  A    between atoms: C_17  and  C_18
REMARK    7  A    between atoms: C_18  and  C_19
REMARK    8  A    between atoms: C_19  and  C_20
REMARK    9  A    between atoms: C_20  and  C_21
REMARK   10  A    between atoms: C_21  and  C_22
REMARK   11  A    between atoms: C_22  and  C_23
REMARK   12  A    between atoms: C_23  and  C_24
REMARK   13  A    between atoms: C_24  and  C_25
REMARK   14  A    between atoms: C_25  and  C_26
REMARK   15  A    between atoms: C_26  and  C_27
REMARK   16  A    between atoms: C_27  and  N_28
REMARK                            x       y       z     vdW  Elec       q    Type
REMARK                         _______ _______ _______ _____ _____    ______ ____
ROOT
ATOM      1  C   UNL     1       1.296   9.451  18.961  0.00  0.00    +0.000 A 
ATOM      2  C   UNL     1       1.967   8.604  18.075  0.00  0.00    +0.000 A 
ATOM      3  C   UNL     1       2.412   7.355  18.476  0.00  0.00    +0.000 A 
ATOM      4  C   UNL     1       2.301   6.942  19.792  0.00  0.00    +0.000 A 
ATOM      5  C   UNL     1       1.630   7.780  20.703  0.00  0.00    +0.000 A 
ATOM      6  C   UNL     1       1.129   9.033  20.282  0.00  0.00    +0.000 A 
ENDROOT
BRANCH   4   7
ATOM      7  N   UNL     1       2.862   5.710  20.205  0.00  0.00    +0.000 N 
ATOM      8  C   UNL     1       2.102   4.617  20.618  0.00  0.00    +0.000 C 
ATOM      9  O   UNL     1       0.878   4.559  20.694  0.00  0.00    +0.000 OA
ATOM     10  H   UNL     1       3.857   5.585  20.068  0.00  0.00    +0.000 HD
BRANCH   8  11
ATOM     11  C   UNL     1       2.907   3.369  20.916  0.00  0.00    +0.000 C 
BRANCH  11  12
ATOM     12  C   UNL     1       4.113   3.293  19.978  0.00  0.00    +0.000 C 
BRANCH  12  13
ATOM     13  C   UNL     1       3.917   2.285  18.847  0.00  0.00    +0.000 C 
BRANCH  13  14
ATOM     14  C   UNL     1       3.613   3.019  17.546  0.00  0.00    +0.000 C 
BRANCH  14  15
ATOM     15  C   UNL     1       4.848   3.742  17.026  0.00  0.00    +0.000 C 
BRANCH  15  16
ATOM     16  C   UNL     1       4.461   5.026  16.300  0.00  0.00    +0.000 C 
BRANCH  16  17
ATOM     17  C   UNL     1       5.696   5.679  15.689  0.00  0.00    +0.000 C 
BRANCH  17  18
ATOM     18  C   UNL     1       6.446   4.705  14.788  0.00  0.00    +0.000 C 
BRANCH  18  19
ATOM     19  C   UNL     1       5.521   4.149  13.710  0.00  0.00    +0.000 C 
BRANCH  19  20
ATOM     20  C   UNL     1       6.322   3.550  12.558  0.00  0.00    +0.000 C 
BRANCH  20  21
ATOM     21  C   UNL     1       5.453   2.620  11.717  0.00  0.00    +0.000 C 
BRANCH  21  22
ATOM     22  N   UNL     1       6.187   1.404  11.394  0.00  0.00    +0.000 NA
ATOM     23  H   UNL     1       6.863   1.206  12.132  0.00  0.00    +0.000 HD
ATOM     24  H   UNL     1       6.733   1.553  10.546  0.00  0.00    +0.000 HD
ENDBRANCH  21  22
ENDBRANCH  20  21
ENDBRANCH  19  20
ENDBRANCH  18  19
ENDBRANCH  17  18
ENDBRANCH  16  17
ENDBRANCH  15  16
ENDBRANCH  14  15
ENDBRANCH  13  14
ENDBRANCH  12  13
ENDBRANCH  11  12
ENDBRANCH   8  11
ENDBRANCH   4   7
BRANCH   1  25
ATOM     25  O   UNL     1       0.787  10.682  18.553  0.00  0.00    +0.000 OA
BRANCH  25  29
ATOM     26  C   UNL     1      -3.377  11.345  18.543  0.00  0.00    +0.000 A 
ATOM     27  C   UNL     1      -2.816  10.262  17.857  0.00  0.00    +0.000 A 
ATOM     28  C   UNL     1      -1.458   9.985  17.946  0.00  0.00    +0.000 A 
ATOM     29  C   UNL     1      -0.587  10.851  18.626  0.00  0.00    +0.000 A 
ATOM     30  C   UNL     1      -1.134  11.895  19.368  0.00  0.00    +0.000 A 
ATOM     31  C   UNL     1      -2.529  12.110  19.356  0.00  0.00    +0.000 A 
BRANCH  26  35
ATOM     32  N   UNL     1      -5.006  12.504  16.295  0.00  0.00    +0.000 NA
ATOM     33  C   UNL     1      -5.474  12.007  17.368  0.00  0.00    +0.000 C 
ATOM     34  N   UNL     1      -6.822  11.910  17.542  0.00  0.00    +0.000 N 
ATOM     35  N   UNL     1      -4.767  11.542  18.435  0.00  0.00    +0.000 N 
ATOM     36  H   UNL     1      -5.750  12.773  15.669  0.00  0.00    +0.000 HD
ATOM     37  H   UNL     1      -7.375  12.478  16.898  0.00  0.00    +0.000 HD
ATOM     38  H   UNL     1      -7.186  11.948  18.478  0.00  0.00    +0.000 HD
ATOM     39  H   UNL     1      -5.283  11.213  19.239  0.00  0.00    +0.000 HD
ENDBRANCH  26  35
ENDBRANCH  25  29
ENDBRANCH   1  25
TORSDOF 16
ENDMDL
MODEL 3
REMARK VINA RESULT:      -6.9      3.567      4.458
REMARK  Name = 
REMARK  16 active torsions:
REMARK  status: ('A' for Active; 'I' for Inactive)
REMARK    1  A    between atoms: N_4  and  C_5
REMARK    2  A    between atoms: C_8  and  O_9
REMARK    3  A    between atoms: O_9  and  C_10
REMARK    4  A    between atoms: C_13  and  N_14
REMARK    5  A    between atoms: C_15  and  C_17
REMARK    6  A    between atoms: C_17  and  C_18
REMARK    7  A    between atoms: C_18  and  C_19
REMARK    8  A    between atoms: C_19  and  C_20
REMARK    9  A    between atoms: C_20  and  C_21
REMARK   10  A    between atoms: C_21  and  C_22
REMARK   11  A    between atoms: C_22  and  C_23
REMARK   12  A    between atoms: C_23  and  C_24
REMARK   13  A    between atoms: C_24  and  C_25
REMARK   14  A    between atoms: C_25  and  C_26
REMARK   15  A    between atoms: C_26  and  C_27
REMARK   16  A    between atoms: C_27  and  N_28
REMARK                            x       y       z     vdW  Elec       q    Type
REMARK                         _______ _______ _______ _____ _____    ______ ____
ROOT
ATOM      1  C   UNL     1       1.075   9.762  19.029  0.00  0.00    +0.000 A 
ATOM      2  C   UNL     1       1.790   8.874  18.222  0.00  0.00    +0.000 A 
ATOM      3  C   UNL     1       2.221   7.651  18.709  0.00  0.00    +0.000 A 
ATOM      4  C   UNL     1       2.050   7.308  20.039  0.00  0.00    +0.000 A 
ATOM      5  C   UNL     1       1.335   8.189  20.872  0.00  0.00    +0.000 A 
ATOM      6  C   UNL     1       0.848   9.414  20.361  0.00  0.00    +0.000 A 
ENDROOT
BRANCH   4   7
ATOM      7  N   UNL     1       2.597   6.103  20.543  0.00  0.00    +0.000 N 
ATOM      8  C   UNL     1       1.864   4.928  20.692  0.00  0.00    +0.000 C 
ATOM      9  O   UNL     1       0.675   4.763  20.429  0.00  0.00    +0.000 OA
ATOM     10  H   UNL     1       3.599   6.069  20.678  0.00  0.00    +0.000 HD
BRANCH   8  11
ATOM     11  C   UNL     1       2.676   3.735  21.151  0.00  0.00    +0.000 C 
BRANCH  11  12
ATOM     12  C   UNL     1       2.093   2.451  20.559  0.00  0.00    +0.000 C 
BRANCH  12  13
ATOM     13  C   UNL     1       2.796   2.022  19.273  0.00  0.00    +0.000 C 
BRANCH  13  14
ATOM     14  C   UNL     1       1.936   2.383  18.067  0.00  0.00    +0.000 C 
BRANCH  14  15
ATOM     15  C   UNL     1       2.617   3.438  17.208  0.00  0.00    +0.000 C 
BRANCH  15  16
ATOM     16  C   UNL     1       4.127   3.419  17.418  0.00  0.00    +0.000 C 
BRANCH  16  17
ATOM     17  C   UNL     1       4.623   4.808  17.806  0.00  0.00    +0.000 C 
BRANCH  17  18
ATOM     18  C   UNL     1       5.795   5.239  16.931  0.00  0.00    +0.000 C 
BRANCH  18  19
ATOM     19  C   UNL     1       6.151   6.700  17.192  0.00  0.00    +0.000 C 
BRANCH  19  20
ATOM     20  C   UNL     1       7.451   6.813  17.983  0.00  0.00    +0.000 C 
BRANCH  20  21
ATOM     21  C   UNL     1       7.818   5.477  18.620  0.00  0.00    +0.000 C 
BRANCH  21  22
ATOM     22  N   UNL     1       7.755   5.579  20.071  0.00  0.00    +0.000 NA
ATOM     23  H   UNL     1       7.458   6.518  20.336  0.00  0.00    +0.000 HD
ATOM     24  H   UNL     1       8.690   5.460  20.460  0.00  0.00    +0.000 HD
ENDBRANCH  21  22
ENDBRANCH  20  21
ENDBRANCH  19  20
ENDBRANCH  18  19
ENDBRANCH  17  18
ENDBRANCH  16  17
ENDBRANCH  15  16
ENDBRANCH  14  15
ENDBRANCH  13  14
ENDBRANCH  12  13
ENDBRANCH  11  12
ENDBRANCH   8  11
ENDBRANCH   4   7
BRANCH   1  25
ATOM     25  O   UNL     1       0.581  10.966  18.533  0.00  0.00    +0.000 OA
BRANCH  25  29
ATOM     26  C   UNL     1       2.589  14.595  19.293  0.00  0.00    +0.000 A 
ATOM     27  C   UNL     1       1.447  14.236  20.019  0.00  0.00    +0.000 A 
ATOM     28  C   UNL     1       0.848  12.995  19.839  0.00  0.00    +0.000 A 
ATOM     29  C   UNL     1       1.294  12.115  18.841  0.00  0.00    +0.000 A 
ATOM     30  C   UNL     1       2.466  12.426  18.155  0.00  0.00    +0.000 A 
ATOM     31  C   UNL     1       3.130  13.644  18.416  0.00  0.00    +0.000 A 
BRANCH  26  35
ATOM     32  N   UNL     1       4.751  15.379  21.233  0.00  0.00    +0.000 NA
ATOM     33  C   UNL     1       4.192  16.156  20.395  0.00  0.00    +0.000 C 
ATOM     34  N   UNL     1       4.610  17.448  20.279  0.00  0.00    +0.000 N 
ATOM     35  N   UNL     1       3.163  15.854  19.555  0.00  0.00    +0.000 N 
ATOM     36  H   UNL     1       5.487  15.859  21.731  0.00  0.00    +0.000 HD
ATOM     37  H   UNL     1       5.182  17.780  21.057  0.00  0.00    +0.000 HD
ATOM     38  H   UNL     1       3.943  18.140  19.986  0.00  0.00    +0.000 HD
ATOM     39  H   UNL     1       2.794  16.593  18.972  0.00  0.00    +0.000 HD
ENDBRANCH  26  35
ENDBRANCH  25  29
ENDBRANCH   1  25
TORSDOF 16
ENDMDL
MODEL 4
REMARK VINA RESULT:      -6.9      3.538      4.518
REMARK  Name = 
REMARK  16 active torsions:
REMARK  status: ('A' for Active; 'I' for Inactive)
REMARK    1  A    between atoms: N_4  and  C_5
REMARK    2  A    between atoms: C_8  and  O_9
REMARK    3  A    between atoms: O_9  and  C_10
REMARK    4  A    between atoms: C_13  and  N_14
REMARK    5  A    between atoms: C_15  and  C_17
REMARK    6  A    between atoms: C_17  and  C_18
REMARK    7  A    between atoms: C_18  and  C_19
REMARK    8  A    between atoms: C_19  and  C_20
REMARK    9  A    between atoms: C_20  and  C_21
REMARK   10  A    between atoms: C_21  and  C_22
REMARK   11  A    between atoms: C_22  and  C_23
REMARK   12  A    between atoms: C_23  and  C_24
REMARK   13  A    between atoms: C_24  and  C_25
REMARK   14  A    between atoms: C_25  and  C_26
REMARK   15  A    between atoms: C_26  and  C_27
REMARK   16  A    between atoms: C_27  and  N_28
REMARK                            x       y       z     vdW  Elec       q    Type
REMARK                         _______ _______ _______ _____ _____    ______ ____
ROOT
ATOM      1  C   UNL     1       1.210   9.489  18.922  0.00  0.00    +0.000 A 
ATOM      2  C   UNL     1       0.961   9.170  20.258  0.00  0.00    +0.000 A 
ATOM      3  C   UNL     1       1.470   8.013  20.825  0.00  0.00    +0.000 A 
ATOM      4  C   UNL     1       2.156   7.082  20.064  0.00  0.00    +0.000 A 
ATOM      5  C   UNL     1       2.417   7.382  18.714  0.00  0.00    +0.000 A 
ATOM      6  C   UNL     1       1.943   8.588  18.148  0.00  0.00    +0.000 A 
ENDROOT
BRANCH   4   7
ATOM      7  N   UNL     1       2.570   5.855  20.637  0.00  0.00    +0.000 N 
ATOM      8  C   UNL     1       1.743   4.738  20.744  0.00  0.00    +0.000 C 
ATOM      9  O   UNL     1       0.572   4.652  20.384  0.00  0.00    +0.000 OA
ATOM     10  H   UNL     1       3.552   5.754  20.857  0.00  0.00    +0.000 HD
BRANCH   8  11
ATOM     11  C   UNL     1       2.425   3.503  21.294  0.00  0.00    +0.000 C 
BRANCH  11  12
ATOM     12  C   UNL     1       3.113   2.741  20.161  0.00  0.00    +0.000 C 
BRANCH  12  13
ATOM     13  C   UNL     1       2.129   1.954  19.298  0.00  0.00    +0.000 C 
BRANCH  13  14
ATOM     14  C   UNL     1       2.423   2.200  17.822  0.00  0.00    +0.000 C 
BRANCH  14  15
ATOM     15  C   UNL     1       3.763   2.899  17.642  0.00  0.00    +0.000 C 
BRANCH  15  16
ATOM     16  C   UNL     1       3.584   4.244  16.946  0.00  0.00    +0.000 C 
BRANCH  16  17
ATOM     17  C   UNL     1       4.856   5.075  17.071  0.00  0.00    +0.000 C 
BRANCH  17  18
ATOM     18  C   UNL     1       5.823   4.456  18.073  0.00  0.00    +0.000 C 
BRANCH  18  19
ATOM     19  C   UNL     1       6.350   5.515  19.037  0.00  0.00    +0.000 C 
BRANCH  19  20
ATOM     20  C   UNL     1       7.824   5.808  18.775  0.00  0.00    +0.000 C 
BRANCH  20  21
ATOM     21  C   UNL     1       8.031   7.275  18.411  0.00  0.00    +0.000 C 
BRANCH  21  22
ATOM     22  N   UNL     1       7.487   7.545  17.087  0.00  0.00    +0.000 NA
ATOM     23  H   UNL     1       8.244   7.572  16.405  0.00  0.00    +0.000 HD
ATOM     24  H   UNL     1       7.066   8.473  17.078  0.00  0.00    +0.000 HD
ENDBRANCH  21  22
ENDBRANCH  20  21
ENDBRANCH  19  20
ENDBRANCH  18  19
ENDBRANCH  17  18
ENDBRANCH  16  17
ENDBRANCH  15  16
ENDBRANCH  14  15
ENDBRANCH  13  14
ENDBRANCH  12  13
ENDBRANCH  11  12
ENDBRANCH   8  11
ENDBRANCH   4   7
BRANCH   1  25
ATOM     25  O   UNL     1       0.758  10.680  18.357  0.00  0.00    +0.000 OA
BRANCH  25  29
ATOM     26  C   UNL     1       2.581  14.356  19.328  0.00  0.00    +0.000 A 
ATOM     27  C   UNL     1       1.456  13.901  20.026  0.00  0.00    +0.000 A 
ATOM     28  C   UNL     1       0.920  12.644  19.775  0.00  0.00    +0.000 A 
ATOM     29  C   UNL     1       1.413  11.843  18.733  0.00  0.00    +0.000 A 
ATOM     30  C   UNL     1       2.570  12.249  18.072  0.00  0.00    +0.000 A 
ATOM     31  C   UNL     1       3.171  13.483  18.403  0.00  0.00    +0.000 A 
BRANCH  26  35
ATOM     32  N   UNL     1       4.494  15.170  21.503  0.00  0.00    +0.000 NA
ATOM     33  C   UNL     1       4.013  15.942  20.614  0.00  0.00    +0.000 C 
ATOM     34  N   UNL     1       4.408  17.245  20.556  0.00  0.00    +0.000 N 
ATOM     35  N   UNL     1       3.091  15.625  19.663  0.00  0.00    +0.000 N 
ATOM     36  H   UNL     1       5.158  15.662  22.084  0.00  0.00    +0.000 HD
ATOM     37  H   UNL     1       4.881  17.582  21.396  0.00  0.00    +0.000 HD
ATOM     38  H   UNL     1       3.760  17.924  20.196  0.00  0.00    +0.000 HD
ATOM     39  H   UNL     1       2.770  16.361  19.048  0.00  0.00    +0.000 HD
ENDBRANCH  26  35
ENDBRANCH  25  29
ENDBRANCH   1  25
TORSDOF 16
ENDMDL
MODEL 5
REMARK VINA RESULT:      -6.9      2.439      3.163
REMARK  Name = 
REMARK  16 active torsions:
REMARK  status: ('A' for Active; 'I' for Inactive)
REMARK    1  A    between atoms: N_4  and  C_5
REMARK    2  A    between atoms: C_8  and  O_9
REMARK    3  A    between atoms: O_9  and  C_10
REMARK    4  A    between atoms: C_13  and  N_14
REMARK    5  A    between atoms: C_15  and  C_17
REMARK    6  A    between atoms: C_17  and  C_18
REMARK    7  A    between atoms: C_18  and  C_19
REMARK    8  A    between atoms: C_19  and  C_20
REMARK    9  A    between atoms: C_20  and  C_21
REMARK   10  A    between atoms: C_21  and  C_22
REMARK   11  A    between atoms: C_22  and  C_23
REMARK   12  A    between atoms: C_23  and  C_24
REMARK   13  A    between atoms: C_24  and  C_25
REMARK   14  A    between atoms: C_25  and  C_26
REMARK   15  A    between atoms: C_26  and  C_27
REMARK   16  A    between atoms: C_27  and  N_28
REMARK                            x       y       z     vdW  Elec       q    Type
REMARK                         _______ _______ _______ _____ _____    ______ ____
ROOT
ATOM      1  C   UNL     1       1.644   9.039  18.962  0.00  0.00    +0.000 A 
ATOM      2  C   UNL     1       1.323   8.497  20.209  0.00  0.00    +0.000 A 
ATOM      3  C   UNL     1       1.670   7.197  20.535  0.00  0.00    +0.000 A 
ATOM      4  C   UNL     1       2.254   6.354  19.605  0.00  0.00    +0.000 A 
ATOM      5  C   UNL     1       2.584   6.878  18.341  0.00  0.00    +0.000 A 
ATOM      6  C   UNL     1       2.277   8.223  18.025  0.00  0.00    +0.000 A 
ENDROOT
BRANCH   4   7
ATOM      7  N   UNL     1       2.497   4.997  19.922  0.00  0.00    +0.000 N 
ATOM      8  C   UNL     1       1.889   3.931  19.262  0.00  0.00    +0.000 C 
ATOM      9  O   UNL     1       1.073   4.001  18.346  0.00  0.00    +0.000 OA
ATOM     10  H   UNL     1       3.246   4.800  20.573  0.00  0.00    +0.000 HD
BRANCH   8  11
ATOM     11  C   UNL     1       2.375   2.564  19.696  0.00  0.00    +0.000 C 
BRANCH  11  12
ATOM     12  C   UNL     1       3.603   2.164  18.876  0.00  0.00    +0.000 C 
BRANCH  12  13
ATOM     13  C   UNL     1       3.997   3.224  17.850  0.00  0.00    +0.000 C 
BRANCH  13  14
ATOM     14  C   UNL     1       5.389   3.759  18.166  0.00  0.00    +0.000 C 
BRANCH  14  15
ATOM     15  C   UNL     1       5.522   5.216  17.746  0.00  0.00    +0.000 C 
BRANCH  15  16
ATOM     16  C   UNL     1       5.484   5.349  16.227  0.00  0.00    +0.000 C 
BRANCH  16  17
ATOM     17  C   UNL     1       6.879   5.144  15.645  0.00  0.00    +0.000 C 
BRANCH  17  18
ATOM     18  C   UNL     1       6.831   5.032  14.126  0.00  0.00    +0.000 C 
BRANCH  18  19
ATOM     19  C   UNL     1       6.037   3.799  13.703  0.00  0.00    +0.000 C 
BRANCH  19  20
ATOM     20  C   UNL     1       6.473   3.316  12.322  0.00  0.00    +0.000 C 
BRANCH  20  21
ATOM     21  C   UNL     1       5.402   2.430  11.693  0.00  0.00    +0.000 C 
BRANCH  21  22
ATOM     22  N   UNL     1       5.963   1.130  11.355  0.00  0.00    +0.000 NA
ATOM     23  H   UNL     1       6.780   1.254  10.757  0.00  0.00    +0.000 HD
ATOM     24  H   UNL     1       5.288   0.603  10.802  0.00  0.00    +0.000 HD
ENDBRANCH  21  22
ENDBRANCH  20  21
ENDBRANCH  19  20
ENDBRANCH  18  19
ENDBRANCH  17  18
ENDBRANCH  16  17
ENDBRANCH  15  16
ENDBRANCH  14  15
ENDBRANCH  13  14
ENDBRANCH  12  13
ENDBRANCH  11  12
ENDBRANCH   8  11
ENDBRANCH   4   7
BRANCH   1  25
ATOM     25  O   UNL     1       1.357  10.366  18.645  0.00  0.00    +0.000 OA
BRANCH  25  29
ATOM     26  C   UNL     1      -2.562  11.405  17.490  0.00  0.00    +0.000 A 
ATOM     27  C   UNL     1      -1.993  10.187  17.100  0.00  0.00    +0.000 A 
ATOM     28  C   UNL     1      -0.743   9.800  17.567  0.00  0.00    +0.000 A 
ATOM     29  C   UNL     1       0.039  10.671  18.343  0.00  0.00    +0.000 A 
ATOM     30  C   UNL     1      -0.534  11.857  18.794  0.00  0.00    +0.000 A 
ATOM     31  C   UNL     1      -1.847  12.197  18.399  0.00  0.00    +0.000 A 
BRANCH  26  35
ATOM     32  N   UNL     1      -5.221  11.398  18.898  0.00  0.00    +0.000 NA
ATOM     33  C   UNL     1      -5.021  11.765  17.697  0.00  0.00    +0.000 C 
ATOM     34  N   UNL     1      -6.051  12.264  16.957  0.00  0.00    +0.000 N 
ATOM     35  N   UNL     1      -3.848  11.713  17.006  0.00  0.00    +0.000 N 
ATOM     36  H   UNL     1      -6.184  11.541  19.162  0.00  0.00    +0.000 HD
ATOM     37  H   UNL     1      -6.978  12.073  17.339  0.00  0.00    +0.000 HD
ATOM     38  H   UNL     1      -6.026  12.138  15.960  0.00  0.00    +0.000 HD
ATOM     39  H   UNL     1      -3.855  12.003  16.038  0.00  0.00    +0.000 HD
ENDBRANCH  26  35
ENDBRANCH  25  29
ENDBRANCH   1  25
TORSDOF 16
ENDMDL
MODEL 6
REMARK VINA RESULT:      -6.7      3.651      4.585
REMARK  Name = 
REMARK  16 active torsions:
REMARK  status: ('A' for Active; 'I' for Inactive)
REMARK    1  A    between atoms: N_4  and  C_5
REMARK    2  A    between atoms: C_8  and  O_9
REMARK    3  A    between atoms: O_9  and  C_10
REMARK    4  A    between atoms: C_13  and  N_14
REMARK    5  A    between atoms: C_15  and  C_17
REMARK    6  A    between atoms: C_17  and  C_18
REMARK    7  A    between atoms: C_18  and  C_19
REMARK    8  A    between atoms: C_19  and  C_20
REMARK    9  A    between atoms: C_20  and  C_21
REMARK   10  A    between atoms: C_21  and  C_22
REMARK   11  A    between atoms: C_22  and  C_23
REMARK   12  A    between atoms: C_23  and  C_24
REMARK   13  A    between atoms: C_24  and  C_25
REMARK   14  A    between atoms: C_25  and  C_26
REMARK   15  A    between atoms: C_26  and  C_27
REMARK   16  A    between atoms: C_27  and  N_28
REMARK                            x       y       z     vdW  Elec       q    Type
REMARK                         _______ _______ _______ _____ _____    ______ ____
ROOT
ATOM      1  C   UNL     1       1.260   9.522  19.004  0.00  0.00    +0.000 A 
ATOM      2  C   UNL     1       2.029   8.566  18.336  0.00  0.00    +0.000 A 
ATOM      3  C   UNL     1       2.332   7.351  18.927  0.00  0.00    +0.000 A 
ATOM      4  C   UNL     1       1.973   7.079  20.236  0.00  0.00    +0.000 A 
ATOM      5  C   UNL     1       1.200   8.029  20.930  0.00  0.00    +0.000 A 
ATOM      6  C   UNL     1       0.845   9.249  20.308  0.00  0.00    +0.000 A 
ENDROOT
BRANCH   4   7
ATOM      7  N   UNL     1       2.390   5.877  20.857  0.00  0.00    +0.000 N 
ATOM      8  C   UNL     1       1.666   4.688  20.797  0.00  0.00    +0.000 C 
ATOM      9  O   UNL     1       0.593   4.508  20.228  0.00  0.00    +0.000 OA
ATOM     10  H   UNL     1       3.321   5.858  21.252  0.00  0.00    +0.000 HD
BRANCH   8  11
ATOM     11  C   UNL     1       2.350   3.503  21.446  0.00  0.00    +0.000 C 
BRANCH  11  12
ATOM     12  C   UNL     1       2.466   2.356  20.441  0.00  0.00    +0.000 C 
BRANCH  12  13
ATOM     13  C   UNL     1       3.516   2.621  19.363  0.00  0.00    +0.000 C 
BRANCH  13  14
ATOM     14  C   UNL     1       2.907   2.405  17.982  0.00  0.00    +0.000 C 
BRANCH  14  15
ATOM     15  C   UNL     1       3.060   3.649  17.119  0.00  0.00    +0.000 C 
BRANCH  15  16
ATOM     16  C   UNL     1       4.508   4.127  17.105  0.00  0.00    +0.000 C 
BRANCH  16  17
ATOM     17  C   UNL     1       4.566   5.624  16.822  0.00  0.00    +0.000 C 
BRANCH  17  18
ATOM     18  C   UNL     1       5.696   5.959  15.856  0.00  0.00    +0.000 C 
BRANCH  18  19
ATOM     19  C   UNL     1       6.599   4.747  15.644  0.00  0.00    +0.000 C 
BRANCH  19  20
ATOM     20  C   UNL     1       6.913   4.552  14.163  0.00  0.00    +0.000 C 
BRANCH  20  21
ATOM     21  C   UNL     1       5.796   3.781  13.467  0.00  0.00    +0.000 C 
BRANCH  21  22
ATOM     22  N   UNL     1       6.345   2.967  12.390  0.00  0.00    +0.000 NA
ATOM     23  H   UNL     1       5.589   2.478  11.912  0.00  0.00    +0.000 HD
ATOM     24  H   UNL     1       6.943   2.243  12.785  0.00  0.00    +0.000 HD
ENDBRANCH  21  22
ENDBRANCH  20  21
ENDBRANCH  19  20
ENDBRANCH  18  19
ENDBRANCH  17  18
ENDBRANCH  16  17
ENDBRANCH  15  16
ENDBRANCH  14  15
ENDBRANCH  13  14
ENDBRANCH  12  13
ENDBRANCH  11  12
ENDBRANCH   8  11
ENDBRANCH   4   7
BRANCH   1  25
ATOM     25  O   UNL     1       0.894  10.722  18.398  0.00  0.00    +0.000 OA
BRANCH  25  29
ATOM     26  C   UNL     1       2.571  14.374  19.674  0.00  0.00    +0.000 A 
ATOM     27  C   UNL     1       1.571  13.739  20.419  0.00  0.00    +0.000 A 
ATOM     28  C   UNL     1       1.093  12.487  20.053  0.00  0.00    +0.000 A 
ATOM     29  C   UNL     1       1.510  11.875  18.860  0.00  0.00    +0.000 A 
ATOM     30  C   UNL     1       2.549  12.459  18.141  0.00  0.00    +0.000 A 
ATOM     31  C   UNL     1       3.103  13.683  18.575  0.00  0.00    +0.000 A 
BRANCH  26  35
ATOM     32  N   UNL     1       1.865  17.151  18.758  0.00  0.00    +0.000 NA
ATOM     33  C   UNL     1       2.633  16.866  19.730  0.00  0.00    +0.000 C 
ATOM     34  N   UNL     1       3.161  17.862  20.496  0.00  0.00    +0.000 N 
ATOM     35  N   UNL     1       3.031  15.625  20.126  0.00  0.00    +0.000 N 
ATOM     36  H   UNL     1       1.735  18.149  18.683  0.00  0.00    +0.000 HD
ATOM     37  H   UNL     1       3.104  18.792  20.079  0.00  0.00    +0.000 HD
ATOM     38  H   UNL     1       4.051  17.704  20.935  0.00  0.00    +0.000 HD
ATOM     39  H   UNL     1       3.683  15.559  20.896  0.00  0.00    +0.000 HD
ENDBRANCH  26  35
ENDBRANCH  25  29
ENDBRANCH   1  25
TORSDOF 16
ENDMDL
MODEL 7
REMARK VINA RESULT:      -6.7      2.731      3.451
REMARK  Name = 
REMARK  16 active torsions:
REMARK  status: ('A' for Active; 'I' for Inactive)
REMARK    1  A    between atoms: N_4  and  C_5
REMARK    2  A    between atoms: C_8  and  O_9
REMARK    3  A    between atoms: O_9  and  C_10
REMARK    4  A    between atoms: C_13  and  N_14
REMARK    5  A    between atoms: C_15  and  C_17
REMARK    6  A    between atoms: C_17  and  C_18
REMARK    7  A    between atoms: C_18  and  C_19
REMARK    8  A    between atoms: C_19  and  C_20
REMARK    9  A    between atoms: C_20  and  C_21
REMARK   10  A    between atoms: C_21  and  C_22
REMARK   11  A    between atoms: C_22  and  C_23
REMARK   12  A    between atoms: C_23  and  C_24
REMARK   13  A    between atoms: C_24  and  C_25
REMARK   14  A    between atoms: C_25  and  C_26
REMARK   15  A    between atoms: C_26  and  C_27
REMARK   16  A    between atoms: C_27  and  N_28
REMARK                            x       y       z     vdW  Elec       q    Type
REMARK                         _______ _______ _______ _____ _____    ______ ____
ROOT
ATOM      1  C   UNL     1       0.765   9.810  19.365  0.00  0.00    +0.000 A 
ATOM      2  C   UNL     1       0.356   9.346  20.617  0.00  0.00    +0.000 A 
ATOM      3  C   UNL     1       0.878   8.181  21.155  0.00  0.00    +0.000 A 
ATOM      4  C   UNL     1       1.745   7.381  20.430  0.00  0.00    +0.000 A 
ATOM      5  C   UNL     1       2.169   7.828  19.165  0.00  0.00    +0.000 A 
ATOM      6  C   UNL     1       1.677   9.044  18.637  0.00  0.00    +0.000 A 
ENDROOT
BRANCH   4   7
ATOM      7  N   UNL     1       2.179   6.139  20.953  0.00  0.00    +0.000 N 
ATOM      8  C   UNL     1       1.819   4.907  20.409  0.00  0.00    +0.000 C 
ATOM      9  O   UNL     1       1.092   4.715  19.438  0.00  0.00    +0.000 OA
ATOM     10  H   UNL     1       2.885   6.162  21.676  0.00  0.00    +0.000 HD
BRANCH   8  11
ATOM     11  C   UNL     1       2.481   3.714  21.065  0.00  0.00    +0.000 C 
BRANCH  11  12
ATOM     12  C   UNL     1       2.694   2.605  20.034  0.00  0.00    +0.000 C 
BRANCH  12  13
ATOM     13  C   UNL     1       4.171   2.312  19.780  0.00  0.00    +0.000 C 
BRANCH  13  14
ATOM     14  C   UNL     1       4.865   3.563  19.251  0.00  0.00    +0.000 C 
BRANCH  14  15
ATOM     15  C   UNL     1       4.439   3.858  17.820  0.00  0.00    +0.000 C 
BRANCH  15  16
ATOM     16  C   UNL     1       4.278   5.358  17.600  0.00  0.00    +0.000 C 
BRANCH  16  17
ATOM     17  C   UNL     1       5.016   5.789  16.337  0.00  0.00    +0.000 C 
BRANCH  17  18
ATOM     18  C   UNL     1       6.519   5.870  16.579  0.00  0.00    +0.000 C 
BRANCH  18  19
ATOM     19  C   UNL     1       6.881   7.181  17.272  0.00  0.00    +0.000 C 
BRANCH  19  20
ATOM     20  C   UNL     1       7.882   6.944  18.399  0.00  0.00    +0.000 C 
BRANCH  20  21
ATOM     21  C   UNL     1       7.840   5.493  18.868  0.00  0.00    +0.000 C 
BRANCH  21  22
ATOM     22  N   UNL     1       8.043   5.425  20.309  0.00  0.00    +0.000 NA
ATOM     23  H   UNL     1       7.944   4.460  20.624  0.00  0.00    +0.000 HD
ATOM     24  H   UNL     1       7.308   5.951  20.779  0.00  0.00    +0.000 HD
ENDBRANCH  21  22
ENDBRANCH  20  21
ENDBRANCH  19  20
ENDBRANCH  18  19
ENDBRANCH  17  18
ENDBRANCH  16  17
ENDBRANCH  15  16
ENDBRANCH  14  15
ENDBRANCH  13  14
ENDBRANCH  12  13
ENDBRANCH  11  12
ENDBRANCH   8  11
ENDBRANCH   4   7
BRANCH   1  25
ATOM     25  O   UNL     1       0.296  11.012  18.841  0.00  0.00    +0.000 OA
BRANCH  25  29
ATOM     26  C   UNL     1      -0.061  14.424  21.294  0.00  0.00    +0.000 A 
ATOM     27  C   UNL     1      -1.193  13.791  20.768  0.00  0.00    +0.000 A 
ATOM     28  C   UNL     1      -1.081  12.608  20.047  0.00  0.00    +0.000 A 
ATOM     29  C   UNL     1       0.178  12.079  19.719  0.00  0.00    +0.000 A 
ATOM     30  C   UNL     1       1.311  12.657  20.287  0.00  0.00    +0.000 A 
ATOM     31  C   UNL     1       1.181  13.800  21.105  0.00  0.00    +0.000 A 
BRANCH  26  35
ATOM     32  N   UNL     1      -0.811  14.778  24.186  0.00  0.00    +0.000 NA
ATOM     33  C   UNL     1      -0.528  15.716  23.375  0.00  0.00    +0.000 C 
ATOM     34  N   UNL     1      -0.485  17.006  23.813  0.00  0.00    +0.000 N 
ATOM     35  N   UNL     1      -0.256  15.598  22.045  0.00  0.00    +0.000 N 
ATOM     36  H   UNL     1      -0.972  15.142  25.113  0.00  0.00    +0.000 HD
ATOM     37  H   UNL     1      -0.934  17.161  24.716  0.00  0.00    +0.000 HD
ATOM     38  H   UNL     1      -0.701  17.738  23.159  0.00  0.00    +0.000 HD
ATOM     39  H   UNL     1      -0.089  16.445  21.518  0.00  0.00    +0.000 HD
ENDBRANCH  26  35
ENDBRANCH  25  29
ENDBRANCH   1  25
TORSDOF 16
ENDMDL
MODEL 8
REMARK VINA RESULT:      -6.6      2.055      2.523
REMARK  Name = 
REMARK  16 active torsions:
REMARK  status: ('A' for Active; 'I' for Inactive)
REMARK    1  A    between atoms: N_4  and  C_5
REMARK    2  A    between atoms: C_8  and  O_9
REMARK    3  A    between atoms: O_9  and  C_10
REMARK    4  A    between atoms: C_13  and  N_14
REMARK    5  A    between atoms: C_15  and  C_17
REMARK    6  A    between atoms: C_17  and  C_18
REMARK    7  A    between atoms: C_18  and  C_19
REMARK    8  A    between atoms: C_19  and  C_20
REMARK    9  A    between atoms: C_20  and  C_21
REMARK   10  A    between atoms: C_21  and  C_22
REMARK   11  A    between atoms: C_22  and  C_23
REMARK   12  A    between atoms: C_23  and  C_24
REMARK   13  A    between atoms: C_24  and  C_25
REMARK   14  A    between atoms: C_25  and  C_26
REMARK   15  A    between atoms: C_26  and  C_27
REMARK   16  A    between atoms: C_27  and  N_28
REMARK                            x       y       z     vdW  Elec       q    Type
REMARK                         _______ _______ _______ _____ _____    ______ ____
ROOT
ATOM      1  C   UNL     1       1.847   8.853  18.653  0.00  0.00    +0.000 A 
ATOM      2  C   UNL     1       2.496   7.752  18.089  0.00  0.00    +0.000 A 
ATOM      3  C   UNL     1       2.650   6.571  18.797  0.00  0.00    +0.000 A 
ATOM      4  C   UNL     1       2.258   6.471  20.121  0.00  0.00    +0.000 A 
ATOM      5  C   UNL     1       1.604   7.570  20.711  0.00  0.00    +0.000 A 
ATOM      6  C   UNL     1       1.399   8.758  19.971  0.00  0.00    +0.000 A 
ENDROOT
BRANCH   4   7
ATOM      7  N   UNL     1       2.526   5.294  20.860  0.00  0.00    +0.000 N 
ATOM      8  C   UNL     1       1.676   4.190  20.883  0.00  0.00    +0.000 C 
ATOM      9  O   UNL     1       0.601   4.076  20.299  0.00  0.00    +0.000 OA
ATOM     10  H   UNL     1       3.441   5.210  21.283  0.00  0.00    +0.000 HD
BRANCH   8  11
ATOM     11  C   UNL     1       2.211   3.003  21.656  0.00  0.00    +0.000 C 
BRANCH  11  12
ATOM     12  C   UNL     1       3.250   2.260  20.814  0.00  0.00    +0.000 C 
BRANCH  12  13
ATOM     13  C   UNL     1       2.885   2.217  19.331  0.00  0.00    +0.000 C 
BRANCH  13  14
ATOM     14  C   UNL     1       3.996   2.856  18.505  0.00  0.00    +0.000 C 
BRANCH  14  15
ATOM     15  C   UNL     1       3.437   3.495  17.242  0.00  0.00    +0.000 C 
BRANCH  15  16
ATOM     16  C   UNL     1       4.553   4.115  16.408  0.00  0.00    +0.000 C 
BRANCH  16  17
ATOM     17  C   UNL     1       5.691   4.578  17.310  0.00  0.00    +0.000 C 
BRANCH  17  18
ATOM     18  C   UNL     1       6.620   5.540  16.578  0.00  0.00    +0.000 C 
BRANCH  18  19
ATOM     19  C   UNL     1       6.679   6.883  17.299  0.00  0.00    +0.000 C 
BRANCH  19  20
ATOM     20  C   UNL     1       7.771   6.884  18.364  0.00  0.00    +0.000 C 
BRANCH  20  21
ATOM     21  C   UNL     1       7.959   5.488  18.952  0.00  0.00    +0.000 C 
BRANCH  21  22
ATOM     22  N   UNL     1       8.102   5.569  20.399  0.00  0.00    +0.000 NA
ATOM     23  H   UNL     1       8.665   4.786  20.731  0.00  0.00    +0.000 HD
ATOM     24  H   UNL     1       7.188   5.463  20.836  0.00  0.00    +0.000 HD
ENDBRANCH  21  22
ENDBRANCH  20  21
ENDBRANCH  19  20
ENDBRANCH  18  19
ENDBRANCH  17  18
ENDBRANCH  16  17
ENDBRANCH  15  16
ENDBRANCH  14  15
ENDBRANCH  13  14
ENDBRANCH  12  13
ENDBRANCH  11  12
ENDBRANCH   8  11
ENDBRANCH   4   7
BRANCH   1  25
ATOM     25  O   UNL     1       1.629  10.024  17.930  0.00  0.00    +0.000 OA
BRANCH  25  29
ATOM     26  C   UNL     1      -0.489  12.961  20.089  0.00  0.00    +0.000 A 
ATOM     27  C   UNL     1       0.886  13.084  19.861  0.00  0.00    +0.000 A 
ATOM     28  C   UNL     1       1.563  12.170  19.063  0.00  0.00    +0.000 A 
ATOM     29  C   UNL     1       0.914  11.030  18.561  0.00  0.00    +0.000 A 
ATOM     30  C   UNL     1      -0.465  10.925  18.722  0.00  0.00    +0.000 A 
ATOM     31  C   UNL     1      -1.165  11.912  19.448  0.00  0.00    +0.000 A 
BRANCH  26  35
ATOM     32  N   UNL     1      -1.173  12.955  23.019  0.00  0.00    +0.000 NA
ATOM     33  C   UNL     1      -1.343  13.931  22.222  0.00  0.00    +0.000 C 
ATOM     34  N   UNL     1      -1.815  15.121  22.691  0.00  0.00    +0.000 N 
ATOM     35  N   UNL     1      -1.114  13.945  20.879  0.00  0.00    +0.000 N 
ATOM     36  H   UNL     1      -1.423  13.214  23.962  0.00  0.00    +0.000 HD
ATOM     37  H   UNL     1      -2.242  15.071  23.617  0.00  0.00    +0.000 HD
ATOM     38  H   UNL     1      -2.345  15.703  22.067  0.00  0.00    +0.000 HD
ATOM     39  H   UNL     1      -1.338  14.788  20.368  0.00  0.00    +0.000 HD
ENDBRANCH  26  35
ENDBRANCH  25  29
ENDBRANCH   1  25
TORSDOF 16
ENDMDL
MODEL 9
REMARK VINA RESULT:      -6.6      1.703      2.658
REMARK  Name = 
REMARK  16 active torsions:
REMARK  status: ('A' for Active; 'I' for Inactive)
REMARK    1  A    between atoms: N_4  and  C_5
REMARK    2  A    between atoms: C_8  and  O_9
REMARK    3  A    between atoms: O_9  and  C_10
REMARK    4  A    between atoms: C_13  and  N_14
REMARK    5  A    between atoms: C_15  and  C_17
REMARK    6  A    between atoms: C_17  and  C_18
REMARK    7  A    between atoms: C_18  and  C_19
REMARK    8  A    between atoms: C_19  and  C_20
REMARK    9  A    between atoms: C_20  and  C_21
REMARK   10  A    between atoms: C_21  and  C_22
REMARK   11  A    between atoms: C_22  and  C_23
REMARK   12  A    between atoms: C_23  and  C_24
REMARK   13  A    between atoms: C_24  and  C_25
REMARK   14  A    between atoms: C_25  and  C_26
REMARK   15  A    between atoms: C_26  and  C_27
REMARK   16  A    between atoms: C_27  and  N_28
REMARK                            x       y       z     vdW  Elec       q    Type
REMARK                         _______ _______ _______ _____ _____    ______ ____
ROOT
ATOM      1  C   UNL     1       0.362  11.072  19.284  0.00  0.00    +0.000 A 
ATOM      2  C   UNL     1       1.105  10.305  18.384  0.00  0.00    +0.000 A 
ATOM      3  C   UNL     1       1.617   9.070  18.748  0.00  0.00    +0.000 A 
ATOM      4  C   UNL     1       1.500   8.597  20.043  0.00  0.00    +0.000 A 
ATOM      5  C   UNL     1       0.757   9.355  20.968  0.00  0.00    +0.000 A 
ATOM      6  C   UNL     1       0.189  10.592  20.583  0.00  0.00    +0.000 A 
ENDROOT
BRANCH   4   7
ATOM      7  N   UNL     1       2.126   7.386  20.422  0.00  0.00    +0.000 N 
ATOM      8  C   UNL     1       2.485   6.389  19.517  0.00  0.00    +0.000 C 
ATOM      9  O   UNL     1       2.311   6.401  18.301  0.00  0.00    +0.000 OA
ATOM     10  H   UNL     1       2.440   7.306  21.380  0.00  0.00    +0.000 HD
BRANCH   8  11
ATOM     11  C   UNL     1       3.236   5.225  20.130  0.00  0.00    +0.000 C 
BRANCH  11  12
ATOM     12  C   UNL     1       2.341   4.502  21.137  0.00  0.00    +0.000 C 
BRANCH  12  13
ATOM     13  C   UNL     1       1.080   3.925  20.497  0.00  0.00    +0.000 C 
BRANCH  13  14
ATOM     14  C   UNL     1       1.342   2.497  20.031  0.00  0.00    +0.000 C 
BRANCH  14  15
ATOM     15  C   UNL     1       1.165   2.374  18.524  0.00  0.00    +0.000 C 
BRANCH  15  16
ATOM     16  C   UNL     1       2.500   2.099  17.841  0.00  0.00    +0.000 C 
BRANCH  16  17
ATOM     17  C   UNL     1       2.936   3.312  17.027  0.00  0.00    +0.000 C 
BRANCH  17  18
ATOM     18  C   UNL     1       4.401   3.649  17.281  0.00  0.00    +0.000 C 
BRANCH  18  19
ATOM     19  C   UNL     1       4.936   4.573  16.191  0.00  0.00    +0.000 C 
BRANCH  19  20
ATOM     20  C   UNL     1       5.429   5.890  16.784  0.00  0.00    +0.000 C 
BRANCH  20  21
ATOM     21  C   UNL     1       6.954   5.935  16.818  0.00  0.00    +0.000 C 
BRANCH  21  22
ATOM     22  N   UNL     1       7.411   7.309  16.970  0.00  0.00    +0.000 NA
ATOM     23  H   UNL     1       8.357   7.398  16.600  0.00  0.00    +0.000 HD
ATOM     24  H   UNL     1       7.475   7.537  17.961  0.00  0.00    +0.000 HD
ENDBRANCH  21  22
ENDBRANCH  20  21
ENDBRANCH  19  20
ENDBRANCH  18  19
ENDBRANCH  17  18
ENDBRANCH  16  17
ENDBRANCH  15  16
ENDBRANCH  14  15
ENDBRANCH  13  14
ENDBRANCH  12  13
ENDBRANCH  11  12
ENDBRANCH   8  11
ENDBRANCH   4   7
BRANCH   1  25
ATOM     25  O   UNL     1      -0.211  12.286  18.912  0.00  0.00    +0.000 OA
BRANCH  25  29
ATOM     26  C   UNL     1      -4.276  12.625  19.982  0.00  0.00    +0.000 A 
ATOM     27  C   UNL     1      -3.291  13.369  20.641  0.00  0.00    +0.000 A 
ATOM     28  C   UNL     1      -1.968  13.335  20.220  0.00  0.00    +0.000 A 
ATOM     29  C   UNL     1      -1.556  12.462  19.200  0.00  0.00    +0.000 A 
ATOM     30  C   UNL     1      -2.530  11.763  18.490  0.00  0.00    +0.000 A 
ATOM     31  C   UNL     1      -3.888  11.881  18.858  0.00  0.00    +0.000 A 
BRANCH  26  35
ATOM     32  N   UNL     1      -6.449  14.550  19.193  0.00  0.00    +0.000 NA
ATOM     33  C   UNL     1      -6.578  13.582  20.007  0.00  0.00    +0.000 C 
ATOM     34  N   UNL     1      -7.797  13.309  20.553  0.00  0.00    +0.000 N 
ATOM     35  N   UNL     1      -5.602  12.738  20.442  0.00  0.00    +0.000 N 
ATOM     36  H   UNL     1      -7.332  15.016  19.045  0.00  0.00    +0.000 HD
ATOM     37  H   UNL     1      -8.479  14.063  20.464  0.00  0.00    +0.000 HD
ATOM     38  H   UNL     1      -7.827  12.885  21.463  0.00  0.00    +0.000 HD
ATOM     39  H   UNL     1      -5.850  12.037  21.127  0.00  0.00    +0.000 HD
ENDBRANCH  26  35
ENDBRANCH  25  29
ENDBRANCH   1  25
TORSDOF 16
ENDMDL
