MODEL 1
REMARK VINA RESULT:      -8.4      0.000      0.000
REMARK  Name = 
REMARK  3 active torsions:
REMARK  status: ('A' for Active; 'I' for Inactive)
REMARK    1  A    between atoms: C_4  and  C_5
REMARK    2  A    between atoms: N_8  and  C_9
REMARK    3  A    between atoms: C_9  and  C_10
REMARK                            x       y       z     vdW  Elec       q    Type
REMARK                         _______ _______ _______ _____ _____    ______ ____
ROOT
ATOM      1  C   UNL     1       7.035   4.658  16.209  0.00  0.00    +0.000 A 
ATOM      2  N   UNL     1       8.058   4.241  17.052  0.00  0.00    +0.000 NA
ATOM      3  N   UNL     1       7.710   4.596  18.301  0.00  0.00    +0.000 NA
ATOM      4  N   UNL     1       6.499   5.185  18.155  0.00  0.00    +0.000 N 
ATOM      5  N   UNL     1       6.063   5.263  16.890  0.00  0.00    +0.000 NA
ENDROOT
BRANCH   1   9
ATOM      6  C   UNL     1       6.817   4.261  11.890  0.00  0.00    +0.000 A 
ATOM      7  C   UNL     1       5.984   3.514  12.718  0.00  0.00    +0.000 A 
ATOM      8  C   UNL     1       5.998   3.698  14.119  0.00  0.00    +0.000 A 
ATOM      9  C   UNL     1       6.948   4.517  14.740  0.00  0.00    +0.000 A 
ATOM     10  C   UNL     1       7.764   5.286  13.883  0.00  0.00    +0.000 A 
ATOM     11  C   UNL     1       7.704   5.154  12.478  0.00  0.00    +0.000 A 
ENDBRANCH   1   9
BRANCH   4  12
ATOM     12  C   UNL     1       5.652   5.666  19.246  0.00  0.00    +0.000 C 
BRANCH  12  13
ATOM     13  C   UNL     1       4.190   5.448  18.914  0.00  0.00    +0.000 A 
ATOM     14  N   UNL     1       3.379   6.435  18.528  0.00  0.00    +0.000 NA
ATOM     15  N   UNL     1       2.176   5.877  18.162  0.00  0.00    +0.000 NA
ATOM     16  C   UNL     1       2.224   4.586  18.415  0.00  0.00    +0.000 A 
ATOM     17  C   UNL     1       1.355   3.493  18.186  0.00  0.00    +0.000 A 
ATOM     18  C   UNL     1       1.679   2.227  18.539  0.00  0.00    +0.000 A 
ATOM     19  C   UNL     1       3.073   1.693  18.554  0.00  0.00    +0.000 A 
ATOM     20  C   UNL     1       3.853   2.791  18.820  0.00  0.00    +0.000 A 
ATOM     21  N   UNL     1       3.501   4.202  18.759  0.00  0.00    +0.000 N 
ENDBRANCH  12  13
ENDBRANCH   4  12
TORSDOF 3
ENDMDL
MODEL 2
REMARK VINA RESULT:      -8.3      0.742      1.337
REMARK  Name = 
REMARK  3 active torsions:
REMARK  status: ('A' for Active; 'I' for Inactive)
REMARK    1  A    between atoms: C_4  and  C_5
REMARK    2  A    between atoms: N_8  and  C_9
REMARK    3  A    between atoms: C_9  and  C_10
REMARK                            x       y       z     vdW  Elec       q    Type
REMARK                         _______ _______ _______ _____ _____    ______ ____
ROOT
ATOM      1  C   UNL     1       6.848   5.422  15.953  0.00  0.00    +0.000 A 
ATOM      2  N   UNL     1       7.554   6.513  16.443  0.00  0.00    +0.000 NA
ATOM      3  N   UNL     1       7.263   6.616  17.751  0.00  0.00    +0.000 NA
ATOM      4  N   UNL     1       6.422   5.583  17.988  0.00  0.00    +0.000 N 
ATOM      5  N   UNL     1       6.125   4.843  16.910  0.00  0.00    +0.000 NA
ENDROOT
BRANCH   1   9
ATOM      6  C   UNL     1       6.721   3.878  11.895  0.00  0.00    +0.000 A 
ATOM      7  C   UNL     1       7.626   4.874  12.251  0.00  0.00    +0.000 A 
ATOM      8  C   UNL     1       7.723   5.323  13.588  0.00  0.00    +0.000 A 
ATOM      9  C   UNL     1       6.817   4.902  14.569  0.00  0.00    +0.000 A 
ATOM     10  C   UNL     1       5.927   3.873  14.195  0.00  0.00    +0.000 A 
ATOM     11  C   UNL     1       5.875   3.374  12.875  0.00  0.00    +0.000 A 
ENDBRANCH   1   9
BRANCH   4  12
ATOM     12  C   UNL     1       5.888   5.205  19.296  0.00  0.00    +0.000 C 
BRANCH  12  13
ATOM     13  C   UNL     1       4.374   5.137  19.248  0.00  0.00    +0.000 A 
ATOM     14  N   UNL     1       3.599   6.224  19.241  0.00  0.00    +0.000 NA
ATOM     15  N   UNL     1       2.301   5.816  19.041  0.00  0.00    +0.000 NA
ATOM     16  C   UNL     1       2.277   4.500  19.025  0.00  0.00    +0.000 A 
ATOM     17  C   UNL     1       1.281   3.525  18.781  0.00  0.00    +0.000 A 
ATOM     18  C   UNL     1       1.549   2.198  18.806  0.00  0.00    +0.000 A 
ATOM     19  C   UNL     1       2.861   1.602  18.420  0.00  0.00    +0.000 A 
ATOM     20  C   UNL     1       3.778   2.579  18.719  0.00  0.00    +0.000 A 
ATOM     21  N   UNL     1       3.555   3.988  19.007  0.00  0.00    +0.000 N 
ENDBRANCH  12  13
ENDBRANCH   4  12
TORSDOF 3
ENDMDL
MODEL 3
REMARK VINA RESULT:      -8.3      1.414      2.324
REMARK  Name = 
REMARK  3 active torsions:
REMARK  status: ('A' for Active; 'I' for Inactive)
REMARK    1  A    between atoms: C_4  and  C_5
REMARK    2  A    between atoms: N_8  and  C_9
REMARK    3  A    between atoms: C_9  and  C_10
REMARK                            x       y       z     vdW  Elec       q    Type
REMARK                         _______ _______ _______ _____ _____    ______ ____
ROOT
ATOM      1  C   UNL     1       6.469   4.741  14.506  0.00  0.00    +0.000 A 
ATOM      2  N   UNL     1       7.640   5.430  14.797  0.00  0.00    +0.000 NA
ATOM      3  N   UNL     1       7.456   6.038  15.982  0.00  0.00    +0.000 NA
ATOM      4  N   UNL     1       6.206   5.674  16.353  0.00  0.00    +0.000 N 
ATOM      5  N   UNL     1       5.562   4.901  15.467  0.00  0.00    +0.000 NA
ENDROOT
BRANCH   1   9
ATOM      6  C   UNL     1       5.605   2.338  10.993  0.00  0.00    +0.000 A 
ATOM      7  C   UNL     1       4.578   2.928  11.724  0.00  0.00    +0.000 A 
ATOM      8  C   UNL     1       4.859   3.775  12.820  0.00  0.00    +0.000 A 
ATOM      9  C   UNL     1       6.162   3.928  13.309  0.00  0.00    +0.000 A 
ATOM     10  C   UNL     1       7.191   3.345  12.539  0.00  0.00    +0.000 A 
ATOM     11  C   UNL     1       6.915   2.554  11.402  0.00  0.00    +0.000 A 
ENDBRANCH   1   9
BRANCH   4  12
ATOM     12  C   UNL     1       5.567   6.007  17.625  0.00  0.00    +0.000 C 
BRANCH  12  13
ATOM     13  C   UNL     1       5.101   4.748  18.327  0.00  0.00    +0.000 A 
ATOM     14  N   UNL     1       5.854   4.088  19.210  0.00  0.00    +0.000 NA
ATOM     15  N   UNL     1       5.083   3.093  19.765  0.00  0.00    +0.000 NA
ATOM     16  C   UNL     1       3.914   3.088  19.159  0.00  0.00    +0.000 A 
ATOM     17  C   UNL     1       2.704   2.376  19.335  0.00  0.00    +0.000 A 
ATOM     18  C   UNL     1       1.618   2.595  18.557  0.00  0.00    +0.000 A 
ATOM     19  C   UNL     1       1.274   3.916  17.954  0.00  0.00    +0.000 A 
ATOM     20  C   UNL     1       2.487   4.532  17.774  0.00  0.00    +0.000 A 
ATOM     21  N   UNL     1       3.784   4.184  18.336  0.00  0.00    +0.000 N 
ENDBRANCH  12  13
ENDBRANCH   4  12
TORSDOF 3
ENDMDL
MODEL 4
REMARK VINA RESULT:      -8.2      1.517      2.137
REMARK  Name = 
REMARK  3 active torsions:
REMARK  status: ('A' for Active; 'I' for Inactive)
REMARK    1  A    between atoms: C_4  and  C_5
REMARK    2  A    between atoms: N_8  and  C_9
REMARK    3  A    between atoms: C_9  and  C_10
REMARK                            x       y       z     vdW  Elec       q    Type
REMARK                         _______ _______ _______ _____ _____    ______ ____
ROOT
ATOM      1  C   UNL     1       6.442   5.334  15.511  0.00  0.00    +0.000 A 
ATOM      2  N   UNL     1       7.482   6.003  16.143  0.00  0.00    +0.000 NA
ATOM      3  N   UNL     1       7.017   6.424  17.332  0.00  0.00    +0.000 NA
ATOM      4  N   UNL     1       5.740   5.976  17.367  0.00  0.00    +0.000 N 
ATOM      5  N   UNL     1       5.344   5.326  16.264  0.00  0.00    +0.000 NA
ENDROOT
BRANCH   1   9
ATOM      6  C   UNL     1       6.484   3.478  11.585  0.00  0.00    +0.000 A 
ATOM      7  C   UNL     1       5.462   3.207  12.491  0.00  0.00    +0.000 A 
ATOM      8  C   UNL     1       5.403   3.870  13.738  0.00  0.00    +0.000 A 
ATOM      9  C   UNL     1       6.443   4.699  14.176  0.00  0.00    +0.000 A 
ATOM     10  C   UNL     1       7.454   4.981  13.234  0.00  0.00    +0.000 A 
ATOM     11  C   UNL     1       7.478   4.373  11.959  0.00  0.00    +0.000 A 
ENDBRANCH   1   9
BRANCH   4  12
ATOM     12  C   UNL     1       4.828   6.102  18.503  0.00  0.00    +0.000 C 
BRANCH  12  13
ATOM     13  C   UNL     1       4.502   4.734  19.071  0.00  0.00    +0.000 A 
ATOM     14  N   UNL     1       5.432   3.808  19.310  0.00  0.00    +0.000 NA
ATOM     15  N   UNL     1       4.825   2.756  19.957  0.00  0.00    +0.000 NA
ATOM     16  C   UNL     1       3.533   2.999  20.022  0.00  0.00    +0.000 A 
ATOM     17  C   UNL     1       2.427   2.354  20.624  0.00  0.00    +0.000 A 
ATOM     18  C   UNL     1       1.171   2.853  20.549  0.00  0.00    +0.000 A 
ATOM     19  C   UNL     1       0.853   4.310  20.478  0.00  0.00    +0.000 A 
ATOM     20  C   UNL     1       1.942   4.864  19.852  0.00  0.00    +0.000 A 
ATOM     21  N   UNL     1       3.256   4.285  19.614  0.00  0.00    +0.000 N 
ENDBRANCH  12  13
ENDBRANCH   4  12
TORSDOF 3
ENDMDL
MODEL 5
REMARK VINA RESULT:      -8.2      1.570      2.662
REMARK  Name = 
REMARK  3 active torsions:
REMARK  status: ('A' for Active; 'I' for Inactive)
REMARK    1  A    between atoms: C_4  and  C_5
REMARK    2  A    between atoms: N_8  and  C_9
REMARK    3  A    between atoms: C_9  and  C_10
REMARK                            x       y       z     vdW  Elec       q    Type
REMARK                         _______ _______ _______ _____ _____    ______ ____
ROOT
ATOM      1  C   UNL     1       5.850   5.423  15.539  0.00  0.00    +0.000 A 
ATOM      2  N   UNL     1       5.264   6.658  15.786  0.00  0.00    +0.000 NA
ATOM      3  N   UNL     1       5.112   6.765  17.117  0.00  0.00    +0.000 NA
ATOM      4  N   UNL     1       5.626   5.611  17.604  0.00  0.00    +0.000 N 
ATOM      5  N   UNL     1       6.066   4.756  16.671  0.00  0.00    +0.000 NA
ENDROOT
BRANCH   1   9
ATOM      6  C   UNL     1       6.863   3.660  11.701  0.00  0.00    +0.000 A 
ATOM      7  C   UNL     1       7.695   4.605  12.294  0.00  0.00    +0.000 A 
ATOM      8  C   UNL     1       7.409   5.122  13.579  0.00  0.00    +0.000 A 
ATOM      9  C   UNL     1       6.208   4.827  14.234  0.00  0.00    +0.000 A 
ATOM     10  C   UNL     1       5.392   3.848  13.631  0.00  0.00    +0.000 A 
ATOM     11  C   UNL     1       5.711   3.278  12.378  0.00  0.00    +0.000 A 
ENDBRANCH   1   9
BRANCH   4  12
ATOM     12  C   UNL     1       5.778   5.281  19.021  0.00  0.00    +0.000 C 
BRANCH  12  13
ATOM     13  C   UNL     1       4.836   4.157  19.404  0.00  0.00    +0.000 A 
ATOM     14  N   UNL     1       5.243   2.898  19.581  0.00  0.00    +0.000 NA
ATOM     15  N   UNL     1       4.179   2.173  20.065  0.00  0.00    +0.000 NA
ATOM     16  C   UNL     1       3.121   2.956  20.090  0.00  0.00    +0.000 A 
ATOM     17  C   UNL     1       1.791   2.817  20.551  0.00  0.00    +0.000 A 
ATOM     18  C   UNL     1       0.890   3.825  20.469  0.00  0.00    +0.000 A 
ATOM     19  C   UNL     1       1.244   5.272  20.555  0.00  0.00    +0.000 A 
ATOM     20  C   UNL     1       2.521   5.338  20.058  0.00  0.00    +0.000 A 
ATOM     21  N   UNL     1       3.471   4.260  19.823  0.00  0.00    +0.000 N 
ENDBRANCH  12  13
ENDBRANCH   4  12
TORSDOF 3
ENDMDL
MODEL 6
REMARK VINA RESULT:      -8.1      1.453      2.493
REMARK  Name = 
REMARK  3 active torsions:
REMARK  status: ('A' for Active; 'I' for Inactive)
REMARK    1  A    between atoms: C_4  and  C_5
REMARK    2  A    between atoms: N_8  and  C_9
REMARK    3  A    between atoms: C_9  and  C_10
REMARK                            x       y       z     vdW  Elec       q    Type
REMARK                         _______ _______ _______ _____ _____    ______ ____
ROOT
ATOM      1  C   UNL     1       6.487   4.730  14.434  0.00  0.00    +0.000 A 
ATOM      2  N   UNL     1       7.666   5.415  14.704  0.00  0.00    +0.000 NA
ATOM      3  N   UNL     1       7.501   6.035  15.885  0.00  0.00    +0.000 NA
ATOM      4  N   UNL     1       6.254   5.682  16.275  0.00  0.00    +0.000 N 
ATOM      5  N   UNL     1       5.594   4.905  15.405  0.00  0.00    +0.000 NA
ENDROOT
BRANCH   1   9
ATOM      6  C   UNL     1       5.491   2.334  10.951  0.00  0.00    +0.000 A 
ATOM      7  C   UNL     1       6.806   2.433  11.397  0.00  0.00    +0.000 A 
ATOM      8  C   UNL     1       7.123   3.147  12.575  0.00  0.00    +0.000 A 
ATOM      9  C   UNL     1       6.160   3.908  13.250  0.00  0.00    +0.000 A 
ATOM     10  C   UNL     1       4.830   3.773  12.799  0.00  0.00    +0.000 A 
ATOM     11  C   UNL     1       4.501   3.003  11.662  0.00  0.00    +0.000 A 
ENDBRANCH   1   9
BRANCH   4  12
ATOM     12  C   UNL     1       5.634   6.031  17.553  0.00  0.00    +0.000 C 
BRANCH  12  13
ATOM     13  C   UNL     1       5.154   4.782  18.266  0.00  0.00    +0.000 A 
ATOM     14  N   UNL     1       5.906   4.114  19.143  0.00  0.00    +0.000 NA
ATOM     15  N   UNL     1       5.126   3.134  19.710  0.00  0.00    +0.000 NA
ATOM     16  C   UNL     1       3.950   3.146  19.117  0.00  0.00    +0.000 A 
ATOM     17  C   UNL     1       2.731   2.454  19.310  0.00  0.00    +0.000 A 
ATOM     18  C   UNL     1       1.639   2.689  18.544  0.00  0.00    +0.000 A 
ATOM     19  C   UNL     1       1.310   4.013  17.939  0.00  0.00    +0.000 A 
ATOM     20  C   UNL     1       2.532   4.608  17.743  0.00  0.00    +0.000 A 
ATOM     21  N   UNL     1       3.829   4.241  18.292  0.00  0.00    +0.000 N 
ENDBRANCH  12  13
ENDBRANCH   4  12
TORSDOF 3
ENDMDL
MODEL 7
REMARK VINA RESULT:      -7.9      1.882      3.068
REMARK  Name = 
REMARK  3 active torsions:
REMARK  status: ('A' for Active; 'I' for Inactive)
REMARK    1  A    between atoms: C_4  and  C_5
REMARK    2  A    between atoms: N_8  and  C_9
REMARK    3  A    between atoms: C_9  and  C_10
REMARK                            x       y       z     vdW  Elec       q    Type
REMARK                         _______ _______ _______ _____ _____    ______ ____
ROOT
ATOM      1  C   UNL     1       6.545   4.336  14.243  0.00  0.00    +0.000 A 
ATOM      2  N   UNL     1       7.324   5.486  14.253  0.00  0.00    +0.000 NA
ATOM      3  N   UNL     1       7.601   5.764  15.539  0.00  0.00    +0.000 NA
ATOM      4  N   UNL     1       6.999   4.770  16.232  0.00  0.00    +0.000 N 
ATOM      5  N   UNL     1       6.324   3.891  15.478  0.00  0.00    +0.000 NA
ENDROOT
BRANCH   1   9
ATOM      6  C   UNL     1       4.884   2.244  10.819  0.00  0.00    +0.000 A 
ATOM      7  C   UNL     1       4.146   3.217  11.487  0.00  0.00    +0.000 A 
ATOM      8  C   UNL     1       4.712   3.955  12.552  0.00  0.00    +0.000 A 
ATOM      9  C   UNL     1       5.970   3.634  13.076  0.00  0.00    +0.000 A 
ATOM     10  C   UNL     1       6.712   2.665  12.369  0.00  0.00    +0.000 A 
ATOM     11  C   UNL     1       6.173   1.974  11.261  0.00  0.00    +0.000 A 
ENDBRANCH   1   9
BRANCH   4  12
ATOM     12  C   UNL     1       7.084   4.571  17.678  0.00  0.00    +0.000 C 
BRANCH  12  13
ATOM     13  C   UNL     1       5.696   4.506  18.284  0.00  0.00    +0.000 A 
ATOM     14  N   UNL     1       5.340   3.585  19.182  0.00  0.00    +0.000 NA
ATOM     15  N   UNL     1       4.079   3.899  19.633  0.00  0.00    +0.000 NA
ATOM     16  C   UNL     1       3.641   4.936  18.950  0.00  0.00    +0.000 A 
ATOM     17  C   UNL     1       2.485   5.751  19.009  0.00  0.00    +0.000 A 
ATOM     18  C   UNL     1       2.298   6.798  18.172  0.00  0.00    +0.000 A 
ATOM     19  C   UNL     1       3.403   7.631  17.613  0.00  0.00    +0.000 A 
ATOM     20  C   UNL     1       4.472   6.773  17.546  0.00  0.00    +0.000 A 
ATOM     21  N   UNL     1       4.645   5.472  18.176  0.00  0.00    +0.000 N 
ENDBRANCH  12  13
ENDBRANCH   4  12
TORSDOF 3
ENDMDL
MODEL 8
REMARK VINA RESULT:      -7.9      1.457      1.946
REMARK  Name = 
REMARK  3 active torsions:
REMARK  status: ('A' for Active; 'I' for Inactive)
REMARK    1  A    between atoms: C_4  and  C_5
REMARK    2  A    between atoms: N_8  and  C_9
REMARK    3  A    between atoms: C_9  and  C_10
REMARK                            x       y       z     vdW  Elec       q    Type
REMARK                         _______ _______ _______ _____ _____    ______ ____
ROOT
ATOM      1  C   UNL     1       6.515   4.410  14.284  0.00  0.00    +0.000 A 
ATOM      2  N   UNL     1       7.512   5.373  14.372  0.00  0.00    +0.000 NA
ATOM      3  N   UNL     1       7.549   5.789  15.649  0.00  0.00    +0.000 NA
ATOM      4  N   UNL     1       6.597   5.051  16.267  0.00  0.00    +0.000 N 
ATOM      5  N   UNL     1       5.928   4.214  15.463  0.00  0.00    +0.000 NA
ENDROOT
BRANCH   1   9
ATOM      6  C   UNL     1       5.249   2.183  10.777  0.00  0.00    +0.000 A 
ATOM      7  C   UNL     1       4.356   3.001  11.463  0.00  0.00    +0.000 A 
ATOM      8  C   UNL     1       4.784   3.788  12.557  0.00  0.00    +0.000 A 
ATOM      9  C   UNL     1       6.073   3.660  13.089  0.00  0.00    +0.000 A 
ATOM     10  C   UNL     1       6.970   2.848  12.364  0.00  0.00    +0.000 A 
ATOM     11  C   UNL     1       6.561   2.114  11.228  0.00  0.00    +0.000 A 
ENDBRANCH   1   9
BRANCH   4  12
ATOM     12  C   UNL     1       6.308   5.067  17.701  0.00  0.00    +0.000 C 
BRANCH  12  13
ATOM     13  C   UNL     1       4.824   5.265  17.937  0.00  0.00    +0.000 A 
ATOM     14  N   UNL     1       4.240   6.465  17.917  0.00  0.00    +0.000 NA
ATOM     15  N   UNL     1       2.881   6.276  18.014  0.00  0.00    +0.000 NA
ATOM     16  C   UNL     1       2.652   4.991  18.189  0.00  0.00    +0.000 A 
ATOM     17  C   UNL     1       1.490   4.188  18.269  0.00  0.00    +0.000 A 
ATOM     18  C   UNL     1       1.550   2.846  18.433  0.00  0.00    +0.000 A 
ATOM     19  C   UNL     1       2.650   1.987  17.905  0.00  0.00    +0.000 A 
ATOM     20  C   UNL     1       3.747   2.811  17.892  0.00  0.00    +0.000 A 
ATOM     21  N   UNL     1       3.806   4.260  18.013  0.00  0.00    +0.000 N 
ENDBRANCH  12  13
ENDBRANCH   4  12
TORSDOF 3
ENDMDL
MODEL 9
REMARK VINA RESULT:      -7.9      4.387      6.062
REMARK  Name = 
REMARK  3 active torsions:
REMARK  status: ('A' for Active; 'I' for Inactive)
REMARK    1  A    between atoms: C_4  and  C_5
REMARK    2  A    between atoms: N_8  and  C_9
REMARK    3  A    between atoms: C_9  and  C_10
REMARK                            x       y       z     vdW  Elec       q    Type
REMARK                         _______ _______ _______ _____ _____    ______ ____
ROOT
ATOM      1  C   UNL     1       8.479   9.054  18.340  0.00  0.00    +0.000 A 
ATOM      2  N   UNL     1       7.555   8.981  17.305  0.00  0.00    +0.000 NA
ATOM      3  N   UNL     1       7.148   7.703  17.229  0.00  0.00    +0.000 NA
ATOM      4  N   UNL     1       7.823   7.078  18.222  0.00  0.00    +0.000 N 
ATOM      5  N   UNL     1       8.664   7.865  18.908  0.00  0.00    +0.000 NA
ENDROOT
BRANCH   1   9
ATOM      6  C   UNL     1      10.682  12.516  19.765  0.00  0.00    +0.000 A 
ATOM      7  C   UNL     1      10.554  12.263  18.402  0.00  0.00    +0.000 A 
ATOM      8  C   UNL     1       9.772  11.183  17.933  0.00  0.00    +0.000 A 
ATOM      9  C   UNL     1       9.228  10.238  18.812  0.00  0.00    +0.000 A 
ATOM     10  C   UNL     1       9.345  10.527  20.188  0.00  0.00    +0.000 A 
ATOM     11  C   UNL     1      10.069  11.646  20.657  0.00  0.00    +0.000 A 
ENDBRANCH   1   9
BRANCH   4  12
ATOM     12  C   UNL     1       7.658   5.679  18.611  0.00  0.00    +0.000 C 
BRANCH  12  13
ATOM     13  C   UNL     1       6.554   5.032  17.798  0.00  0.00    +0.000 A 
ATOM     14  N   UNL     1       6.787   4.332  16.686  0.00  0.00    +0.000 NA
ATOM     15  N   UNL     1       5.600   3.762  16.288  0.00  0.00    +0.000 NA
ATOM     16  C   UNL     1       4.646   4.189  17.088  0.00  0.00    +0.000 A 
ATOM     17  C   UNL     1       3.269   3.902  17.237  0.00  0.00    +0.000 A 
ATOM     18  C   UNL     1       2.508   4.490  18.190  0.00  0.00    +0.000 A 
ATOM     19  C   UNL     1       3.022   4.915  19.526  0.00  0.00    +0.000 A 
ATOM     20  C   UNL     1       4.342   5.214  19.301  0.00  0.00    +0.000 A 
ATOM     21  N   UNL     1       5.175   4.881  18.154  0.00  0.00    +0.000 N 
ENDBRANCH  12  13
ENDBRANCH   4  12
TORSDOF 3
ENDMDL
