MODEL 1
REMARK VINA RESULT:      -7.6      0.000      0.000
REMARK  Name = 
REMARK  5 active torsions:
REMARK  status: ('A' for Active; 'I' for Inactive)
REMARK    1  A    between atoms: C_1  and  C_2
REMARK    2  A    between atoms: C_2  and  C_3
REMARK    3  A    between atoms: C_2  and  C_4
REMARK    4  A    between atoms: C_2  and  C_5
REMARK    5  A    between atoms: N_7  and  C_8
REMARK                            x       y       z     vdW  Elec       q    Type
REMARK                         _______ _______ _______ _____ _____    ______ ____
ROOT
ATOM      1  C   UNL     1       1.982   7.611  19.737  0.00  0.00    +0.000 A 
ATOM      2  C   UNL     1       2.861   7.421  18.669  0.00  0.00    +0.000 A 
ATOM      3  C   UNL     1       3.334   6.149  18.328  0.00  0.00    +0.000 A 
ATOM      4  C   UNL     1       2.896   5.041  19.054  0.00  0.00    +0.000 A 
ATOM      5  C   UNL     1       2.120   5.231  20.207  0.00  0.00    +0.000 A 
ATOM      6  C   UNL     1       1.678   6.520  20.556  0.00  0.00    +0.000 A 
ATOM      7  C   UNL     1       1.839   4.032  21.066  0.00  0.00    +0.000 C 
ATOM      8  C   UNL     1       1.508   2.844  20.186  0.00  0.00    +0.000 C 
ATOM      9  C   UNL     1       2.558   2.606  19.121  0.00  0.00    +0.000 C 
ATOM     10  O   UNL     1       2.724   1.472  18.665  0.00  0.00    +0.000 OA
ATOM     11  N   UNL     1       3.218   3.725  18.627  0.00  0.00    +0.000 N 
ATOM     12  C   UNL     1       4.065   3.554  17.449  0.00  0.00    +0.000 C 
ATOM     13  C   UNL     1       5.027   4.712  17.229  0.00  0.00    +0.000 C 
ATOM     14  C   UNL     1       4.240   6.007  17.137  0.00  0.00    +0.000 C 
ENDROOT
BRANCH   1  17
ATOM     15  C   UNL     1       0.858   9.702  19.019  0.00  0.00    +0.000 C 
ATOM     16  O   UNL     1       0.781   9.406  17.829  0.00  0.00    +0.000 OA
ATOM     17  N   UNL     1       1.391   8.870  20.001  0.00  0.00    +0.000 N 
ATOM     18  H   UNL     1       1.176   9.082  20.967  0.00  0.00    +0.000 HD
BRANCH  15  20
ATOM     19  C   UNL     1       0.585  11.155  21.033  0.00  0.00    +0.000 C 
ATOM     20  C   UNL     1       0.323  11.058  19.514  0.00  0.00    +0.000 C 
ATOM     21  C   UNL     1      -1.188  11.151  19.272  0.00  0.00    +0.000 C 
ATOM     22  C   UNL     1       1.054  12.210  18.818  0.00  0.00    +0.000 C 
ENDBRANCH  15  20
ENDBRANCH   1  17
TORSDOF 2
ENDMDL
MODEL 2
REMARK VINA RESULT:      -7.5      1.233      1.645
REMARK  Name = 
REMARK  5 active torsions:
REMARK  status: ('A' for Active; 'I' for Inactive)
REMARK    1  A    between atoms: C_1  and  C_2
REMARK    2  A    between atoms: C_2  and  C_3
REMARK    3  A    between atoms: C_2  and  C_4
REMARK    4  A    between atoms: C_2  and  C_5
REMARK    5  A    between atoms: N_7  and  C_8
REMARK                            x       y       z     vdW  Elec       q    Type
REMARK                         _______ _______ _______ _____ _____    ______ ____
ROOT
ATOM      1  C   UNL     1       1.889   7.618  19.657  0.00  0.00    +0.000 A 
ATOM      2  C   UNL     1       2.806   7.461  18.615  0.00  0.00    +0.000 A 
ATOM      3  C   UNL     1       3.383   6.219  18.329  0.00  0.00    +0.000 A 
ATOM      4  C   UNL     1       3.014   5.105  19.083  0.00  0.00    +0.000 A 
ATOM      5  C   UNL     1       2.199   5.272  20.213  0.00  0.00    +0.000 A 
ATOM      6  C   UNL     1       1.651   6.533  20.507  0.00  0.00    +0.000 A 
ATOM      7  C   UNL     1       1.990   4.084  21.106  0.00  0.00    +0.000 C 
ATOM      8  C   UNL     1       1.772   2.846  20.261  0.00  0.00    +0.000 C 
ATOM      9  C   UNL     1       2.862   2.654  19.228  0.00  0.00    +0.000 C 
ATOM     10  O   UNL     1       3.126   1.522  18.814  0.00  0.00    +0.000 OA
ATOM     11  N   UNL     1       3.446   3.804  18.708  0.00  0.00    +0.000 N 
ATOM     12  C   UNL     1       4.331   3.661  17.555  0.00  0.00    +0.000 C 
ATOM     13  C   UNL     1       5.206   4.882  17.316  0.00  0.00    +0.000 C 
ATOM     14  C   UNL     1       4.325   6.109  17.162  0.00  0.00    +0.000 C 
ENDROOT
BRANCH   1  17
ATOM     15  C   UNL     1       1.054   9.446  21.110  0.00  0.00    +0.000 C 
ATOM     16  O   UNL     1       1.568   9.033  22.147  0.00  0.00    +0.000 OA
ATOM     17  N   UNL     1       1.198   8.834  19.866  0.00  0.00    +0.000 N 
ATOM     18  H   UNL     1       0.965   9.377  19.044  0.00  0.00    +0.000 HD
BRANCH  15  20
ATOM     19  C   UNL     1      -0.821  10.646  19.978  0.00  0.00    +0.000 C 
ATOM     20  C   UNL     1       0.208  10.731  21.127  0.00  0.00    +0.000 C 
ATOM     21  C   UNL     1       1.099  11.956  20.893  0.00  0.00    +0.000 C 
ATOM     22  C   UNL     1      -0.550  10.858  22.451  0.00  0.00    +0.000 C 
ENDBRANCH  15  20
ENDBRANCH   1  17
TORSDOF 2
ENDMDL
MODEL 3
REMARK VINA RESULT:      -7.3      1.267      1.314
REMARK  Name = 
REMARK  5 active torsions:
REMARK  status: ('A' for Active; 'I' for Inactive)
REMARK    1  A    between atoms: C_1  and  C_2
REMARK    2  A    between atoms: C_2  and  C_3
REMARK    3  A    between atoms: C_2  and  C_4
REMARK    4  A    between atoms: C_2  and  C_5
REMARK    5  A    between atoms: N_7  and  C_8
REMARK                            x       y       z     vdW  Elec       q    Type
REMARK                         _______ _______ _______ _____ _____    ______ ____
ROOT
ATOM      1  C   UNL     1       2.177   7.651  19.171  0.00  0.00    +0.000 A 
ATOM      2  C   UNL     1       3.080   7.546  18.111  0.00  0.00    +0.000 A 
ATOM      3  C   UNL     1       3.694   6.331  17.791  0.00  0.00    +0.000 A 
ATOM      4  C   UNL     1       3.379   5.190  18.531  0.00  0.00    +0.000 A 
ATOM      5  C   UNL     1       2.579   5.308  19.677  0.00  0.00    +0.000 A 
ATOM      6  C   UNL     1       1.992   6.544  20.005  0.00  0.00    +0.000 A 
ATOM      7  C   UNL     1       2.427   4.098  20.552  0.00  0.00    +0.000 C 
ATOM      8  C   UNL     1       2.237   2.868  19.687  0.00  0.00    +0.000 C 
ATOM      9  C   UNL     1       3.315   2.734  18.632  0.00  0.00    +0.000 C 
ATOM     10  O   UNL     1       3.611   1.620  18.192  0.00  0.00    +0.000 OA
ATOM     11  N   UNL     1       3.849   3.913  18.124  0.00  0.00    +0.000 N 
ATOM     12  C   UNL     1       4.718   3.822  16.953  0.00  0.00    +0.000 C 
ATOM     13  C   UNL     1       5.545   5.077  16.722  0.00  0.00    +0.000 C 
ATOM     14  C   UNL     1       4.619   6.275  16.607  0.00  0.00    +0.000 C 
ENDROOT
BRANCH   1  17
ATOM     15  C   UNL     1       1.039   9.257  20.680  0.00  0.00    +0.000 C 
ATOM     16  O   UNL     1       1.326   8.678  21.725  0.00  0.00    +0.000 OA
ATOM     17  N   UNL     1       1.447   8.839  19.415  0.00  0.00    +0.000 N 
ATOM     18  H   UNL     1       1.389   9.505  18.656  0.00  0.00    +0.000 HD
BRANCH  15  20
ATOM     19  C   UNL     1      -0.564  10.587  22.059  0.00  0.00    +0.000 C 
ATOM     20  C   UNL     1       0.197  10.546  20.716  0.00  0.00    +0.000 C 
ATOM     21  C   UNL     1      -0.826  10.541  19.575  0.00  0.00    +0.000 C 
ATOM     22  C   UNL     1       1.100  11.780  20.628  0.00  0.00    +0.000 C 
ENDBRANCH  15  20
ENDBRANCH   1  17
TORSDOF 2
ENDMDL
MODEL 4
REMARK VINA RESULT:      -7.2      1.954      3.422
REMARK  Name = 
REMARK  5 active torsions:
REMARK  status: ('A' for Active; 'I' for Inactive)
REMARK    1  A    between atoms: C_1  and  C_2
REMARK    2  A    between atoms: C_2  and  C_3
REMARK    3  A    between atoms: C_2  and  C_4
REMARK    4  A    between atoms: C_2  and  C_5
REMARK    5  A    between atoms: N_7  and  C_8
REMARK                            x       y       z     vdW  Elec       q    Type
REMARK                         _______ _______ _______ _____ _____    ______ ____
ROOT
ATOM      1  C   UNL     1       2.370   7.792  18.156  0.00  0.00    +0.000 A 
ATOM      2  C   UNL     1       2.136   6.625  18.887  0.00  0.00    +0.000 A 
ATOM      3  C   UNL     1       3.081   5.596  18.944  0.00  0.00    +0.000 A 
ATOM      4  C   UNL     1       4.298   5.749  18.278  0.00  0.00    +0.000 A 
ATOM      5  C   UNL     1       4.493   6.854  17.436  0.00  0.00    +0.000 A 
ATOM      6  C   UNL     1       3.519   7.866  17.363  0.00  0.00    +0.000 A 
ATOM      7  C   UNL     1       5.732   6.877  16.589  0.00  0.00    +0.000 C 
ATOM      8  C   UNL     1       6.915   6.403  17.407  0.00  0.00    +0.000 C 
ATOM      9  C   UNL     1       6.654   5.071  18.079  0.00  0.00    +0.000 C 
ATOM     10  O   UNL     1       7.597   4.324  18.352  0.00  0.00    +0.000 OA
ATOM     11  N   UNL     1       5.343   4.804  18.459  0.00  0.00    +0.000 N 
ATOM     12  C   UNL     1       5.101   3.638  19.305  0.00  0.00    +0.000 C 
ATOM     13  C   UNL     1       3.640   3.215  19.338  0.00  0.00    +0.000 C 
ATOM     14  C   UNL     1       2.787   4.387  19.788  0.00  0.00    +0.000 C 
ENDROOT
BRANCH   1  17
ATOM     15  C   UNL     1       1.009   9.461  19.387  0.00  0.00    +0.000 C 
ATOM     16  O   UNL     1       1.362   9.111  20.511  0.00  0.00    +0.000 OA
ATOM     17  N   UNL     1       1.483   8.894  18.205  0.00  0.00    +0.000 N 
ATOM     18  H   UNL     1       1.342   9.408  17.345  0.00  0.00    +0.000 HD
BRANCH  15  20
ATOM     19  C   UNL     1       0.778  11.878  18.800  0.00  0.00    +0.000 C 
ATOM     20  C   UNL     1      -0.001  10.610  19.216  0.00  0.00    +0.000 C 
ATOM     21  C   UNL     1      -0.714  10.890  20.543  0.00  0.00    +0.000 C 
ATOM     22  C   UNL     1      -1.013  10.277  18.116  0.00  0.00    +0.000 C 
ENDBRANCH  15  20
ENDBRANCH   1  17
TORSDOF 2
ENDMDL
MODEL 5
REMARK VINA RESULT:      -7.2      2.060      6.812
REMARK  Name = 
REMARK  5 active torsions:
REMARK  status: ('A' for Active; 'I' for Inactive)
REMARK    1  A    between atoms: C_1  and  C_2
REMARK    2  A    between atoms: C_2  and  C_3
REMARK    3  A    between atoms: C_2  and  C_4
REMARK    4  A    between atoms: C_2  and  C_5
REMARK    5  A    between atoms: N_7  and  C_8
REMARK                            x       y       z     vdW  Elec       q    Type
REMARK                         _______ _______ _______ _____ _____    ______ ____
ROOT
ATOM      1  C   UNL     1       2.249   7.018  19.419  0.00  0.00    +0.000 A 
ATOM      2  C   UNL     1       2.243   8.175  18.636  0.00  0.00    +0.000 A 
ATOM      3  C   UNL     1       1.577   9.334  19.048  0.00  0.00    +0.000 A 
ATOM      4  C   UNL     1       0.928   9.346  20.283  0.00  0.00    +0.000 A 
ATOM      5  C   UNL     1       0.814   8.156  21.017  0.00  0.00    +0.000 A 
ATOM      6  C   UNL     1       1.462   6.988  20.575  0.00  0.00    +0.000 A 
ATOM      7  C   UNL     1      -0.060   8.168  22.238  0.00  0.00    +0.000 C 
ATOM      8  C   UNL     1       0.169   9.450  23.012  0.00  0.00    +0.000 C 
ATOM      9  C   UNL     1       0.027  10.682  22.141  0.00  0.00    +0.000 C 
ATOM     10  O   UNL     1      -0.306  11.757  22.646  0.00  0.00    +0.000 OA
ATOM     11  N   UNL     1       0.394  10.554  20.806  0.00  0.00    +0.000 N 
ATOM     12  C   UNL     1       0.485  11.771  20.003  0.00  0.00    +0.000 C 
ATOM     13  C   UNL     1       0.504  11.500  18.506  0.00  0.00    +0.000 C 
ATOM     14  C   UNL     1       1.650  10.560  18.180  0.00  0.00    +0.000 C 
ENDROOT
BRANCH   1  17
ATOM     15  C   UNL     1       2.582   4.843  18.276  0.00  0.00    +0.000 C 
ATOM     16  O   UNL     1       1.484   4.817  17.724  0.00  0.00    +0.000 OA
ATOM     17  N   UNL     1       3.032   5.890  19.078  0.00  0.00    +0.000 N 
ATOM     18  H   UNL     1       4.024   5.945  19.269  0.00  0.00    +0.000 HD
BRANCH  15  20
ATOM     19  C   UNL     1       4.478   4.014  16.877  0.00  0.00    +0.000 C 
ATOM     20  C   UNL     1       3.571   3.680  18.082  0.00  0.00    +0.000 C 
ATOM     21  C   UNL     1       2.812   2.384  17.776  0.00  0.00    +0.000 C 
ATOM     22  C   UNL     1       4.452   3.512  19.324  0.00  0.00    +0.000 C 
ENDBRANCH  15  20
ENDBRANCH   1  17
TORSDOF 2
ENDMDL
MODEL 6
REMARK VINA RESULT:      -7.1      1.160      1.485
REMARK  Name = 
REMARK  5 active torsions:
REMARK  status: ('A' for Active; 'I' for Inactive)
REMARK    1  A    between atoms: C_1  and  C_2
REMARK    2  A    between atoms: C_2  and  C_3
REMARK    3  A    between atoms: C_2  and  C_4
REMARK    4  A    between atoms: C_2  and  C_5
REMARK    5  A    between atoms: N_7  and  C_8
REMARK                            x       y       z     vdW  Elec       q    Type
REMARK                         _______ _______ _______ _____ _____    ______ ____
ROOT
ATOM      1  C   UNL     1       2.364   7.637  18.755  0.00  0.00    +0.000 A 
ATOM      2  C   UNL     1       3.295   7.450  17.731  0.00  0.00    +0.000 A 
ATOM      3  C   UNL     1       3.895   6.206  17.507  0.00  0.00    +0.000 A 
ATOM      4  C   UNL     1       3.535   5.120  18.306  0.00  0.00    +0.000 A 
ATOM      5  C   UNL     1       2.704   5.323  19.417  0.00  0.00    +0.000 A 
ATOM      6  C   UNL     1       2.133   6.588  19.650  0.00  0.00    +0.000 A 
ATOM      7  C   UNL     1       2.503   4.173  20.360  0.00  0.00    +0.000 C 
ATOM      8  C   UNL     1       2.314   2.895  19.569  0.00  0.00    +0.000 C 
ATOM      9  C   UNL     1       3.419   2.676  18.557  0.00  0.00    +0.000 C 
ATOM     10  O   UNL     1       3.706   1.531  18.197  0.00  0.00    +0.000 OA
ATOM     11  N   UNL     1       3.992   3.811  17.994  0.00  0.00    +0.000 N 
ATOM     12  C   UNL     1       4.893   3.632  16.858  0.00  0.00    +0.000 C 
ATOM     13  C   UNL     1       5.751   4.855  16.575  0.00  0.00    +0.000 C 
ATOM     14  C   UNL     1       4.853   6.059  16.357  0.00  0.00    +0.000 C 
ENDROOT
BRANCH   1  17
ATOM     15  C   UNL     1       1.082   9.280  20.099  0.00  0.00    +0.000 C 
ATOM     16  O   UNL     1       1.194   8.687  21.170  0.00  0.00    +0.000 OA
ATOM     17  N   UNL     1       1.651   8.851  18.902  0.00  0.00    +0.000 N 
ATOM     18  H   UNL     1       1.727   9.522  18.148  0.00  0.00    +0.000 HD
BRANCH  15  20
ATOM     19  C   UNL     1       1.185  11.659  19.343  0.00  0.00    +0.000 C 
ATOM     20  C   UNL     1       0.292  10.599  20.025  0.00  0.00    +0.000 C 
ATOM     21  C   UNL     1      -0.055  11.089  21.436  0.00  0.00    +0.000 C 
ATOM     22  C   UNL     1      -0.978  10.419  19.188  0.00  0.00    +0.000 C 
ENDBRANCH  15  20
ENDBRANCH   1  17
TORSDOF 2
ENDMDL
MODEL 7
REMARK VINA RESULT:      -7.1      1.891      3.397
REMARK  Name = 
REMARK  5 active torsions:
REMARK  status: ('A' for Active; 'I' for Inactive)
REMARK    1  A    between atoms: C_1  and  C_2
REMARK    2  A    between atoms: C_2  and  C_3
REMARK    3  A    between atoms: C_2  and  C_4
REMARK    4  A    between atoms: C_2  and  C_5
REMARK    5  A    between atoms: N_7  and  C_8
REMARK                            x       y       z     vdW  Elec       q    Type
REMARK                         _______ _______ _______ _____ _____    ______ ____
ROOT
ATOM      1  C   UNL     1       2.216   7.774  18.785  0.00  0.00    +0.000 A 
ATOM      2  C   UNL     1       2.097   6.601  19.534  0.00  0.00    +0.000 A 
ATOM      3  C   UNL     1       3.012   5.551  19.399  0.00  0.00    +0.000 A 
ATOM      4  C   UNL     1       4.084   5.688  18.516  0.00  0.00    +0.000 A 
ATOM      5  C   UNL     1       4.141   6.801  17.664  0.00  0.00    +0.000 A 
ATOM      6  C   UNL     1       3.196   7.836  17.789  0.00  0.00    +0.000 A 
ATOM      7  C   UNL     1       5.196   6.812  16.597  0.00  0.00    +0.000 C 
ATOM      8  C   UNL     1       6.502   6.300  17.170  0.00  0.00    +0.000 C 
ATOM      9  C   UNL     1       6.342   4.964  17.864  0.00  0.00    +0.000 C 
ATOM     10  O   UNL     1       7.301   4.193  17.944  0.00  0.00    +0.000 OA
ATOM     11  N   UNL     1       5.121   4.718  18.484  0.00  0.00    +0.000 N 
ATOM     12  C   UNL     1       5.016   3.545  19.347  0.00  0.00    +0.000 C 
ATOM     13  C   UNL     1       3.579   3.152  19.652  0.00  0.00    +0.000 C 
ATOM     14  C   UNL     1       2.855   4.335  20.270  0.00  0.00    +0.000 C 
ENDROOT
BRANCH   1  17
ATOM     15  C   UNL     1       1.015   9.345  20.281  0.00  0.00    +0.000 C 
ATOM     16  O   UNL     1       1.431   8.866  21.333  0.00  0.00    +0.000 OA
ATOM     17  N   UNL     1       1.381   8.893  19.014  0.00  0.00    +0.000 N 
ATOM     18  H   UNL     1       1.201   9.501  18.226  0.00  0.00    +0.000 HD
BRANCH  15  20
ATOM     19  C   UNL     1      -1.050  10.294  19.245  0.00  0.00    +0.000 C 
ATOM     20  C   UNL     1       0.044  10.540  20.306  0.00  0.00    +0.000 C 
ATOM     21  C   UNL     1       0.787  11.833  19.951  0.00  0.00    +0.000 C 
ATOM     22  C   UNL     1      -0.625  10.659  21.679  0.00  0.00    +0.000 C 
ENDBRANCH  15  20
ENDBRANCH   1  17
TORSDOF 2
ENDMDL
MODEL 8
REMARK VINA RESULT:      -7.1      1.571      3.208
REMARK  Name = 
REMARK  5 active torsions:
REMARK  status: ('A' for Active; 'I' for Inactive)
REMARK    1  A    between atoms: C_1  and  C_2
REMARK    2  A    between atoms: C_2  and  C_3
REMARK    3  A    between atoms: C_2  and  C_4
REMARK    4  A    between atoms: C_2  and  C_5
REMARK    5  A    between atoms: N_7  and  C_8
REMARK                            x       y       z     vdW  Elec       q    Type
REMARK                         _______ _______ _______ _____ _____    ______ ____
ROOT
ATOM      1  C   UNL     1       2.301   7.458  18.858  0.00  0.00    +0.000 A 
ATOM      2  C   UNL     1       1.908   6.136  19.083  0.00  0.00    +0.000 A 
ATOM      3  C   UNL     1       2.529   5.067  18.429  0.00  0.00    +0.000 A 
ATOM      4  C   UNL     1       3.584   5.324  17.552  0.00  0.00    +0.000 A 
ATOM      5  C   UNL     1       3.901   6.649  17.218  0.00  0.00    +0.000 A 
ATOM      6  C   UNL     1       3.245   7.715  17.860  0.00  0.00    +0.000 A 
ATOM      7  C   UNL     1       4.905   6.874  16.125  0.00  0.00    +0.000 C 
ATOM      8  C   UNL     1       6.053   5.898  16.282  0.00  0.00    +0.000 C 
ATOM      9  C   UNL     1       5.578   4.464  16.396  0.00  0.00    +0.000 C 
ATOM     10  O   UNL     1       6.317   3.541  16.043  0.00  0.00    +0.000 OA
ATOM     11  N   UNL     1       4.347   4.256  17.008  0.00  0.00    +0.000 N 
ATOM     12  C   UNL     1       3.970   2.883  17.335  0.00  0.00    +0.000 C 
ATOM     13  C   UNL     1       2.486   2.722  17.629  0.00  0.00    +0.000 C 
ATOM     14  C   UNL     1       2.092   3.665  18.751  0.00  0.00    +0.000 C 
ENDROOT
BRANCH   1  17
ATOM     15  C   UNL     1       0.973   9.540  19.086  0.00  0.00    +0.000 C 
ATOM     16  O   UNL     1       0.580   9.571  17.922  0.00  0.00    +0.000 OA
ATOM     17  N   UNL     1       1.775   8.531  19.616  0.00  0.00    +0.000 N 
ATOM     18  H   UNL     1       1.828   8.451  20.624  0.00  0.00    +0.000 HD
BRANCH  15  20
ATOM     19  C   UNL     1      -0.942  10.939  19.870  0.00  0.00    +0.000 C 
ATOM     20  C   UNL     1       0.562  10.650  20.070  0.00  0.00    +0.000 C 
ATOM     21  C   UNL     1       1.348  11.933  19.780  0.00  0.00    +0.000 C 
ATOM     22  C   UNL     1       0.782  10.195  21.516  0.00  0.00    +0.000 C 
ENDBRANCH  15  20
ENDBRANCH   1  17
TORSDOF 2
ENDMDL
MODEL 9
REMARK VINA RESULT:      -7.0      1.547      3.191
REMARK  Name = 
REMARK  5 active torsions:
REMARK  status: ('A' for Active; 'I' for Inactive)
REMARK    1  A    between atoms: C_1  and  C_2
REMARK    2  A    between atoms: C_2  and  C_3
REMARK    3  A    between atoms: C_2  and  C_4
REMARK    4  A    between atoms: C_2  and  C_5
REMARK    5  A    between atoms: N_7  and  C_8
REMARK                            x       y       z     vdW  Elec       q    Type
REMARK                         _______ _______ _______ _____ _____    ______ ____
ROOT
ATOM      1  C   UNL     1       1.423   8.278  20.305  0.00  0.00    +0.000 A 
ATOM      2  C   UNL     1       1.296   7.014  20.885  0.00  0.00    +0.000 A 
ATOM      3  C   UNL     1       1.929   5.892  20.338  0.00  0.00    +0.000 A 
ATOM      4  C   UNL     1       2.729   6.044  19.205  0.00  0.00    +0.000 A 
ATOM      5  C   UNL     1       2.759   7.278  18.538  0.00  0.00    +0.000 A 
ATOM      6  C   UNL     1       2.091   8.390  19.082  0.00  0.00    +0.000 A 
ATOM      7  C   UNL     1       3.469   7.343  17.218  0.00  0.00    +0.000 C 
ATOM      8  C   UNL     1       4.763   6.559  17.299  0.00  0.00    +0.000 C 
ATOM      9  C   UNL     1       4.552   5.151  17.816  0.00  0.00    +0.000 C 
ATOM     10  O   UNL     1       5.337   4.254  17.499  0.00  0.00    +0.000 OA
ATOM     11  N   UNL     1       3.521   4.964  18.730  0.00  0.00    +0.000 N 
ATOM     12  C   UNL     1       3.438   3.676  19.414  0.00  0.00    +0.000 C 
ATOM     13  C   UNL     1       2.089   3.434  20.075  0.00  0.00    +0.000 C 
ATOM     14  C   UNL     1       1.791   4.568  21.038  0.00  0.00    +0.000 C 
ENDROOT
BRANCH   1  17
ATOM     15  C   UNL     1      -0.148  10.194  20.410  0.00  0.00    +0.000 C 
ATOM     16  O   UNL     1      -0.780   9.899  19.398  0.00  0.00    +0.000 OA
ATOM     17  N   UNL     1       0.903   9.438  20.927  0.00  0.00    +0.000 N 
ATOM     18  H   UNL     1       1.183   9.611  21.884  0.00  0.00    +0.000 HD
BRANCH  15  20
ATOM     19  C   UNL     1      -1.802  12.057  20.601  0.00  0.00    +0.000 C 
ATOM     20  C   UNL     1      -0.515  11.457  21.209  0.00  0.00    +0.000 C 
ATOM     21  C   UNL     1       0.606  12.498  21.101  0.00  0.00    +0.000 C 
ATOM     22  C   UNL     1      -0.787  11.105  22.675  0.00  0.00    +0.000 C 
ENDBRANCH  15  20
ENDBRANCH   1  17
TORSDOF 2
ENDMDL
