MODEL 1
REMARK VINA RESULT:      -8.4      0.000      0.000
REMARK  Name = 
REMARK  7 active torsions:
REMARK  status: ('A' for Active; 'I' for Inactive)
REMARK    1  A    between atoms: C_1  and  C_2
REMARK    2  A    between atoms: C_2  and  O_3
REMARK    3  A    between atoms: O_3  and  C_4
REMARK    4  A    between atoms: C_4  and  C_6
REMARK    5  A    between atoms: C_10  and  N_11
REMARK    6  A    between atoms: C_19  and  N_20
REMARK    7  A    between atoms: C_21  and  C_23
REMARK                            x       y       z     vdW  Elec       q    Type
REMARK                         _______ _______ _______ _____ _____    ______ ____
ROOT
ATOM      1  N   UNL     1       2.269   8.144  18.233  0.00  0.00    +0.000 N 
ATOM      2  N   UNL     1       2.113   9.147  17.329  0.00  0.00    +0.000 NA
ATOM      3  C   UNL     1       1.345  10.047  17.943  0.00  0.00    +0.000 A 
ATOM      4  C   UNL     1       1.087   9.710  19.282  0.00  0.00    +0.000 A 
ATOM      5  C   UNL     1       1.655   8.465  19.434  0.00  0.00    +0.000 A 
ATOM      6  C   UNL     1       1.687   7.674  20.684  0.00  0.00    +0.000 C 
ATOM      7  C   UNL     1       1.119   8.420  21.893  0.00  0.00    +0.000 C 
ATOM      8  C   UNL     1       0.289   9.702  21.685  0.00  0.00    +0.000 C 
ATOM      9  C   UNL     1       0.361  10.456  20.336  0.00  0.00    +0.000 C 
ENDROOT
BRANCH   1  14
ATOM     10  C   UNL     1       3.219   4.587  17.709  0.00  0.00    +0.000 A 
ATOM     11  C   UNL     1       4.449   4.729  17.054  0.00  0.00    +0.000 A 
ATOM     12  C   UNL     1       4.998   5.992  16.857  0.00  0.00    +0.000 A 
ATOM     13  C   UNL     1       4.302   7.126  17.281  0.00  0.00    +0.000 A 
ATOM     14  C   UNL     1       3.054   7.003  17.905  0.00  0.00    +0.000 A 
ATOM     15  C   UNL     1       2.534   5.726  18.164  0.00  0.00    +0.000 A 
BRANCH  10  16
ATOM     16  C   UNL     1       2.638   3.220  17.779  0.00  0.00    +0.000 C 
ATOM     17  O   UNL     1       3.300   2.203  17.648  0.00  0.00    +0.000 OA
BRANCH  16  18
ATOM     18  O   UNL     1       1.288   3.294  17.849  0.00  0.00    +0.000 OA
BRANCH  18  20
ATOM     19  C   UNL     1       0.910   3.112  20.198  0.00  0.00    +0.000 C 
ATOM     20  C   UNL     1       0.685   2.458  18.845  0.00  0.00    +0.000 C 
ENDBRANCH  18  20
ENDBRANCH  16  18
ENDBRANCH  10  16
ENDBRANCH   1  14
BRANCH   9  21
ATOM     21  N   UNL     1       0.970  11.764  20.496  0.00  0.00    +0.000 N 
ATOM     22  C   UNL     1       0.209  12.883  20.756  0.00  0.00    +0.000 C 
ATOM     23  O   UNL     1      -1.023  12.841  20.835  0.00  0.00    +0.000 OA
ATOM     24  H   UNL     1       1.980  11.869  20.523  0.00  0.00    +0.000 HD
BRANCH  22  25
ATOM     25  C   UNL     1       0.945  14.137  20.920  0.00  0.00    +0.000 A 
ATOM     26  N   UNL     1       1.846  14.302  21.911  0.00  0.00    +0.000 NA
ATOM     27  O   UNL     1       2.359  15.587  21.757  0.00  0.00    +0.000 OA
ATOM     28  C   UNL     1       1.763  16.169  20.699  0.00  0.00    +0.000 A 
ATOM     29  C   UNL     1       0.856  15.313  20.127  0.00  0.00    +0.000 A 
ATOM     30  C   UNL     1       0.036  15.696  18.949  0.00  0.00    +0.000 C 
ATOM     31  C   UNL     1       0.577  16.989  18.292  0.00  0.00    +0.000 C 
ATOM     32  C   UNL     1       1.023  18.055  19.320  0.00  0.00    +0.000 C 
ATOM     33  C   UNL     1       2.128  17.531  20.264  0.00  0.00    +0.000 C 
ENDBRANCH  22  25
ENDBRANCH   9  21
TORSDOF 6
ENDMDL
MODEL 2
REMARK VINA RESULT:      -8.3      2.288      3.156
REMARK  Name = 
REMARK  7 active torsions:
REMARK  status: ('A' for Active; 'I' for Inactive)
REMARK    1  A    between atoms: C_1  and  C_2
REMARK    2  A    between atoms: C_2  and  O_3
REMARK    3  A    between atoms: O_3  and  C_4
REMARK    4  A    between atoms: C_4  and  C_6
REMARK    5  A    between atoms: C_10  and  N_11
REMARK    6  A    between atoms: C_19  and  N_20
REMARK    7  A    between atoms: C_21  and  C_23
REMARK                            x       y       z     vdW  Elec       q    Type
REMARK                         _______ _______ _______ _____ _____    ______ ____
ROOT
ATOM      1  N   UNL     1       2.249   8.057  18.520  0.00  0.00    +0.000 N 
ATOM      2  N   UNL     1       2.011   8.827  17.426  0.00  0.00    +0.000 NA
ATOM      3  C   UNL     1       1.099   9.715  17.823  0.00  0.00    +0.000 A 
ATOM      4  C   UNL     1       0.814   9.618  19.194  0.00  0.00    +0.000 A 
ATOM      5  C   UNL     1       1.534   8.521  19.614  0.00  0.00    +0.000 A 
ATOM      6  C   UNL     1       1.601   8.007  20.999  0.00  0.00    +0.000 C 
ATOM      7  C   UNL     1       0.874   8.891  22.014  0.00  0.00    +0.000 C 
ATOM      8  C   UNL     1      -0.106   9.976  21.527  0.00  0.00    +0.000 C 
ATOM      9  C   UNL     1      -0.060  10.449  20.054  0.00  0.00    +0.000 C 
ENDROOT
BRANCH   1  14
ATOM     10  C   UNL     1       5.162   6.036  17.398  0.00  0.00    +0.000 A 
ATOM     11  C   UNL     1       5.231   5.073  18.413  0.00  0.00    +0.000 A 
ATOM     12  C   UNL     1       4.271   5.046  19.420  0.00  0.00    +0.000 A 
ATOM     13  C   UNL     1       3.257   6.004  19.441  0.00  0.00    +0.000 A 
ATOM     14  C   UNL     1       3.195   6.996  18.453  0.00  0.00    +0.000 A 
ATOM     15  C   UNL     1       4.124   6.981  17.400  0.00  0.00    +0.000 A 
BRANCH  10  16
ATOM     16  C   UNL     1       6.284   6.080  16.424  0.00  0.00    +0.000 C 
ATOM     17  O   UNL     1       7.415   6.431  16.719  0.00  0.00    +0.000 OA
BRANCH  16  18
ATOM     18  O   UNL     1       5.824   5.828  15.175  0.00  0.00    +0.000 OA
BRANCH  18  20
ATOM     19  C   UNL     1       6.328   4.028  13.692  0.00  0.00    +0.000 C 
ATOM     20  C   UNL     1       5.518   4.454  14.906  0.00  0.00    +0.000 C 
ENDBRANCH  18  20
ENDBRANCH  16  18
ENDBRANCH  10  16
ENDBRANCH   1  14
BRANCH   9  21
ATOM     21  N   UNL     1       0.361  11.835  19.959  0.00  0.00    +0.000 N 
ATOM     22  C   UNL     1      -0.328  12.742  19.183  0.00  0.00    +0.000 C 
ATOM     23  O   UNL     1      -1.312  12.422  18.508  0.00  0.00    +0.000 OA
ATOM     24  H   UNL     1       1.110  12.194  20.543  0.00  0.00    +0.000 HD
BRANCH  22  25
ATOM     25  C   UNL     1       0.184  14.113  19.191  0.00  0.00    +0.000 A 
ATOM     26  N   UNL     1      -0.549  15.136  19.678  0.00  0.00    +0.000 NA
ATOM     27  O   UNL     1       0.242  16.274  19.547  0.00  0.00    +0.000 OA
ATOM     28  C   UNL     1       1.415  15.926  18.984  0.00  0.00    +0.000 A 
ATOM     29  C   UNL     1       1.444  14.579  18.729  0.00  0.00    +0.000 A 
ATOM     30  C   UNL     1       2.612  13.916  18.093  0.00  0.00    +0.000 C 
ATOM     31  C   UNL     1       3.847  14.850  18.088  0.00  0.00    +0.000 C 
ATOM     32  C   UNL     1       3.498  16.319  17.754  0.00  0.00    +0.000 C 
ATOM     33  C   UNL     1       2.480  16.920  18.749  0.00  0.00    +0.000 C 
ENDBRANCH  22  25
ENDBRANCH   9  21
TORSDOF 6
ENDMDL
MODEL 3
REMARK VINA RESULT:      -8.3      1.347      1.480
REMARK  Name = 
REMARK  7 active torsions:
REMARK  status: ('A' for Active; 'I' for Inactive)
REMARK    1  A    between atoms: C_1  and  C_2
REMARK    2  A    between atoms: C_2  and  O_3
REMARK    3  A    between atoms: O_3  and  C_4
REMARK    4  A    between atoms: C_4  and  C_6
REMARK    5  A    between atoms: C_10  and  N_11
REMARK    6  A    between atoms: C_19  and  N_20
REMARK    7  A    between atoms: C_21  and  C_23
REMARK                            x       y       z     vdW  Elec       q    Type
REMARK                         _______ _______ _______ _____ _____    ______ ____
ROOT
ATOM      1  N   UNL     1       2.018   8.214  18.405  0.00  0.00    +0.000 N 
ATOM      2  N   UNL     1       1.818   9.153  17.443  0.00  0.00    +0.000 NA
ATOM      3  C   UNL     1       1.112  10.113  18.040  0.00  0.00    +0.000 A 
ATOM      4  C   UNL     1       0.941   9.880  19.414  0.00  0.00    +0.000 A 
ATOM      5  C   UNL     1       1.495   8.636  19.619  0.00  0.00    +0.000 A 
ATOM      6  C   UNL     1       1.598   7.936  20.918  0.00  0.00    +0.000 C 
ATOM      7  C   UNL     1       1.130   8.780  22.104  0.00  0.00    +0.000 C 
ATOM      8  C   UNL     1       0.312  10.063  21.861  0.00  0.00    +0.000 C 
ATOM      9  C   UNL     1       0.305  10.717  20.458  0.00  0.00    +0.000 C 
ENDROOT
BRANCH   1  14
ATOM     10  C   UNL     1       2.799   4.614  17.900  0.00  0.00    +0.000 A 
ATOM     11  C   UNL     1       4.069   4.693  17.313  0.00  0.00    +0.000 A 
ATOM     12  C   UNL     1       4.695   5.925  17.157  0.00  0.00    +0.000 A 
ATOM     13  C   UNL     1       4.041   7.092  17.553  0.00  0.00    +0.000 A 
ATOM     14  C   UNL     1       2.756   7.035  18.109  0.00  0.00    +0.000 A 
ATOM     15  C   UNL     1       2.153   5.786  18.327  0.00  0.00    +0.000 A 
BRANCH  10  16
ATOM     16  C   UNL     1       2.142   3.281  17.925  0.00  0.00    +0.000 C 
ATOM     17  O   UNL     1       2.277   2.449  17.042  0.00  0.00    +0.000 OA
BRANCH  16  18
ATOM     18  O   UNL     1       1.281   3.209  18.968  0.00  0.00    +0.000 OA
BRANCH  18  20
ATOM     19  C   UNL     1       1.586   3.422  21.325  0.00  0.00    +0.000 C 
ATOM     20  C   UNL     1       1.779   2.516  20.120  0.00  0.00    +0.000 C 
ENDBRANCH  18  20
ENDBRANCH  16  18
ENDBRANCH  10  16
ENDBRANCH   1  14
BRANCH   9  21
ATOM     21  N   UNL     1       0.949  12.017  20.480  0.00  0.00    +0.000 N 
ATOM     22  C   UNL     1       0.303  13.145  20.020  0.00  0.00    +0.000 C 
ATOM     23  O   UNL     1      -0.834  13.107  19.541  0.00  0.00    +0.000 OA
ATOM     24  H   UNL     1       1.850  12.146  20.929  0.00  0.00    +0.000 HD
BRANCH  22  25
ATOM     25  C   UNL     1       1.051  14.399  20.119  0.00  0.00    +0.000 A 
ATOM     26  N   UNL     1       0.687  15.372  20.980  0.00  0.00    +0.000 NA
ATOM     27  O   UNL     1       1.617  16.396  20.822  0.00  0.00    +0.000 OA
ATOM     28  C   UNL     1       2.507  16.033  19.878  0.00  0.00    +0.000 A 
ATOM     29  C   UNL     1       2.206  14.788  19.389  0.00  0.00    +0.000 A 
ATOM     30  C   UNL     1       3.011  14.139  18.320  0.00  0.00    +0.000 C 
ATOM     31  C   UNL     1       4.354  14.880  18.110  0.00  0.00    +0.000 C 
ATOM     32  C   UNL     1       4.217  16.419  18.167  0.00  0.00    +0.000 C 
ATOM     33  C   UNL     1       3.640  16.905  19.514  0.00  0.00    +0.000 C 
ENDBRANCH  22  25
ENDBRANCH   9  21
TORSDOF 6
ENDMDL
MODEL 4
REMARK VINA RESULT:      -8.3      1.969      2.915
REMARK  Name = 
REMARK  7 active torsions:
REMARK  status: ('A' for Active; 'I' for Inactive)
REMARK    1  A    between atoms: C_1  and  C_2
REMARK    2  A    between atoms: C_2  and  O_3
REMARK    3  A    between atoms: O_3  and  C_4
REMARK    4  A    between atoms: C_4  and  C_6
REMARK    5  A    between atoms: C_10  and  N_11
REMARK    6  A    between atoms: C_19  and  N_20
REMARK    7  A    between atoms: C_21  and  C_23
REMARK                            x       y       z     vdW  Elec       q    Type
REMARK                         _______ _______ _______ _____ _____    ______ ____
ROOT
ATOM      1  N   UNL     1       2.203   7.804  18.338  0.00  0.00    +0.000 N 
ATOM      2  N   UNL     1       2.296   8.791  17.408  0.00  0.00    +0.000 NA
ATOM      3  C   UNL     1       1.692   9.843  17.962  0.00  0.00    +0.000 A 
ATOM      4  C   UNL     1       1.303   9.603  19.290  0.00  0.00    +0.000 A 
ATOM      5  C   UNL     1       1.604   8.275  19.497  0.00  0.00    +0.000 A 
ATOM      6  C   UNL     1       1.413   7.530  20.760  0.00  0.00    +0.000 C 
ATOM      7  C   UNL     1       0.944   8.408  21.922  0.00  0.00    +0.000 C 
ATOM      8  C   UNL     1       0.397   9.822  21.645  0.00  0.00    +0.000 C 
ATOM      9  C   UNL     1       0.687  10.508  20.289  0.00  0.00    +0.000 C 
ENDROOT
BRANCH   1  14
ATOM     10  C   UNL     1       4.739   5.153  17.729  0.00  0.00    +0.000 A 
ATOM     11  C   UNL     1       3.947   4.000  17.799  0.00  0.00    +0.000 A 
ATOM     12  C   UNL     1       2.570   4.103  17.969  0.00  0.00    +0.000 A 
ATOM     13  C   UNL     1       1.978   5.360  18.107  0.00  0.00    +0.000 A 
ATOM     14  C   UNL     1       2.761   6.522  18.075  0.00  0.00    +0.000 A 
ATOM     15  C   UNL     1       4.140   6.419  17.836  0.00  0.00    +0.000 A 
BRANCH  10  16
ATOM     16  C   UNL     1       6.212   4.965  17.666  0.00  0.00    +0.000 C 
ATOM     17  O   UNL     1       6.872   4.525  18.593  0.00  0.00    +0.000 OA
BRANCH  16  18
ATOM     18  O   UNL     1       6.697   5.490  16.515  0.00  0.00    +0.000 OA
BRANCH  18  20
ATOM     19  C   UNL     1       5.949   4.525  14.466  0.00  0.00    +0.000 C 
ATOM     20  C   UNL     1       7.051   4.530  15.512  0.00  0.00    +0.000 C 
ENDBRANCH  18  20
ENDBRANCH  16  18
ENDBRANCH  10  16
ENDBRANCH   1  14
BRANCH   9  21
ATOM     21  N   UNL     1       1.536  11.673  20.458  0.00  0.00    +0.000 N 
ATOM     22  C   UNL     1       1.001  12.936  20.594  0.00  0.00    +0.000 C 
ATOM     23  O   UNL     1      -0.215  13.148  20.548  0.00  0.00    +0.000 OA
ATOM     24  H   UNL     1       2.538  11.575  20.585  0.00  0.00    +0.000 HD
BRANCH  22  25
ATOM     25  C   UNL     1       1.961  14.024  20.784  0.00  0.00    +0.000 A 
ATOM     26  N   UNL     1       2.209  14.541  22.005  0.00  0.00    +0.000 NA
ATOM     27  O   UNL     1       3.173  15.529  21.817  0.00  0.00    +0.000 OA
ATOM     28  C   UNL     1       3.478  15.595  20.507  0.00  0.00    +0.000 A 
ATOM     29  C   UNL     1       2.747  14.677  19.797  0.00  0.00    +0.000 A 
ATOM     30  C   UNL     1       2.866  14.538  18.322  0.00  0.00    +0.000 C 
ATOM     31  C   UNL     1       4.112  15.288  17.791  0.00  0.00    +0.000 C 
ATOM     32  C   UNL     1       4.335  16.658  18.473  0.00  0.00    +0.000 C 
ATOM     33  C   UNL     1       4.501  16.531  20.003  0.00  0.00    +0.000 C 
ENDBRANCH  22  25
ENDBRANCH   9  21
TORSDOF 6
ENDMDL
MODEL 5
REMARK VINA RESULT:      -8.2      2.966      4.894
REMARK  Name = 
REMARK  7 active torsions:
REMARK  status: ('A' for Active; 'I' for Inactive)
REMARK    1  A    between atoms: C_1  and  C_2
REMARK    2  A    between atoms: C_2  and  O_3
REMARK    3  A    between atoms: O_3  and  C_4
REMARK    4  A    between atoms: C_4  and  C_6
REMARK    5  A    between atoms: C_10  and  N_11
REMARK    6  A    between atoms: C_19  and  N_20
REMARK    7  A    between atoms: C_21  and  C_23
REMARK                            x       y       z     vdW  Elec       q    Type
REMARK                         _______ _______ _______ _____ _____    ______ ____
ROOT
ATOM      1  N   UNL     1       1.674   7.238  20.478  0.00  0.00    +0.000 N 
ATOM      2  N   UNL     1       1.111   7.447  21.696  0.00  0.00    +0.000 NA
ATOM      3  C   UNL     1       0.823   8.749  21.723  0.00  0.00    +0.000 A 
ATOM      4  C   UNL     1       1.080   9.382  20.497  0.00  0.00    +0.000 A 
ATOM      5  C   UNL     1       1.664   8.403  19.725  0.00  0.00    +0.000 A 
ATOM      6  C   UNL     1       2.100   8.552  18.319  0.00  0.00    +0.000 C 
ATOM      7  C   UNL     1       1.733   9.905  17.707  0.00  0.00    +0.000 C 
ATOM      8  C   UNL     1       1.291  11.067  18.618  0.00  0.00    +0.000 C 
ATOM      9  C   UNL     1       0.831  10.778  20.066  0.00  0.00    +0.000 C 
ENDROOT
BRANCH   1  14
ATOM     10  C   UNL     1       3.847   4.502  19.205  0.00  0.00    +0.000 A 
ATOM     11  C   UNL     1       3.101   3.373  19.567  0.00  0.00    +0.000 A 
ATOM     12  C   UNL     1       1.850   3.519  20.158  0.00  0.00    +0.000 A 
ATOM     13  C   UNL     1       1.352   4.795  20.426  0.00  0.00    +0.000 A 
ATOM     14  C   UNL     1       2.101   5.933  20.103  0.00  0.00    +0.000 A 
ATOM     15  C   UNL     1       3.333   5.786  19.446  0.00  0.00    +0.000 A 
BRANCH  10  16
ATOM     16  C   UNL     1       5.222   4.272  18.689  0.00  0.00    +0.000 C 
ATOM     17  O   UNL     1       6.228   4.435  19.362  0.00  0.00    +0.000 OA
BRANCH  16  18
ATOM     18  O   UNL     1       5.181   4.016  17.359  0.00  0.00    +0.000 OA
BRANCH  18  20
ATOM     19  C   UNL     1       5.241   5.978  16.003  0.00  0.00    +0.000 C 
ATOM     20  C   UNL     1       6.055   4.821  16.559  0.00  0.00    +0.000 C 
ENDBRANCH  18  20
ENDBRANCH  16  18
ENDBRANCH  10  16
ENDBRANCH   1  14
BRANCH   9  21
ATOM     21  N   UNL     1      -0.577  11.083  20.242  0.00  0.00    +0.000 N 
ATOM     22  C   UNL     1      -0.988  12.270  20.810  0.00  0.00    +0.000 C 
ATOM     23  O   UNL     1      -0.189  13.116  21.225  0.00  0.00    +0.000 OA
ATOM     24  H   UNL     1      -1.295  10.477  19.857  0.00  0.00    +0.000 HD
BRANCH  22  25
ATOM     25  C   UNL     1      -2.435  12.468  20.909  0.00  0.00    +0.000 A 
ATOM     26  N   UNL     1      -3.213  12.546  19.809  0.00  0.00    +0.000 NA
ATOM     27  O   UNL     1      -4.516  12.715  20.269  0.00  0.00    +0.000 OA
ATOM     28  C   UNL     1      -4.501  12.745  21.616  0.00  0.00    +0.000 A 
ATOM     29  C   UNL     1      -3.221  12.599  22.085  0.00  0.00    +0.000 A 
ATOM     30  C   UNL     1      -2.901  12.612  23.536  0.00  0.00    +0.000 C 
ATOM     31  C   UNL     1      -4.185  12.466  24.389  0.00  0.00    +0.000 C 
ATOM     32  C   UNL     1      -5.378  13.282  23.840  0.00  0.00    +0.000 C 
ATOM     33  C   UNL     1      -5.747  12.879  22.395  0.00  0.00    +0.000 C 
ENDBRANCH  22  25
ENDBRANCH   9  21
TORSDOF 6
ENDMDL
MODEL 6
REMARK VINA RESULT:      -8.2      2.218      3.349
REMARK  Name = 
REMARK  7 active torsions:
REMARK  status: ('A' for Active; 'I' for Inactive)
REMARK    1  A    between atoms: C_1  and  C_2
REMARK    2  A    between atoms: C_2  and  O_3
REMARK    3  A    between atoms: O_3  and  C_4
REMARK    4  A    between atoms: C_4  and  C_6
REMARK    5  A    between atoms: C_10  and  N_11
REMARK    6  A    between atoms: C_19  and  N_20
REMARK    7  A    between atoms: C_21  and  C_23
REMARK                            x       y       z     vdW  Elec       q    Type
REMARK                         _______ _______ _______ _____ _____    ______ ____
ROOT
ATOM      1  N   UNL     1       1.986   8.111  18.417  0.00  0.00    +0.000 N 
ATOM      2  N   UNL     1       1.665   8.977  17.421  0.00  0.00    +0.000 NA
ATOM      3  C   UNL     1       0.905   9.906  18.004  0.00  0.00    +0.000 A 
ATOM      4  C   UNL     1       0.815   9.731  19.394  0.00  0.00    +0.000 A 
ATOM      5  C   UNL     1       1.482   8.550  19.632  0.00  0.00    +0.000 A 
ATOM      6  C   UNL     1       1.702   7.931  20.958  0.00  0.00    +0.000 C 
ATOM      7  C   UNL     1       1.215   8.795  22.123  0.00  0.00    +0.000 C 
ATOM      8  C   UNL     1       0.280   9.990  21.856  0.00  0.00    +0.000 C 
ATOM      9  C   UNL     1       0.155  10.566  20.425  0.00  0.00    +0.000 C 
ENDROOT
BRANCH   1  14
ATOM     10  C   UNL     1       4.934   6.112  17.348  0.00  0.00    +0.000 A 
ATOM     11  C   UNL     1       4.576   4.837  17.804  0.00  0.00    +0.000 A 
ATOM     12  C   UNL     1       3.333   4.625  18.392  0.00  0.00    +0.000 A 
ATOM     13  C   UNL     1       2.452   5.695  18.562  0.00  0.00    +0.000 A 
ATOM     14  C   UNL     1       2.810   6.983  18.144  0.00  0.00    +0.000 A 
ATOM     15  C   UNL     1       4.036   7.182  17.490  0.00  0.00    +0.000 A 
BRANCH  10  16
ATOM     16  C   UNL     1       6.320   6.289  16.841  0.00  0.00    +0.000 C 
ATOM     17  O   UNL     1       7.005   5.369  16.424  0.00  0.00    +0.000 OA
BRANCH  16  18
ATOM     18  O   UNL     1       6.732   7.561  17.056  0.00  0.00    +0.000 OA
BRANCH  18  20
ATOM     19  C   UNL     1       8.220   9.170  17.998  0.00  0.00    +0.000 C 
ATOM     20  C   UNL     1       7.884   7.692  17.898  0.00  0.00    +0.000 C 
ENDBRANCH  18  20
ENDBRANCH  16  18
ENDBRANCH  10  16
ENDBRANCH   1  14
BRANCH   9  21
ATOM     21  N   UNL     1       0.685  11.915  20.352  0.00  0.00    +0.000 N 
ATOM     22  C   UNL     1      -0.052  12.947  19.811  0.00  0.00    +0.000 C 
ATOM     23  O   UNL     1      -1.179  12.776  19.336  0.00  0.00    +0.000 OA
ATOM     24  H   UNL     1       1.569  12.154  20.791  0.00  0.00    +0.000 HD
BRANCH  22  25
ATOM     25  C   UNL     1       0.585  14.265  19.819  0.00  0.00    +0.000 A 
ATOM     26  N   UNL     1       0.098  15.280  20.562  0.00  0.00    +0.000 NA
ATOM     27  O   UNL     1       0.948  16.360  20.345  0.00  0.00    +0.000 OA
ATOM     28  C   UNL     1       1.913  15.988  19.482  0.00  0.00    +0.000 A 
ATOM     29  C   UNL     1       1.742  14.680  19.106  0.00  0.00    +0.000 A 
ATOM     30  C   UNL     1       2.652  14.005  18.145  0.00  0.00    +0.000 C 
ATOM     31  C   UNL     1       3.940  14.835  17.922  0.00  0.00    +0.000 C 
ATOM     32  C   UNL     1       3.675  16.355  17.820  0.00  0.00    +0.000 C 
ATOM     33  C   UNL     1       2.989  16.916  19.085  0.00  0.00    +0.000 C 
ENDBRANCH  22  25
ENDBRANCH   9  21
TORSDOF 6
ENDMDL
MODEL 7
REMARK VINA RESULT:      -8.2      1.794      1.893
REMARK  Name = 
REMARK  7 active torsions:
REMARK  status: ('A' for Active; 'I' for Inactive)
REMARK    1  A    between atoms: C_1  and  C_2
REMARK    2  A    between atoms: C_2  and  O_3
REMARK    3  A    between atoms: O_3  and  C_4
REMARK    4  A    between atoms: C_4  and  C_6
REMARK    5  A    between atoms: C_10  and  N_11
REMARK    6  A    between atoms: C_19  and  N_20
REMARK    7  A    between atoms: C_21  and  C_23
REMARK                            x       y       z     vdW  Elec       q    Type
REMARK                         _______ _______ _______ _____ _____    ______ ____
ROOT
ATOM      1  N   UNL     1       2.194   8.050  18.550  0.00  0.00    +0.000 N 
ATOM      2  N   UNL     1       1.940   8.817  17.458  0.00  0.00    +0.000 NA
ATOM      3  C   UNL     1       1.041   9.712  17.868  0.00  0.00    +0.000 A 
ATOM      4  C   UNL     1       0.783   9.623  19.246  0.00  0.00    +0.000 A 
ATOM      5  C   UNL     1       1.503   8.523  19.655  0.00  0.00    +0.000 A 
ATOM      6  C   UNL     1       1.595   8.014  21.041  0.00  0.00    +0.000 C 
ATOM      7  C   UNL     1       0.894   8.907  22.067  0.00  0.00    +0.000 C 
ATOM      8  C   UNL     1      -0.088   9.996  21.594  0.00  0.00    +0.000 C 
ATOM      9  C   UNL     1      -0.069  10.463  20.119  0.00  0.00    +0.000 C 
ENDROOT
BRANCH   1  14
ATOM     10  C   UNL     1       3.829   4.775  19.209  0.00  0.00    +0.000 A 
ATOM     11  C   UNL     1       4.793   4.745  18.193  0.00  0.00    +0.000 A 
ATOM     12  C   UNL     1       4.954   5.836  17.345  0.00  0.00    +0.000 A 
ATOM     13  C   UNL     1       4.125   6.951  17.482  0.00  0.00    +0.000 A 
ATOM     14  C   UNL     1       3.131   6.982  18.469  0.00  0.00    +0.000 A 
ATOM     15  C   UNL     1       3.016   5.910  19.367  0.00  0.00    +0.000 A 
BRANCH  10  16
ATOM     16  C   UNL     1       3.633   3.532  19.999  0.00  0.00    +0.000 C 
ATOM     17  O   UNL     1       4.291   2.518  19.829  0.00  0.00    +0.000 OA
BRANCH  16  18
ATOM     18  O   UNL     1       2.544   3.656  20.795  0.00  0.00    +0.000 OA
BRANCH  18  20
ATOM     19  C   UNL     1       0.777   2.812  19.433  0.00  0.00    +0.000 C 
ATOM     20  C   UNL     1       1.594   2.588  20.695  0.00  0.00    +0.000 C 
ENDBRANCH  18  20
ENDBRANCH  16  18
ENDBRANCH  10  16
ENDBRANCH   1  14
BRANCH   9  21
ATOM     21  N   UNL     1       0.359  11.846  20.010  0.00  0.00    +0.000 N 
ATOM     22  C   UNL     1      -0.332  12.751  19.234  0.00  0.00    +0.000 C 
ATOM     23  O   UNL     1      -1.324  12.433  18.571  0.00  0.00    +0.000 OA
ATOM     24  H   UNL     1       1.116  12.205  20.584  0.00  0.00    +0.000 HD
BRANCH  22  25
ATOM     25  C   UNL     1       0.188  14.120  19.227  0.00  0.00    +0.000 A 
ATOM     26  N   UNL     1      -0.533  15.150  19.716  0.00  0.00    +0.000 NA
ATOM     27  O   UNL     1       0.263  16.283  19.568  0.00  0.00    +0.000 OA
ATOM     28  C   UNL     1       1.427  15.924  18.994  0.00  0.00    +0.000 A 
ATOM     29  C   UNL     1       1.445  14.575  18.748  0.00  0.00    +0.000 A 
ATOM     30  C   UNL     1       2.602  13.901  18.102  0.00  0.00    +0.000 C 
ATOM     31  C   UNL     1       3.842  14.828  18.076  0.00  0.00    +0.000 C 
ATOM     32  C   UNL     1       3.497  16.297  17.737  0.00  0.00    +0.000 C 
ATOM     33  C   UNL     1       2.495  16.910  18.740  0.00  0.00    +0.000 C 
ENDBRANCH  22  25
ENDBRANCH   9  21
TORSDOF 6
ENDMDL
MODEL 8
REMARK VINA RESULT:      -8.1      1.104      1.129
REMARK  Name = 
REMARK  7 active torsions:
REMARK  status: ('A' for Active; 'I' for Inactive)
REMARK    1  A    between atoms: C_1  and  C_2
REMARK    2  A    between atoms: C_2  and  O_3
REMARK    3  A    between atoms: O_3  and  C_4
REMARK    4  A    between atoms: C_4  and  C_6
REMARK    5  A    between atoms: C_10  and  N_11
REMARK    6  A    between atoms: C_19  and  N_20
REMARK    7  A    between atoms: C_21  and  C_23
REMARK                            x       y       z     vdW  Elec       q    Type
REMARK                         _______ _______ _______ _____ _____    ______ ____
ROOT
ATOM      1  N   UNL     1       2.216   7.889  18.365  0.00  0.00    +0.000 N 
ATOM      2  N   UNL     1       2.096   8.755  17.325  0.00  0.00    +0.000 NA
ATOM      3  C   UNL     1       1.370   9.767  17.801  0.00  0.00    +0.000 A 
ATOM      4  C   UNL     1       1.106   9.639  19.175  0.00  0.00    +0.000 A 
ATOM      5  C   UNL     1       1.624   8.407  19.507  0.00  0.00    +0.000 A 
ATOM      6  C   UNL     1       1.630   7.806  20.859  0.00  0.00    +0.000 C 
ATOM      7  C   UNL     1       1.101   8.743  21.946  0.00  0.00    +0.000 C 
ATOM      8  C   UNL     1       0.324  10.015  21.554  0.00  0.00    +0.000 C 
ATOM      9  C   UNL     1       0.418  10.561  20.110  0.00  0.00    +0.000 C 
ENDROOT
BRANCH   1  14
ATOM     10  C   UNL     1       2.952   4.254  18.102  0.00  0.00    +0.000 A 
ATOM     11  C   UNL     1       4.283   4.278  17.667  0.00  0.00    +0.000 A 
ATOM     12  C   UNL     1       4.957   5.488  17.537  0.00  0.00    +0.000 A 
ATOM     13  C   UNL     1       4.294   6.686  17.806  0.00  0.00    +0.000 A 
ATOM     14  C   UNL     1       2.951   6.682  18.207  0.00  0.00    +0.000 A 
ATOM     15  C   UNL     1       2.293   5.457  18.403  0.00  0.00    +0.000 A 
BRANCH  10  16
ATOM     16  C   UNL     1       2.260   2.938  18.104  0.00  0.00    +0.000 C 
ATOM     17  O   UNL     1       2.286   2.165  17.160  0.00  0.00    +0.000 OA
BRANCH  16  18
ATOM     18  O   UNL     1       1.498   2.817  19.217  0.00  0.00    +0.000 OA
BRANCH  18  20
ATOM     19  C   UNL     1       1.703   3.272  21.550  0.00  0.00    +0.000 C 
ATOM     20  C   UNL     1       2.206   2.419  20.397  0.00  0.00    +0.000 C 
ENDBRANCH  18  20
ENDBRANCH  16  18
ENDBRANCH  10  16
ENDBRANCH   1  14
BRANCH   9  21
ATOM     21  N   UNL     1       1.082  11.851  20.077  0.00  0.00    +0.000 N 
ATOM     22  C   UNL     1       0.595  12.889  19.312  0.00  0.00    +0.000 C 
ATOM     23  O   UNL     1      -0.405  12.771  18.597  0.00  0.00    +0.000 OA
ATOM     24  H   UNL     1       1.862  12.053  20.696  0.00  0.00    +0.000 HD
BRANCH  22  25
ATOM     25  C   UNL     1       1.341  14.146  19.385  0.00  0.00    +0.000 A 
ATOM     26  N   UNL     1       2.651  14.171  19.708  0.00  0.00    +0.000 NA
ATOM     27  O   UNL     1       3.034  15.509  19.664  0.00  0.00    +0.000 OA
ATOM     28  C   UNL     1       1.965  16.257  19.329  0.00  0.00    +0.000 A 
ATOM     29  C   UNL     1       0.862  15.462  19.143  0.00  0.00    +0.000 A 
ATOM     30  C   UNL     1      -0.467  16.020  18.783  0.00  0.00    +0.000 C 
ATOM     31  C   UNL     1      -0.347  17.496  18.331  0.00  0.00    +0.000 C 
ATOM     32  C   UNL     1       0.645  18.317  19.189  0.00  0.00    +0.000 C 
ATOM     33  C   UNL     1       2.069  17.720  19.169  0.00  0.00    +0.000 C 
ENDBRANCH  22  25
ENDBRANCH   9  21
TORSDOF 6
ENDMDL
MODEL 9
REMARK VINA RESULT:      -8.1      2.006      2.979
REMARK  Name = 
REMARK  7 active torsions:
REMARK  status: ('A' for Active; 'I' for Inactive)
REMARK    1  A    between atoms: C_1  and  C_2
REMARK    2  A    between atoms: C_2  and  O_3
REMARK    3  A    between atoms: O_3  and  C_4
REMARK    4  A    between atoms: C_4  and  C_6
REMARK    5  A    between atoms: C_10  and  N_11
REMARK    6  A    between atoms: C_19  and  N_20
REMARK    7  A    between atoms: C_21  and  C_23
REMARK                            x       y       z     vdW  Elec       q    Type
REMARK                         _______ _______ _______ _____ _____    ______ ____
ROOT
ATOM      1  N   UNL     1       2.377   7.534  18.517  0.00  0.00    +0.000 N 
ATOM      2  N   UNL     1       2.390   8.321  17.409  0.00  0.00    +0.000 NA
ATOM      3  C   UNL     1       1.644   9.378  17.729  0.00  0.00    +0.000 A 
ATOM      4  C   UNL     1       1.232   9.360  19.072  0.00  0.00    +0.000 A 
ATOM      5  C   UNL     1       1.680   8.148  19.548  0.00  0.00    +0.000 A 
ATOM      6  C   UNL     1       1.528   7.650  20.932  0.00  0.00    +0.000 C 
ATOM      7  C   UNL     1       0.910   8.676  21.885  0.00  0.00    +0.000 C 
ATOM      8  C   UNL     1       0.211   9.928  21.319  0.00  0.00    +0.000 C 
ATOM      9  C   UNL     1       0.473  10.361  19.857  0.00  0.00    +0.000 C 
ENDROOT
BRANCH   1  14
ATOM     10  C   UNL     1       5.222   5.148  18.722  0.00  0.00    +0.000 A 
ATOM     11  C   UNL     1       4.544   3.925  18.800  0.00  0.00    +0.000 A 
ATOM     12  C   UNL     1       3.157   3.884  18.707  0.00  0.00    +0.000 A 
ATOM     13  C   UNL     1       2.434   5.070  18.572  0.00  0.00    +0.000 A 
ATOM     14  C   UNL     1       3.094   6.305  18.528  0.00  0.00    +0.000 A 
ATOM     15  C   UNL     1       4.497   6.339  18.555  0.00  0.00    +0.000 A 
BRANCH  10  16
ATOM     16  C   UNL     1       6.691   5.128  18.948  0.00  0.00    +0.000 C 
ATOM     17  O   UNL     1       7.222   5.575  19.952  0.00  0.00    +0.000 OA
BRANCH  16  18
ATOM     18  O   UNL     1       7.325   4.695  17.832  0.00  0.00    +0.000 OA
BRANCH  18  20
ATOM     19  C   UNL     1       6.993   4.706  15.470  0.00  0.00    +0.000 C 
ATOM     20  C   UNL     1       7.227   5.568  16.700  0.00  0.00    +0.000 C 
ENDBRANCH  18  20
ENDBRANCH  16  18
ENDBRANCH  10  16
ENDBRANCH   1  14
BRANCH   9  21
ATOM     21  N   UNL     1       1.169  11.634  19.801  0.00  0.00    +0.000 N 
ATOM     22  C   UNL     1       0.676  12.690  19.065  0.00  0.00    +0.000 C 
ATOM     23  O   UNL     1      -0.358  12.603  18.396  0.00  0.00    +0.000 OA
ATOM     24  H   UNL     1       1.981  11.810  20.384  0.00  0.00    +0.000 HD
BRANCH  22  25
ATOM     25  C   UNL     1       1.458  13.926  19.111  0.00  0.00    +0.000 A 
ATOM     26  N   UNL     1       2.783  13.913  19.366  0.00  0.00    +0.000 NA
ATOM     27  O   UNL     1       3.199  15.240  19.315  0.00  0.00    +0.000 OA
ATOM     28  C   UNL     1       2.134  16.020  19.042  0.00  0.00    +0.000 A 
ATOM     29  C   UNL     1       1.003  15.256  18.906  0.00  0.00    +0.000 A 
ATOM     30  C   UNL     1      -0.328  15.852  18.619  0.00  0.00    +0.000 C 
ATOM     31  C   UNL     1      -0.191  17.329  18.175  0.00  0.00    +0.000 C 
ATOM     32  C   UNL     1       0.865  18.115  18.988  0.00  0.00    +0.000 C 
ATOM     33  C   UNL     1       2.270  17.481  18.889  0.00  0.00    +0.000 C 
ENDBRANCH  22  25
ENDBRANCH   9  21
TORSDOF 6
ENDMDL
