MODEL 1
REMARK VINA RESULT:      -8.8      0.000      0.000
REMARK  Name = 
REMARK  11 active torsions:
REMARK  status: ('A' for Active; 'I' for Inactive)
REMARK    1  A    between atoms: C_1  and  C_2
REMARK    2  A    between atoms: C_4  and  C_5
REMARK    3  A    between atoms: C_5  and  O_6
REMARK    4  A    between atoms: O_6  and  C_7
REMARK    5  A    between atoms: C_10  and  S_11
REMARK    6  A    between atoms: S_11  and  C_14
REMARK    7  A    between atoms: C_14  and  C_15
REMARK    8  A    between atoms: C_15  and  C_16
REMARK    9  A    between atoms: C_16  and  C_17
REMARK   10  A    between atoms: N_19  and  O_20
REMARK   11  A    between atoms: N_23  and  C_24
REMARK                            x       y       z     vdW  Elec       q    Type
REMARK                         _______ _______ _______ _____ _____    ______ ____
ROOT
ATOM      1  C   UNL     1       1.191   8.913  19.888  0.00  0.00    +0.000 A 
ATOM      2  C   UNL     1       1.395   7.785  20.685  0.00  0.00    +0.000 A 
ATOM      3  C   UNL     1       2.109   6.700  20.188  0.00  0.00    +0.000 A 
ATOM      4  C   UNL     1       2.573   6.725  18.872  0.00  0.00    +0.000 A 
ATOM      5  C   UNL     1       2.344   7.831  18.050  0.00  0.00    +0.000 A 
ATOM      6  C   UNL     1       1.645   8.926  18.565  0.00  0.00    +0.000 A 
ENDROOT
BRANCH   4   7
ATOM      7  S   UNL     1       3.461   5.307  18.271  0.00  0.00    +0.000 S 
ATOM      8  O   UNL     1       4.296   4.816  19.351  0.00  0.00    +0.000 OA
ATOM      9  O   UNL     1       2.472   4.451  17.646  0.00  0.00    +0.000 OA
BRANCH   7  10
ATOM     10  C   UNL     1       4.524   6.011  17.022  0.00  0.00    +0.000 C 
BRANCH  10  11
ATOM     11  C   UNL     1       5.618   5.089  16.453  0.00  0.00    +0.000 C 
ATOM     12  C   UNL     1       6.820   5.870  15.863  0.00  0.00    +0.000 C 
ATOM     13  C   UNL     1       7.128   5.220  14.512  0.00  0.00    +0.000 C 
ATOM     14  N   UNL     1       6.268   4.037  14.458  0.00  0.00    +0.000 NA
ATOM     15  C   UNL     1       5.981   3.630  13.086  0.00  0.00    +0.000 C 
ATOM     16  C   UNL     1       5.059   4.398  15.193  0.00  0.00    +0.000 C 
BRANCH  11  17
ATOM     17  C   UNL     1       6.174   4.060  17.478  0.00  0.00    +0.000 C 
BRANCH  17  18
ATOM     18  C   UNL     1       7.456   4.439  18.198  0.00  0.00    +0.000 C 
ATOM     19  O   UNL     1       8.584   4.088  17.857  0.00  0.00    +0.000 OA
ATOM     20  N   UNL     1       7.235   5.231  19.298  0.00  0.00    +0.000 N 
ATOM     21  H   UNL     1       6.343   5.656  19.527  0.00  0.00    +0.000 HD
BRANCH  20  22
ATOM     22  O   UNL     1       8.368   5.686  20.002  0.00  0.00    +0.000 OA
ATOM     23  H   UNL     1       8.007   6.438  20.518  0.00  0.00    +0.000 HD
ENDBRANCH  20  22
ENDBRANCH  17  18
ENDBRANCH  11  17
ENDBRANCH  10  11
ENDBRANCH   7  10
ENDBRANCH   4   7
BRANCH   1  24
ATOM     24  O   UNL     1       0.561  10.048  20.320  0.00  0.00    +0.000 OA
BRANCH  24  25
ATOM     25  C   UNL     1       0.274  10.996  19.282  0.00  0.00    +0.000 C 
BRANCH  25  29
ATOM     26  C   UNL     1      -3.516  13.382  21.563  0.00  0.00    +0.000 C 
ATOM     27  C   UNL     1      -2.973  12.600  20.407  0.00  0.00    +0.000 A 
ATOM     28  C   UNL     1      -1.644  12.210  20.387  0.00  0.00    +0.000 A 
ATOM     29  C   UNL     1      -1.164  11.461  19.309  0.00  0.00    +0.000 A 
ATOM     30  C   UNL     1      -2.053  11.129  18.255  0.00  0.00    +0.000 A 
ATOM     31  C   UNL     1      -1.685  10.371  17.114  0.00  0.00    +0.000 A 
ATOM     32  C   UNL     1      -2.609  10.068  16.115  0.00  0.00    +0.000 A 
ATOM     33  C   UNL     1      -3.915  10.516  16.235  0.00  0.00    +0.000 A 
ATOM     34  C   UNL     1      -4.287  11.262  17.356  0.00  0.00    +0.000 A 
ATOM     35  C   UNL     1      -3.390  11.579  18.368  0.00  0.00    +0.000 A 
ATOM     36  N   UNL     1      -3.837  12.294  19.414  0.00  0.00    +0.000 NA
ENDBRANCH  25  29
ENDBRANCH  24  25
ENDBRANCH   1  24
TORSDOF 9
ENDMDL
MODEL 2
REMARK VINA RESULT:      -8.6      1.623      2.810
REMARK  Name = 
REMARK  11 active torsions:
REMARK  status: ('A' for Active; 'I' for Inactive)
REMARK    1  A    between atoms: C_1  and  C_2
REMARK    2  A    between atoms: C_4  and  C_5
REMARK    3  A    between atoms: C_5  and  O_6
REMARK    4  A    between atoms: O_6  and  C_7
REMARK    5  A    between atoms: C_10  and  S_11
REMARK    6  A    between atoms: S_11  and  C_14
REMARK    7  A    between atoms: C_14  and  C_15
REMARK    8  A    between atoms: C_15  and  C_16
REMARK    9  A    between atoms: C_16  and  C_17
REMARK   10  A    between atoms: N_19  and  O_20
REMARK   11  A    between atoms: N_23  and  C_24
REMARK                            x       y       z     vdW  Elec       q    Type
REMARK                         _______ _______ _______ _____ _____    ______ ____
ROOT
ATOM      1  C   UNL     1       1.739   8.553  19.303  0.00  0.00    +0.000 A 
ATOM      2  C   UNL     1       2.335   8.322  18.062  0.00  0.00    +0.000 A 
ATOM      3  C   UNL     1       2.899   7.083  17.779  0.00  0.00    +0.000 A 
ATOM      4  C   UNL     1       2.913   6.092  18.762  0.00  0.00    +0.000 A 
ATOM      5  C   UNL     1       2.354   6.320  20.021  0.00  0.00    +0.000 A 
ATOM      6  C   UNL     1       1.769   7.561  20.289  0.00  0.00    +0.000 A 
ENDROOT
BRANCH   4   7
ATOM      7  S   UNL     1       3.667   4.531  18.364  0.00  0.00    +0.000 S 
ATOM      8  O   UNL     1       4.596   4.204  19.429  0.00  0.00    +0.000 OA
ATOM      9  O   UNL     1       2.578   3.637  18.023  0.00  0.00    +0.000 OA
BRANCH   7  10
ATOM     10  C   UNL     1       4.611   4.915  16.899  0.00  0.00    +0.000 C 
BRANCH  10  11
ATOM     11  C   UNL     1       6.114   5.181  17.103  0.00  0.00    +0.000 C 
ATOM     12  C   UNL     1       6.560   5.031  18.579  0.00  0.00    +0.000 C 
ATOM     13  C   UNL     1       7.437   6.248  18.885  0.00  0.00    +0.000 C 
ATOM     14  N   UNL     1       7.613   6.920  17.596  0.00  0.00    +0.000 NA
ATOM     15  C   UNL     1       7.899   8.342  17.753  0.00  0.00    +0.000 C 
ATOM     16  C   UNL     1       6.375   6.681  16.859  0.00  0.00    +0.000 C 
BRANCH  11  17
ATOM     17  C   UNL     1       7.039   4.285  16.231  0.00  0.00    +0.000 C 
BRANCH  17  18
ATOM     18  C   UNL     1       7.018   4.536  14.734  0.00  0.00    +0.000 C 
ATOM     19  O   UNL     1       7.596   5.461  14.168  0.00  0.00    +0.000 OA
ATOM     20  N   UNL     1       6.272   3.608  14.049  0.00  0.00    +0.000 N 
ATOM     21  H   UNL     1       5.902   2.757  14.458  0.00  0.00    +0.000 HD
BRANCH  20  22
ATOM     22  O   UNL     1       6.238   3.720  12.644  0.00  0.00    +0.000 OA
ATOM     23  H   UNL     1       5.370   4.149  12.489  0.00  0.00    +0.000 HD
ENDBRANCH  20  22
ENDBRANCH  17  18
ENDBRANCH  11  17
ENDBRANCH  10  11
ENDBRANCH   7  10
ENDBRANCH   4   7
BRANCH   1  24
ATOM     24  O   UNL     1       1.101   9.716  19.639  0.00  0.00    +0.000 OA
BRANCH  24  25
ATOM     25  C   UNL     1       0.489  10.395  18.534  0.00  0.00    +0.000 C 
BRANCH  25  29
ATOM     26  C   UNL     1      -2.273  13.059  21.779  0.00  0.00    +0.000 C 
ATOM     27  C   UNL     1      -2.127  12.335  20.477  0.00  0.00    +0.000 A 
ATOM     28  C   UNL     1      -0.918  11.755  20.129  0.00  0.00    +0.000 A 
ATOM     29  C   UNL     1      -0.811  11.065  18.918  0.00  0.00    +0.000 A 
ATOM     30  C   UNL     1      -1.945  10.987  18.071  0.00  0.00    +0.000 A 
ATOM     31  C   UNL     1      -1.960  10.311  16.823  0.00  0.00    +0.000 A 
ATOM     32  C   UNL     1      -3.111  10.261  16.038  0.00  0.00    +0.000 A 
ATOM     33  C   UNL     1      -4.267  10.884  16.483  0.00  0.00    +0.000 A 
ATOM     34  C   UNL     1      -4.262  11.550  17.710  0.00  0.00    +0.000 A 
ATOM     35  C   UNL     1      -3.132  11.617  18.515  0.00  0.00    +0.000 A 
ATOM     36  N   UNL     1      -3.220  12.272  19.684  0.00  0.00    +0.000 NA
ENDBRANCH  25  29
ENDBRANCH  24  25
ENDBRANCH   1  24
TORSDOF 9
ENDMDL
MODEL 3
REMARK VINA RESULT:      -8.6      1.659      3.456
REMARK  Name = 
REMARK  11 active torsions:
REMARK  status: ('A' for Active; 'I' for Inactive)
REMARK    1  A    between atoms: C_1  and  C_2
REMARK    2  A    between atoms: C_4  and  C_5
REMARK    3  A    between atoms: C_5  and  O_6
REMARK    4  A    between atoms: O_6  and  C_7
REMARK    5  A    between atoms: C_10  and  S_11
REMARK    6  A    between atoms: S_11  and  C_14
REMARK    7  A    between atoms: C_14  and  C_15
REMARK    8  A    between atoms: C_15  and  C_16
REMARK    9  A    between atoms: C_16  and  C_17
REMARK   10  A    between atoms: N_19  and  O_20
REMARK   11  A    between atoms: N_23  and  C_24
REMARK                            x       y       z     vdW  Elec       q    Type
REMARK                         _______ _______ _______ _____ _____    ______ ____
ROOT
ATOM      1  C   UNL     1       1.534   8.561  19.723  0.00  0.00    +0.000 A 
ATOM      2  C   UNL     1       2.055   8.399  18.438  0.00  0.00    +0.000 A 
ATOM      3  C   UNL     1       2.559   7.166  18.040  0.00  0.00    +0.000 A 
ATOM      4  C   UNL     1       2.589   6.108  18.950  0.00  0.00    +0.000 A 
ATOM      5  C   UNL     1       2.105   6.265  20.251  0.00  0.00    +0.000 A 
ATOM      6  C   UNL     1       1.580   7.502  20.634  0.00  0.00    +0.000 A 
ENDROOT
BRANCH   4   7
ATOM      7  S   UNL     1       3.264   4.556  18.405  0.00  0.00    +0.000 S 
ATOM      8  O   UNL     1       4.214   4.110  19.407  0.00  0.00    +0.000 OA
ATOM      9  O   UNL     1       2.128   3.733  18.037  0.00  0.00    +0.000 OA
BRANCH   7  10
ATOM     10  C   UNL     1       4.174   5.018  16.941  0.00  0.00    +0.000 C 
BRANCH  10  11
ATOM     11  C   UNL     1       5.702   5.129  17.090  0.00  0.00    +0.000 C 
ATOM     12  C   UNL     1       6.183   4.932  18.550  0.00  0.00    +0.000 C 
ATOM     13  C   UNL     1       7.190   6.053  18.822  0.00  0.00    +0.000 C 
ATOM     14  N   UNL     1       7.387   6.705  17.526  0.00  0.00    +0.000 NA
ATOM     15  C   UNL     1       7.821   8.091  17.670  0.00  0.00    +0.000 C 
ATOM     16  C   UNL     1       6.105   6.596  16.834  0.00  0.00    +0.000 C 
BRANCH  11  17
ATOM     17  C   UNL     1       6.500   4.145  16.188  0.00  0.00    +0.000 C 
BRANCH  17  18
ATOM     18  C   UNL     1       6.658   4.533  14.729  0.00  0.00    +0.000 C 
ATOM     19  O   UNL     1       5.870   4.238  13.833  0.00  0.00    +0.000 OA
ATOM     20  N   UNL     1       7.796   5.266  14.493  0.00  0.00    +0.000 N 
ATOM     21  H   UNL     1       8.391   5.649  15.220  0.00  0.00    +0.000 HD
BRANCH  20  22
ATOM     22  O   UNL     1       8.004   5.726  13.176  0.00  0.00    +0.000 OA
ATOM     23  H   UNL     1       8.796   5.219  12.900  0.00  0.00    +0.000 HD
ENDBRANCH  20  22
ENDBRANCH  17  18
ENDBRANCH  11  17
ENDBRANCH  10  11
ENDBRANCH   7  10
ENDBRANCH   4   7
BRANCH   1  24
ATOM     24  O   UNL     1       0.957   9.717  20.172  0.00  0.00    +0.000 OA
BRANCH  24  25
ATOM     25  C   UNL     1       0.776  10.720  19.162  0.00  0.00    +0.000 C 
BRANCH  25  29
ATOM     26  C   UNL     1      -2.893   9.675  15.890  0.00  0.00    +0.000 C 
ATOM     27  C   UNL     1      -2.413  10.335  17.145  0.00  0.00    +0.000 A 
ATOM     28  C   UNL     1      -1.096  10.191  17.553  0.00  0.00    +0.000 A 
ATOM     29  C   UNL     1      -0.664  10.835  18.716  0.00  0.00    +0.000 A 
ATOM     30  C   UNL     1      -1.593  11.611  19.455  0.00  0.00    +0.000 A 
ATOM     31  C   UNL     1      -1.271  12.314  20.646  0.00  0.00    +0.000 A 
ATOM     32  C   UNL     1      -2.226  13.070  21.323  0.00  0.00    +0.000 A 
ATOM     33  C   UNL     1      -3.519  13.139  20.826  0.00  0.00    +0.000 A 
ATOM     34  C   UNL     1      -3.844  12.451  19.655  0.00  0.00    +0.000 A 
ATOM     35  C   UNL     1      -2.914  11.691  18.957  0.00  0.00    +0.000 A 
ATOM     36  N   UNL     1      -3.313  11.070  17.834  0.00  0.00    +0.000 NA
ENDBRANCH  25  29
ENDBRANCH  24  25
ENDBRANCH   1  24
TORSDOF 9
ENDMDL
MODEL 4
REMARK VINA RESULT:      -8.5      2.591      3.757
REMARK  Name = 
REMARK  11 active torsions:
REMARK  status: ('A' for Active; 'I' for Inactive)
REMARK    1  A    between atoms: C_1  and  C_2
REMARK    2  A    between atoms: C_4  and  C_5
REMARK    3  A    between atoms: C_5  and  O_6
REMARK    4  A    between atoms: O_6  and  C_7
REMARK    5  A    between atoms: C_10  and  S_11
REMARK    6  A    between atoms: S_11  and  C_14
REMARK    7  A    between atoms: C_14  and  C_15
REMARK    8  A    between atoms: C_15  and  C_16
REMARK    9  A    between atoms: C_16  and  C_17
REMARK   10  A    between atoms: N_19  and  O_20
REMARK   11  A    between atoms: N_23  and  C_24
REMARK                            x       y       z     vdW  Elec       q    Type
REMARK                         _______ _______ _______ _____ _____    ______ ____
ROOT
ATOM      1  C   UNL     1       0.719  10.348  19.795  0.00  0.00    +0.000 A 
ATOM      2  C   UNL     1       1.331  10.406  18.541  0.00  0.00    +0.000 A 
ATOM      3  C   UNL     1       2.048   9.315  18.064  0.00  0.00    +0.000 A 
ATOM      4  C   UNL     1       2.196   8.183  18.867  0.00  0.00    +0.000 A 
ATOM      5  C   UNL     1       1.621   8.124  20.139  0.00  0.00    +0.000 A 
ATOM      6  C   UNL     1       0.884   9.217  20.601  0.00  0.00    +0.000 A 
ENDROOT
BRANCH   4   7
ATOM      7  S   UNL     1       3.140   6.820  18.226  0.00  0.00    +0.000 S 
ATOM      8  O   UNL     1       3.675   7.219  16.938  0.00  0.00    +0.000 OA
ATOM      9  O   UNL     1       4.018   6.401  19.301  0.00  0.00    +0.000 OA
BRANCH   7  10
ATOM     10  C   UNL     1       1.892   5.575  17.948  0.00  0.00    +0.000 C 
BRANCH  10  11
ATOM     11  C   UNL     1       2.214   4.156  18.453  0.00  0.00    +0.000 C 
ATOM     12  C   UNL     1       1.069   3.146  18.188  0.00  0.00    +0.000 C 
ATOM     13  C   UNL     1       0.880   2.365  19.491  0.00  0.00    +0.000 C 
ATOM     14  N   UNL     1       1.984   2.794  20.351  0.00  0.00    +0.000 NA
ATOM     15  C   UNL     1       1.669   2.634  21.767  0.00  0.00    +0.000 C 
ATOM     16  C   UNL     1       2.238   4.187  19.994  0.00  0.00    +0.000 C 
BRANCH  11  17
ATOM     17  C   UNL     1       3.524   3.558  17.866  0.00  0.00    +0.000 C 
BRANCH  17  18
ATOM     18  C   UNL     1       4.565   3.086  18.865  0.00  0.00    +0.000 C 
ATOM     19  O   UNL     1       5.447   3.792  19.349  0.00  0.00    +0.000 OA
ATOM     20  N   UNL     1       4.429   1.757  19.189  0.00  0.00    +0.000 N 
ATOM     21  H   UNL     1       3.636   1.182  18.925  0.00  0.00    +0.000 HD
BRANCH  20  22
ATOM     22  O   UNL     1       5.313   1.236  20.155  0.00  0.00    +0.000 OA
ATOM     23  H   UNL     1       6.183   1.321  19.711  0.00  0.00    +0.000 HD
ENDBRANCH  20  22
ENDBRANCH  17  18
ENDBRANCH  11  17
ENDBRANCH  10  11
ENDBRANCH   7  10
ENDBRANCH   4   7
BRANCH   1  24
ATOM     24  O   UNL     1      -0.060  11.347  20.310  0.00  0.00    +0.000 OA
BRANCH  24  25
ATOM     25  C   UNL     1      -0.583  12.255  19.331  0.00  0.00    +0.000 C 
BRANCH  25  29
ATOM     26  C   UNL     1      -5.190  12.841  21.254  0.00  0.00    +0.000 C 
ATOM     27  C   UNL     1      -4.286  12.438  20.130  0.00  0.00    +0.000 A 
ATOM     28  C   UNL     1      -2.911  12.563  20.255  0.00  0.00    +0.000 A 
ATOM     29  C   UNL     1      -2.086  12.159  19.202  0.00  0.00    +0.000 A 
ATOM     30  C   UNL     1      -2.682  11.641  18.024  0.00  0.00    +0.000 A 
ATOM     31  C   UNL     1      -1.950  11.196  16.893  0.00  0.00    +0.000 A 
ATOM     32  C   UNL     1      -2.593  10.686  15.767  0.00  0.00    +0.000 A 
ATOM     33  C   UNL     1      -3.977  10.612  15.747  0.00  0.00    +0.000 A 
ATOM     34  C   UNL     1      -4.706  11.047  16.856  0.00  0.00    +0.000 A 
ATOM     35  C   UNL     1      -4.094  11.559  17.993  0.00  0.00    +0.000 A 
ATOM     36  N   UNL     1      -4.874  11.946  19.017  0.00  0.00    +0.000 NA
ENDBRANCH  25  29
ENDBRANCH  24  25
ENDBRANCH   1  24
TORSDOF 9
ENDMDL
MODEL 5
REMARK VINA RESULT:      -8.5      1.245      1.492
REMARK  Name = 
REMARK  11 active torsions:
REMARK  status: ('A' for Active; 'I' for Inactive)
REMARK    1  A    between atoms: C_1  and  C_2
REMARK    2  A    between atoms: C_4  and  C_5
REMARK    3  A    between atoms: C_5  and  O_6
REMARK    4  A    between atoms: O_6  and  C_7
REMARK    5  A    between atoms: C_10  and  S_11
REMARK    6  A    between atoms: S_11  and  C_14
REMARK    7  A    between atoms: C_14  and  C_15
REMARK    8  A    between atoms: C_15  and  C_16
REMARK    9  A    between atoms: C_16  and  C_17
REMARK   10  A    between atoms: N_19  and  O_20
REMARK   11  A    between atoms: N_23  and  C_24
REMARK                            x       y       z     vdW  Elec       q    Type
REMARK                         _______ _______ _______ _____ _____    ______ ____
ROOT
ATOM      1  C   UNL     1       1.630   7.861  19.904  0.00  0.00    +0.000 A 
ATOM      2  C   UNL     1       1.691   6.727  20.716  0.00  0.00    +0.000 A 
ATOM      3  C   UNL     1       2.209   5.538  20.216  0.00  0.00    +0.000 A 
ATOM      4  C   UNL     1       2.618   5.472  18.883  0.00  0.00    +0.000 A 
ATOM      5  C   UNL     1       2.528   6.587  18.047  0.00  0.00    +0.000 A 
ATOM      6  C   UNL     1       2.027   7.784  18.565  0.00  0.00    +0.000 A 
ENDROOT
BRANCH   4   7
ATOM      7  S   UNL     1       3.251   3.924  18.279  0.00  0.00    +0.000 S 
ATOM      8  O   UNL     1       2.705   2.867  19.108  0.00  0.00    +0.000 OA
ATOM      9  O   UNL     1       3.034   3.935  16.846  0.00  0.00    +0.000 OA
BRANCH   7  10
ATOM     10  C   UNL     1       4.997   4.055  18.623  0.00  0.00    +0.000 C 
BRANCH  10  11
ATOM     11  C   UNL     1       5.886   4.570  17.476  0.00  0.00    +0.000 C 
ATOM     12  C   UNL     1       5.423   5.941  16.921  0.00  0.00    +0.000 C 
ATOM     13  C   UNL     1       5.446   5.812  15.395  0.00  0.00    +0.000 C 
ATOM     14  N   UNL     1       6.066   4.511  15.136  0.00  0.00    +0.000 NA
ATOM     15  C   UNL     1       5.665   3.961  13.846  0.00  0.00    +0.000 C 
ATOM     16  C   UNL     1       5.667   3.658  16.252  0.00  0.00    +0.000 C 
BRANCH  11  17
ATOM     17  C   UNL     1       7.392   4.689  17.845  0.00  0.00    +0.000 C 
BRANCH  17  18
ATOM     18  C   UNL     1       7.757   5.727  18.891  0.00  0.00    +0.000 C 
ATOM     19  O   UNL     1       7.665   5.566  20.105  0.00  0.00    +0.000 OA
ATOM     20  N   UNL     1       8.214   6.900  18.339  0.00  0.00    +0.000 N 
ATOM     21  H   UNL     1       8.438   7.022  17.358  0.00  0.00    +0.000 HD
BRANCH  20  22
ATOM     22  O   UNL     1       8.635   7.909  19.230  0.00  0.00    +0.000 OA
ATOM     23  H   UNL     1       8.355   8.727  18.768  0.00  0.00    +0.000 HD
ENDBRANCH  20  22
ENDBRANCH  17  18
ENDBRANCH  11  17
ENDBRANCH  10  11
ENDBRANCH   7  10
ENDBRANCH   4   7
BRANCH   1  24
ATOM     24  O   UNL     1       1.201   9.087  20.335  0.00  0.00    +0.000 OA
BRANCH  24  25
ATOM     25  C   UNL     1       0.971  10.036  19.285  0.00  0.00    +0.000 C 
BRANCH  25  29
ATOM     26  C   UNL     1      -1.787  13.221  22.026  0.00  0.00    +0.000 C 
ATOM     27  C   UNL     1      -1.609  12.356  20.816  0.00  0.00    +0.000 A 
ATOM     28  C   UNL     1      -0.429  11.655  20.623  0.00  0.00    +0.000 A 
ATOM     29  C   UNL     1      -0.294  10.836  19.498  0.00  0.00    +0.000 A 
ATOM     30  C   UNL     1      -1.369  10.753  18.577  0.00  0.00    +0.000 A 
ATOM     31  C   UNL     1      -1.350   9.954  17.405  0.00  0.00    +0.000 A 
ATOM     32  C   UNL     1      -2.444   9.906  16.542  0.00  0.00    +0.000 A 
ATOM     33  C   UNL     1      -3.574  10.655  16.831  0.00  0.00    +0.000 A 
ATOM     34  C   UNL     1      -3.601  11.444  17.983  0.00  0.00    +0.000 A 
ATOM     35  C   UNL     1      -2.528  11.512  18.863  0.00  0.00    +0.000 A 
ATOM     36  N   UNL     1      -2.646  12.291  19.951  0.00  0.00    +0.000 NA
ENDBRANCH  25  29
ENDBRANCH  24  25
ENDBRANCH   1  24
TORSDOF 9
ENDMDL
MODEL 6
REMARK VINA RESULT:      -8.4      1.947      3.736
REMARK  Name = 
REMARK  11 active torsions:
REMARK  status: ('A' for Active; 'I' for Inactive)
REMARK    1  A    between atoms: C_1  and  C_2
REMARK    2  A    between atoms: C_4  and  C_5
REMARK    3  A    between atoms: C_5  and  O_6
REMARK    4  A    between atoms: O_6  and  C_7
REMARK    5  A    between atoms: C_10  and  S_11
REMARK    6  A    between atoms: S_11  and  C_14
REMARK    7  A    between atoms: C_14  and  C_15
REMARK    8  A    between atoms: C_15  and  C_16
REMARK    9  A    between atoms: C_16  and  C_17
REMARK   10  A    between atoms: N_19  and  O_20
REMARK   11  A    between atoms: N_23  and  C_24
REMARK                            x       y       z     vdW  Elec       q    Type
REMARK                         _______ _______ _______ _____ _____    ______ ____
ROOT
ATOM      1  C   UNL     1       1.747   7.929  20.091  0.00  0.00    +0.000 A 
ATOM      2  C   UNL     1       1.691   6.665  20.682  0.00  0.00    +0.000 A 
ATOM      3  C   UNL     1       2.172   5.554  19.998  0.00  0.00    +0.000 A 
ATOM      4  C   UNL     1       2.662   5.704  18.699  0.00  0.00    +0.000 A 
ATOM      5  C   UNL     1       2.689   6.955  18.081  0.00  0.00    +0.000 A 
ATOM      6  C   UNL     1       2.224   8.070  18.784  0.00  0.00    +0.000 A 
ENDROOT
BRANCH   4   7
ATOM      7  S   UNL     1       3.245   4.252  17.854  0.00  0.00    +0.000 S 
ATOM      8  O   UNL     1       4.072   3.503  18.780  0.00  0.00    +0.000 OA
ATOM      9  O   UNL     1       2.077   3.649  17.242  0.00  0.00    +0.000 OA
BRANCH   7  10
ATOM     10  C   UNL     1       4.303   4.934  16.589  0.00  0.00    +0.000 C 
BRANCH  10  11
ATOM     11  C   UNL     1       5.800   5.046  16.934  0.00  0.00    +0.000 C 
ATOM     12  C   UNL     1       6.092   4.821  18.439  0.00  0.00    +0.000 C 
ATOM     13  C   UNL     1       7.051   5.938  18.858  0.00  0.00    +0.000 C 
ATOM     14  N   UNL     1       7.408   6.617  17.611  0.00  0.00    +0.000 NA
ATOM     15  C   UNL     1       7.814   7.999  17.837  0.00  0.00    +0.000 C 
ATOM     16  C   UNL     1       6.225   6.518  16.760  0.00  0.00    +0.000 C 
BRANCH  11  17
ATOM     17  C   UNL     1       6.710   4.082  16.121  0.00  0.00    +0.000 C 
BRANCH  17  18
ATOM     18  C   UNL     1       6.923   4.418  14.656  0.00  0.00    +0.000 C 
ATOM     19  O   UNL     1       7.607   5.351  14.241  0.00  0.00    +0.000 OA
ATOM     20  N   UNL     1       6.262   3.560  13.811  0.00  0.00    +0.000 N 
ATOM     21  H   UNL     1       5.809   2.702  14.106  0.00  0.00    +0.000 HD
BRANCH  20  22
ATOM     22  O   UNL     1       6.444   3.753  12.426  0.00  0.00    +0.000 OA
ATOM     23  H   UNL     1       5.975   4.599  12.269  0.00  0.00    +0.000 HD
ENDBRANCH  20  22
ENDBRANCH  17  18
ENDBRANCH  11  17
ENDBRANCH  10  11
ENDBRANCH   7  10
ENDBRANCH   4   7
BRANCH   1  24
ATOM     24  O   UNL     1       1.360   9.082  20.718  0.00  0.00    +0.000 OA
BRANCH  24  25
ATOM     25  C   UNL     1      -0.061   9.263  20.799  0.00  0.00    +0.000 C 
BRANCH  25  29
ATOM     26  C   UNL     1      -2.388  10.482  16.514  0.00  0.00    +0.000 C 
ATOM     27  C   UNL     1      -1.676  10.877  17.771  0.00  0.00    +0.000 A 
ATOM     28  C   UNL     1      -1.249   9.911  18.668  0.00  0.00    +0.000 A 
ATOM     29  C   UNL     1      -0.566  10.302  19.823  0.00  0.00    +0.000 A 
ATOM     30  C   UNL     1      -0.337  11.683  20.051  0.00  0.00    +0.000 A 
ATOM     31  C   UNL     1       0.347  12.199  21.182  0.00  0.00    +0.000 A 
ATOM     32  C   UNL     1       0.550  13.568  21.345  0.00  0.00    +0.000 A 
ATOM     33  C   UNL     1       0.073  14.447  20.385  0.00  0.00    +0.000 A 
ATOM     34  C   UNL     1      -0.601  13.948  19.268  0.00  0.00    +0.000 A 
ATOM     35  C   UNL     1      -0.817  12.589  19.077  0.00  0.00    +0.000 A 
ATOM     36  N   UNL     1      -1.468  12.198  17.968  0.00  0.00    +0.000 NA
ENDBRANCH  25  29
ENDBRANCH  24  25
ENDBRANCH   1  24
TORSDOF 9
ENDMDL
MODEL 7
REMARK VINA RESULT:      -8.3      2.724      3.928
REMARK  Name = 
REMARK  11 active torsions:
REMARK  status: ('A' for Active; 'I' for Inactive)
REMARK    1  A    between atoms: C_1  and  C_2
REMARK    2  A    between atoms: C_4  and  C_5
REMARK    3  A    between atoms: C_5  and  O_6
REMARK    4  A    between atoms: O_6  and  C_7
REMARK    5  A    between atoms: C_10  and  S_11
REMARK    6  A    between atoms: S_11  and  C_14
REMARK    7  A    between atoms: C_14  and  C_15
REMARK    8  A    between atoms: C_15  and  C_16
REMARK    9  A    between atoms: C_16  and  C_17
REMARK   10  A    between atoms: N_19  and  O_20
REMARK   11  A    between atoms: N_23  and  C_24
REMARK                            x       y       z     vdW  Elec       q    Type
REMARK                         _______ _______ _______ _____ _____    ______ ____
ROOT
ATOM      1  C   UNL     1       1.825   7.785  20.041  0.00  0.00    +0.000 A 
ATOM      2  C   UNL     1       2.339   7.914  18.749  0.00  0.00    +0.000 A 
ATOM      3  C   UNL     1       2.788   6.791  18.062  0.00  0.00    +0.000 A 
ATOM      4  C   UNL     1       2.770   5.545  18.692  0.00  0.00    +0.000 A 
ATOM      5  C   UNL     1       2.294   5.406  19.997  0.00  0.00    +0.000 A 
ATOM      6  C   UNL     1       1.824   6.536  20.671  0.00  0.00    +0.000 A 
ENDROOT
BRANCH   4   7
ATOM      7  S   UNL     1       3.376   4.142  17.784  0.00  0.00    +0.000 S 
ATOM      8  O   UNL     1       4.230   3.375  18.671  0.00  0.00    +0.000 OA
ATOM      9  O   UNL     1       2.215   3.538  17.160  0.00  0.00    +0.000 OA
BRANCH   7  10
ATOM     10  C   UNL     1       4.405   4.897  16.537  0.00  0.00    +0.000 C 
BRANCH  10  11
ATOM     11  C   UNL     1       5.897   5.057  16.883  0.00  0.00    +0.000 C 
ATOM     12  C   UNL     1       6.195   4.835  18.388  0.00  0.00    +0.000 C 
ATOM     13  C   UNL     1       7.116   5.982  18.813  0.00  0.00    +0.000 C 
ATOM     14  N   UNL     1       7.451   6.678  17.570  0.00  0.00    +0.000 NA
ATOM     15  C   UNL     1       7.811   8.073  17.802  0.00  0.00    +0.000 C 
ATOM     16  C   UNL     1       6.273   6.544  16.717  0.00  0.00    +0.000 C 
BRANCH  11  17
ATOM     17  C   UNL     1       6.840   4.128  16.068  0.00  0.00    +0.000 C 
BRANCH  17  18
ATOM     18  C   UNL     1       6.989   4.437  14.589  0.00  0.00    +0.000 C 
ATOM     19  O   UNL     1       7.646   5.368  14.127  0.00  0.00    +0.000 OA
ATOM     20  N   UNL     1       6.302   3.556  13.789  0.00  0.00    +0.000 N 
ATOM     21  H   UNL     1       5.871   2.700  14.119  0.00  0.00    +0.000 HD
BRANCH  20  22
ATOM     22  O   UNL     1       6.425   3.723  12.394  0.00  0.00    +0.000 OA
ATOM     23  H   UNL     1       7.381   3.914  12.289  0.00  0.00    +0.000 HD
ENDBRANCH  20  22
ENDBRANCH  17  18
ENDBRANCH  11  17
ENDBRANCH  10  11
ENDBRANCH   7  10
ENDBRANCH   4   7
BRANCH   1  24
ATOM     24  O   UNL     1       1.300   8.823  20.760  0.00  0.00    +0.000 OA
BRANCH  24  25
ATOM     25  C   UNL     1       0.352   9.623  20.039  0.00  0.00    +0.000 C 
BRANCH  25  29
ATOM     26  C   UNL     1      -1.303  13.143  23.222  0.00  0.00    +0.000 C 
ATOM     27  C   UNL     1      -0.475  12.735  22.043  0.00  0.00    +0.000 A 
ATOM     28  C   UNL     1      -0.438  11.410  21.637  0.00  0.00    +0.000 A 
ATOM     29  C   UNL     1       0.324  11.056  20.520  0.00  0.00    +0.000 A 
ATOM     30  C   UNL     1       1.049  12.065  19.836  0.00  0.00    +0.000 A 
ATOM     31  C   UNL     1       1.851  11.829  18.689  0.00  0.00    +0.000 A 
ATOM     32  C   UNL     1       2.532  12.865  18.054  0.00  0.00    +0.000 A 
ATOM     33  C   UNL     1       2.428  14.155  18.551  0.00  0.00    +0.000 A 
ATOM     34  C   UNL     1       1.640  14.397  19.679  0.00  0.00    +0.000 A 
ATOM     35  C   UNL     1       0.948  13.386  20.333  0.00  0.00    +0.000 A 
ATOM     36  N   UNL     1       0.208  13.712  21.406  0.00  0.00    +0.000 NA
ENDBRANCH  25  29
ENDBRANCH  24  25
ENDBRANCH   1  24
TORSDOF 9
ENDMDL
MODEL 8
REMARK VINA RESULT:      -8.3      1.985      3.324
REMARK  Name = 
REMARK  11 active torsions:
REMARK  status: ('A' for Active; 'I' for Inactive)
REMARK    1  A    between atoms: C_1  and  C_2
REMARK    2  A    between atoms: C_4  and  C_5
REMARK    3  A    between atoms: C_5  and  O_6
REMARK    4  A    between atoms: O_6  and  C_7
REMARK    5  A    between atoms: C_10  and  S_11
REMARK    6  A    between atoms: S_11  and  C_14
REMARK    7  A    between atoms: C_14  and  C_15
REMARK    8  A    between atoms: C_15  and  C_16
REMARK    9  A    between atoms: C_16  and  C_17
REMARK   10  A    between atoms: N_19  and  O_20
REMARK   11  A    between atoms: N_23  and  C_24
REMARK                            x       y       z     vdW  Elec       q    Type
REMARK                         _______ _______ _______ _____ _____    ______ ____
ROOT
ATOM      1  C   UNL     1       1.238  10.146  19.036  0.00  0.00    +0.000 A 
ATOM      2  C   UNL     1       1.044   9.422  20.214  0.00  0.00    +0.000 A 
ATOM      3  C   UNL     1       1.455   8.096  20.293  0.00  0.00    +0.000 A 
ATOM      4  C   UNL     1       2.013   7.480  19.172  0.00  0.00    +0.000 A 
ATOM      5  C   UNL     1       2.179   8.180  17.975  0.00  0.00    +0.000 A 
ATOM      6  C   UNL     1       1.784   9.519  17.912  0.00  0.00    +0.000 A 
ENDROOT
BRANCH   4   7
ATOM      7  S   UNL     1       2.502   5.776  19.311  0.00  0.00    +0.000 S 
ATOM      8  O   UNL     1       2.099   5.305  20.623  0.00  0.00    +0.000 OA
ATOM      9  O   UNL     1       2.027   5.124  18.107  0.00  0.00    +0.000 OA
BRANCH   7  10
ATOM     10  C   UNL     1       4.284   5.877  19.279  0.00  0.00    +0.000 C 
BRANCH  10  11
ATOM     11  C   UNL     1       5.024   4.712  18.596  0.00  0.00    +0.000 C 
ATOM     12  C   UNL     1       6.550   4.953  18.477  0.00  0.00    +0.000 C 
ATOM     13  C   UNL     1       6.931   4.571  17.044  0.00  0.00    +0.000 C 
ATOM     14  N   UNL     1       5.718   3.978  16.477  0.00  0.00    +0.000 NA
ATOM     15  C   UNL     1       5.684   4.087  15.022  0.00  0.00    +0.000 C 
ATOM     16  C   UNL     1       4.606   4.679  17.112  0.00  0.00    +0.000 C 
BRANCH  11  17
ATOM     17  C   UNL     1       4.811   3.335  19.286  0.00  0.00    +0.000 C 
BRANCH  17  18
ATOM     18  C   UNL     1       3.727   2.443  18.708  0.00  0.00    +0.000 C 
ATOM     19  O   UNL     1       3.853   1.742  17.707  0.00  0.00    +0.000 OA
ATOM     20  N   UNL     1       2.558   2.492  19.428  0.00  0.00    +0.000 N 
ATOM     21  H   UNL     1       2.460   2.941  20.331  0.00  0.00    +0.000 HD
BRANCH  20  22
ATOM     22  O   UNL     1       1.506   1.652  19.005  0.00  0.00    +0.000 OA
ATOM     23  H   UNL     1       0.959   1.577  19.815  0.00  0.00    +0.000 HD
ENDBRANCH  20  22
ENDBRANCH  17  18
ENDBRANCH  11  17
ENDBRANCH  10  11
ENDBRANCH   7  10
ENDBRANCH   4   7
BRANCH   1  24
ATOM     24  O   UNL     1       0.928  11.471  18.895  0.00  0.00    +0.000 OA
BRANCH  24  25
ATOM     25  C   UNL     1      -0.161  11.915  19.717  0.00  0.00    +0.000 C 
BRANCH  25  29
ATOM     26  C   UNL     1      -2.890  10.824  15.640  0.00  0.00    +0.000 C 
ATOM     27  C   UNL     1      -2.796  11.265  17.068  0.00  0.00    +0.000 A 
ATOM     28  C   UNL     1      -1.563  11.348  17.696  0.00  0.00    +0.000 A 
ATOM     29  C   UNL     1      -1.497  11.784  19.022  0.00  0.00    +0.000 A 
ATOM     30  C   UNL     1      -2.700  12.120  19.694  0.00  0.00    +0.000 A 
ATOM     31  C   UNL     1      -2.759  12.578  21.036  0.00  0.00    +0.000 A 
ATOM     32  C   UNL     1      -3.973  12.904  21.639  0.00  0.00    +0.000 A 
ATOM     33  C   UNL     1      -5.149  12.777  20.916  0.00  0.00    +0.000 A 
ATOM     34  C   UNL     1      -5.100  12.327  19.595  0.00  0.00    +0.000 A 
ATOM     35  C   UNL     1      -3.907  11.997  18.966  0.00  0.00    +0.000 A 
ATOM     36  N   UNL     1      -3.953  11.581  17.689  0.00  0.00    +0.000 NA
ENDBRANCH  25  29
ENDBRANCH  24  25
ENDBRANCH   1  24
TORSDOF 9
ENDMDL
MODEL 9
REMARK VINA RESULT:      -8.2      1.674      2.631
REMARK  Name = 
REMARK  11 active torsions:
REMARK  status: ('A' for Active; 'I' for Inactive)
REMARK    1  A    between atoms: C_1  and  C_2
REMARK    2  A    between atoms: C_4  and  C_5
REMARK    3  A    between atoms: C_5  and  O_6
REMARK    4  A    between atoms: O_6  and  C_7
REMARK    5  A    between atoms: C_10  and  S_11
REMARK    6  A    between atoms: S_11  and  C_14
REMARK    7  A    between atoms: C_14  and  C_15
REMARK    8  A    between atoms: C_15  and  C_16
REMARK    9  A    between atoms: C_16  and  C_17
REMARK   10  A    between atoms: N_19  and  O_20
REMARK   11  A    between atoms: N_23  and  C_24
REMARK                            x       y       z     vdW  Elec       q    Type
REMARK                         _______ _______ _______ _____ _____    ______ ____
ROOT
ATOM      1  C   UNL     1       0.985   9.763  20.017  0.00  0.00    +0.000 A 
ATOM      2  C   UNL     1       1.527   9.393  18.784  0.00  0.00    +0.000 A 
ATOM      3  C   UNL     1       2.045   8.115  18.605  0.00  0.00    +0.000 A 
ATOM      4  C   UNL     1       2.067   7.224  19.680  0.00  0.00    +0.000 A 
ATOM      5  C   UNL     1       1.563   7.592  20.929  0.00  0.00    +0.000 A 
ATOM      6  C   UNL     1       1.024   8.870  21.093  0.00  0.00    +0.000 A 
ENDROOT
BRANCH   4   7
ATOM      7  S   UNL     1       2.761   5.609  19.412  0.00  0.00    +0.000 S 
ATOM      8  O   UNL     1       3.848   5.431  20.355  0.00  0.00    +0.000 OA
ATOM      9  O   UNL     1       1.638   4.691  19.387  0.00  0.00    +0.000 OA
BRANCH   7  10
ATOM     10  C   UNL     1       3.460   5.750  17.776  0.00  0.00    +0.000 C 
BRANCH  10  11
ATOM     11  C   UNL     1       4.638   4.814  17.451  0.00  0.00    +0.000 C 
ATOM     12  C   UNL     1       5.971   5.273  18.096  0.00  0.00    +0.000 C 
ATOM     13  C   UNL     1       7.033   5.171  16.998  0.00  0.00    +0.000 C 
ATOM     14  N   UNL     1       6.356   4.515  15.878  0.00  0.00    +0.000 NA
ATOM     15  C   UNL     1       6.974   4.841  14.598  0.00  0.00    +0.000 C 
ATOM     16  C   UNL     1       4.965   4.955  15.950  0.00  0.00    +0.000 C 
BRANCH  11  17
ATOM     17  C   UNL     1       4.399   3.331  17.853  0.00  0.00    +0.000 C 
BRANCH  17  18
ATOM     18  C   UNL     1       2.999   2.784  17.641  0.00  0.00    +0.000 C 
ATOM     19  O   UNL     1       2.337   2.923  16.615  0.00  0.00    +0.000 OA
ATOM     20  N   UNL     1       2.524   2.100  18.734  0.00  0.00    +0.000 N 
ATOM     21  H   UNL     1       3.087   1.842  19.537  0.00  0.00    +0.000 HD
BRANCH  20  22
ATOM     22  O   UNL     1       1.253   1.502  18.615  0.00  0.00    +0.000 OA
ATOM     23  H   UNL     1       1.460   0.654  18.168  0.00  0.00    +0.000 HD
ENDBRANCH  20  22
ENDBRANCH  17  18
ENDBRANCH  11  17
ENDBRANCH  10  11
ENDBRANCH   7  10
ENDBRANCH   4   7
BRANCH   1  24
ATOM     24  O   UNL     1       0.394  10.972  20.258  0.00  0.00    +0.000 OA
BRANCH  24  25
ATOM     25  C   UNL     1      -0.068  11.651  19.081  0.00  0.00    +0.000 C 
BRANCH  25  29
ATOM     26  C   UNL     1      -4.261  13.305  21.304  0.00  0.00    +0.000 C 
ATOM     27  C   UNL     1      -3.568  12.642  20.154  0.00  0.00    +0.000 A 
ATOM     28  C   UNL     1      -2.190  12.494  20.157  0.00  0.00    +0.000 A 
ATOM     29  C   UNL     1      -1.566  11.852  19.084  0.00  0.00    +0.000 A 
ATOM     30  C   UNL     1      -2.364  11.377  18.012  0.00  0.00    +0.000 A 
ATOM     31  C   UNL     1      -1.846  10.707  16.873  0.00  0.00    +0.000 A 
ATOM     32  C   UNL     1      -2.684  10.253  15.855  0.00  0.00    +0.000 A 
ATOM     33  C   UNL     1      -4.051  10.460  15.954  0.00  0.00    +0.000 A 
ATOM     34  C   UNL     1      -4.569  11.119  17.071  0.00  0.00    +0.000 A 
ATOM     35  C   UNL     1      -3.761  11.581  18.102  0.00  0.00    +0.000 A 
ATOM     36  N   UNL     1      -4.346  12.196  19.143  0.00  0.00    +0.000 NA
ENDBRANCH  25  29
ENDBRANCH  24  25
ENDBRANCH   1  24
TORSDOF 9
ENDMDL
