MODEL 1
REMARK VINA RESULT:      -7.0      0.000      0.000
REMARK  Name = 
REMARK  2 active torsions:
REMARK  status: ('A' for Active; 'I' for Inactive)
REMARK    1  A    between atoms: C_1  and  C_2
REMARK    2  A    between atoms: N_11  and  N_12
REMARK                            x       y       z     vdW  Elec       q    Type
REMARK                         _______ _______ _______ _____ _____    ______ ____
ROOT
ATOM      1  C   UNL     1       7.464   7.673  17.149  0.00  0.00    +0.000 C 
ATOM      2  C   UNL     1       6.422   6.588  17.323  0.00  0.00    +0.000 A 
ATOM      3  N   UNL     1       5.450   6.841  18.158  0.00  0.00    +0.000 NA
ATOM      4  C   UNL     1       4.549   5.822  18.273  0.00  0.00    +0.000 A 
ATOM      5  S   UNL     1       3.193   6.022  19.291  0.00  0.00    +0.000 S 
ATOM      6  C   UNL     1       2.608   4.474  18.924  0.00  0.00    +0.000 A 
ATOM      7  C   UNL     1       3.434   3.768  18.064  0.00  0.00    +0.000 A 
ATOM      8  C   UNL     1       4.556   4.579  17.644  0.00  0.00    +0.000 A 
ATOM      9  C   UNL     1       5.652   4.312  16.704  0.00  0.00    +0.000 A 
ATOM     10  N   UNL     1       5.762   3.212  16.021  0.00  0.00    +0.000 NA
ATOM     11  N   UNL     1       6.539   5.383  16.629  0.00  0.00    +0.000 N 
ATOM     12  C   UNL     1       3.085   2.364  17.653  0.00  0.00    +0.000 C 
ATOM     13  C   UNL     1       1.989   1.742  18.532  0.00  0.00    +0.000 C 
ATOM     14  C   UNL     1       0.841   2.725  18.777  0.00  0.00    +0.000 C 
ATOM     15  C   UNL     1       1.336   3.965  19.532  0.00  0.00    +0.000 C 
ATOM     16  H   UNL     1       4.981   2.591  16.206  0.00  0.00    +0.000 HD
ENDROOT
BRANCH  11  17
ATOM     17  N   UNL     1       7.526   5.287  15.591  0.00  0.00    +0.000 N 
ATOM     18  H   UNL     1       7.918   4.337  15.655  0.00  0.00    +0.000 HD
ATOM     19  H   UNL     1       8.305   5.909  15.804  0.00  0.00    +0.000 HD
ENDBRANCH  11  17
TORSDOF 1
ENDMDL
MODEL 2
REMARK VINA RESULT:      -7.0      1.988      3.002
REMARK  Name = 
REMARK  2 active torsions:
REMARK  status: ('A' for Active; 'I' for Inactive)
REMARK    1  A    between atoms: C_1  and  C_2
REMARK    2  A    between atoms: N_11  and  N_12
REMARK                            x       y       z     vdW  Elec       q    Type
REMARK                         _______ _______ _______ _____ _____    ______ ____
ROOT
ATOM      1  C   UNL     1       6.432   4.439  14.559  0.00  0.00    +0.000 C 
ATOM      2  C   UNL     1       5.469   4.477  15.727  0.00  0.00    +0.000 A 
ATOM      3  N   UNL     1       5.073   3.323  16.195  0.00  0.00    +0.000 NA
ATOM      4  C   UNL     1       4.204   3.426  17.241  0.00  0.00    +0.000 A 
ATOM      5  S   UNL     1       3.635   2.002  17.993  0.00  0.00    +0.000 S 
ATOM      6  C   UNL     1       2.697   2.883  19.097  0.00  0.00    +0.000 A 
ATOM      7  C   UNL     1       2.764   4.253  18.900  0.00  0.00    +0.000 A 
ATOM      8  C   UNL     1       3.688   4.577  17.834  0.00  0.00    +0.000 A 
ATOM      9  C   UNL     1       4.147   5.866  17.301  0.00  0.00    +0.000 A 
ATOM     10  N   UNL     1       3.778   7.015  17.782  0.00  0.00    +0.000 NA
ATOM     11  N   UNL     1       5.029   5.699  16.237  0.00  0.00    +0.000 N 
ATOM     12  C   UNL     1       1.972   5.189  19.771  0.00  0.00    +0.000 C 
ATOM     13  C   UNL     1       0.889   4.468  20.587  0.00  0.00    +0.000 C 
ATOM     14  C   UNL     1       1.424   3.179  21.218  0.00  0.00    +0.000 C 
ATOM     15  C   UNL     1       1.871   2.187  20.137  0.00  0.00    +0.000 C 
ATOM     16  H   UNL     1       3.163   6.893  18.581  0.00  0.00    +0.000 HD
ENDROOT
BRANCH  11  17
ATOM     17  N   UNL     1       5.676   6.898  15.786  0.00  0.00    +0.000 N 
ATOM     18  H   UNL     1       6.539   6.598  15.311  0.00  0.00    +0.000 HD
ATOM     19  H   UNL     1       5.991   7.437  16.592  0.00  0.00    +0.000 HD
ENDBRANCH  11  17
TORSDOF 1
ENDMDL
MODEL 3
REMARK VINA RESULT:      -6.8      1.915      2.721
REMARK  Name = 
REMARK  2 active torsions:
REMARK  status: ('A' for Active; 'I' for Inactive)
REMARK    1  A    between atoms: C_1  and  C_2
REMARK    2  A    between atoms: N_11  and  N_12
REMARK                            x       y       z     vdW  Elec       q    Type
REMARK                         _______ _______ _______ _____ _____    ______ ____
ROOT
ATOM      1  C   UNL     1       6.823   4.519  14.875  0.00  0.00    +0.000 C 
ATOM      2  C   UNL     1       5.965   4.370  16.114  0.00  0.00    +0.000 A 
ATOM      3  N   UNL     1       4.767   3.879  15.938  0.00  0.00    +0.000 NA
ATOM      4  C   UNL     1       4.044   3.776  17.091  0.00  0.00    +0.000 A 
ATOM      5  S   UNL     1       2.475   3.105  17.031  0.00  0.00    +0.000 S 
ATOM      6  C   UNL     1       2.259   3.298  18.701  0.00  0.00    +0.000 A 
ATOM      7  C   UNL     1       3.339   3.900  19.326  0.00  0.00    +0.000 A 
ATOM      8  C   UNL     1       4.412   4.142  18.384  0.00  0.00    +0.000 A 
ATOM      9  C   UNL     1       5.763   4.687  18.566  0.00  0.00    +0.000 A 
ATOM     10  N   UNL     1       6.249   5.032  19.720  0.00  0.00    +0.000 NA
ATOM     11  N   UNL     1       6.452   4.770  17.359  0.00  0.00    +0.000 N 
ATOM     12  C   UNL     1       3.309   4.176  20.804  0.00  0.00    +0.000 C 
ATOM     13  C   UNL     1       1.900   4.056  21.403  0.00  0.00    +0.000 C 
ATOM     14  C   UNL     1       1.176   2.808  20.891  0.00  0.00    +0.000 C 
ATOM     15  C   UNL     1       0.986   2.872  19.370  0.00  0.00    +0.000 C 
ATOM     16  H   UNL     1       5.584   4.847  20.464  0.00  0.00    +0.000 HD
ENDROOT
BRANCH  11  17
ATOM     17  N   UNL     1       7.843   5.105  17.472  0.00  0.00    +0.000 N 
ATOM     18  H   UNL     1       8.018   5.841  16.773  0.00  0.00    +0.000 HD
ATOM     19  H   UNL     1       8.408   4.313  17.169  0.00  0.00    +0.000 HD
ENDBRANCH  11  17
TORSDOF 1
ENDMDL
MODEL 4
REMARK VINA RESULT:      -6.5      2.747      5.171
REMARK  Name = 
REMARK  2 active torsions:
REMARK  status: ('A' for Active; 'I' for Inactive)
REMARK    1  A    between atoms: C_1  and  C_2
REMARK    2  A    between atoms: N_11  and  N_12
REMARK                            x       y       z     vdW  Elec       q    Type
REMARK                         _______ _______ _______ _____ _____    ______ ____
ROOT
ATOM      1  C   UNL     1       1.741   2.906  21.529  0.00  0.00    +0.000 C 
ATOM      2  C   UNL     1       2.532   3.220  20.277  0.00  0.00    +0.000 A 
ATOM      3  N   UNL     1       3.593   3.968  20.430  0.00  0.00    +0.000 NA
ATOM      4  C   UNL     1       4.258   4.218  19.265  0.00  0.00    +0.000 A 
ATOM      5  S   UNL     1       5.693   5.142  19.309  0.00  0.00    +0.000 S 
ATOM      6  C   UNL     1       5.902   5.016  17.632  0.00  0.00    +0.000 A 
ATOM      7  C   UNL     1       4.884   4.313  17.006  0.00  0.00    +0.000 A 
ATOM      8  C   UNL     1       3.937   3.804  17.974  0.00  0.00    +0.000 A 
ATOM      9  C   UNL     1       2.746   2.959  17.820  0.00  0.00    +0.000 A 
ATOM     10  N   UNL     1       2.354   2.471  16.681  0.00  0.00    +0.000 NA
ATOM     11  N   UNL     1       2.109   2.739  19.038  0.00  0.00    +0.000 N 
ATOM     12  C   UNL     1       4.892   4.128  15.513  0.00  0.00    +0.000 C 
ATOM     13  C   UNL     1       5.887   5.058  14.803  0.00  0.00    +0.000 C 
ATOM     14  C   UNL     1       7.234   5.098  15.529  0.00  0.00    +0.000 C 
ATOM     15  C   UNL     1       7.074   5.655  16.949  0.00  0.00    +0.000 C 
ATOM     16  H   UNL     1       2.993   2.729  15.937  0.00  0.00    +0.000 HD
ENDROOT
BRANCH  11  17
ATOM     17  N   UNL     1       1.054   1.767  19.008  0.00  0.00    +0.000 N 
ATOM     18  H   UNL     1       0.208   2.250  19.342  0.00  0.00    +0.000 HD
ATOM     19  H   UNL     1       1.238   1.045  19.704  0.00  0.00    +0.000 HD
ENDBRANCH  11  17
TORSDOF 1
ENDMDL
MODEL 5
REMARK VINA RESULT:      -6.3      1.574      2.915
REMARK  Name = 
REMARK  2 active torsions:
REMARK  status: ('A' for Active; 'I' for Inactive)
REMARK    1  A    between atoms: C_1  and  C_2
REMARK    2  A    between atoms: N_11  and  N_12
REMARK                            x       y       z     vdW  Elec       q    Type
REMARK                         _______ _______ _______ _____ _____    ______ ____
ROOT
ATOM      1  C   UNL     1       6.740   4.233  14.216  0.00  0.00    +0.000 C 
ATOM      2  C   UNL     1       5.882   4.488  15.436  0.00  0.00    +0.000 A 
ATOM      3  N   UNL     1       4.880   3.671  15.627  0.00  0.00    +0.000 NA
ATOM      4  C   UNL     1       4.144   3.958  16.739  0.00  0.00    +0.000 A 
ATOM      5  S   UNL     1       2.829   2.949  17.149  0.00  0.00    +0.000 S 
ATOM      6  C   UNL     1       2.465   3.873  18.523  0.00  0.00    +0.000 A 
ATOM      7  C   UNL     1       3.296   4.971  18.678  0.00  0.00    +0.000 A 
ATOM      8  C   UNL     1       4.315   4.997  17.652  0.00  0.00    +0.000 A 
ATOM      9  C   UNL     1       5.449   5.903  17.428  0.00  0.00    +0.000 A 
ATOM     10  N   UNL     1       5.748   6.889  18.219  0.00  0.00    +0.000 NA
ATOM     11  N   UNL     1       6.161   5.564  16.280  0.00  0.00    +0.000 N 
ATOM     12  C   UNL     1       3.099   5.920  19.829  0.00  0.00    +0.000 C 
ATOM     13  C   UNL     1       1.744   5.734  20.528  0.00  0.00    +0.000 C 
ATOM     14  C   UNL     1       1.427   4.253  20.756  0.00  0.00    +0.000 C 
ATOM     15  C   UNL     1       1.321   3.506  19.420  0.00  0.00    +0.000 C 
ATOM     16  H   UNL     1       5.116   6.922  19.012  0.00  0.00    +0.000 HD
ENDROOT
BRANCH  11  17
ATOM     17  N   UNL     1       7.395   6.273  16.096  0.00  0.00    +0.000 N 
ATOM     18  H   UNL     1       7.800   6.394  17.035  0.00  0.00    +0.000 HD
ATOM     19  H   UNL     1       7.198   7.218  15.768  0.00  0.00    +0.000 HD
ENDBRANCH  11  17
TORSDOF 1
ENDMDL
MODEL 6
REMARK VINA RESULT:      -6.2      2.567      4.996
REMARK  Name = 
REMARK  2 active torsions:
REMARK  status: ('A' for Active; 'I' for Inactive)
REMARK    1  A    between atoms: C_1  and  C_2
REMARK    2  A    between atoms: N_11  and  N_12
REMARK                            x       y       z     vdW  Elec       q    Type
REMARK                         _______ _______ _______ _____ _____    ______ ____
ROOT
ATOM      1  C   UNL     1       0.867   4.353  20.552  0.00  0.00    +0.000 C 
ATOM      2  C   UNL     1       1.938   4.245  19.487  0.00  0.00    +0.000 A 
ATOM      3  N   UNL     1       2.385   5.369  18.993  0.00  0.00    +0.000 NA
ATOM      4  C   UNL     1       3.344   5.203  18.036  0.00  0.00    +0.000 A 
ATOM      5  S   UNL     1       4.061   6.582  17.330  0.00  0.00    +0.000 S 
ATOM      6  C   UNL     1       5.059   5.635  16.339  0.00  0.00    +0.000 A 
ATOM      7  C   UNL     1       4.847   4.274  16.492  0.00  0.00    +0.000 A 
ATOM      8  C   UNL     1       3.868   4.017  17.526  0.00  0.00    +0.000 A 
ATOM      9  C   UNL     1       3.360   2.762  18.096  0.00  0.00    +0.000 A 
ATOM     10  N   UNL     1       3.787   1.588  17.741  0.00  0.00    +0.000 NA
ATOM     11  N   UNL     1       2.385   2.993  19.063  0.00  0.00    +0.000 N 
ATOM     12  C   UNL     1       5.626   3.284  15.671  0.00  0.00    +0.000 C 
ATOM     13  C   UNL     1       6.348   3.935  14.481  0.00  0.00    +0.000 C 
ATOM     14  C   UNL     1       7.046   5.235  14.891  0.00  0.00    +0.000 C 
ATOM     15  C   UNL     1       6.027   6.269  15.386  0.00  0.00    +0.000 C 
ATOM     16  H   UNL     1       4.526   1.663  17.051  0.00  0.00    +0.000 HD
ENDROOT
BRANCH  11  17
ATOM     17  N   UNL     1       1.979   1.836  19.808  0.00  0.00    +0.000 N 
ATOM     18  H   UNL     1       2.554   1.828  20.663  0.00  0.00    +0.000 HD
ATOM     19  H   UNL     1       2.247   0.993  19.301  0.00  0.00    +0.000 HD
ENDBRANCH  11  17
TORSDOF 1
ENDMDL
MODEL 7
REMARK VINA RESULT:      -6.1      3.604      5.505
REMARK  Name = 
REMARK  2 active torsions:
REMARK  status: ('A' for Active; 'I' for Inactive)
REMARK    1  A    between atoms: C_1  and  C_2
REMARK    2  A    between atoms: N_11  and  N_12
REMARK                            x       y       z     vdW  Elec       q    Type
REMARK                         _______ _______ _______ _____ _____    ______ ____
ROOT
ATOM      1  C   UNL     1       0.169   8.529  21.700  0.00  0.00    +0.000 C 
ATOM      2  C   UNL     1       1.092   8.045  20.602  0.00  0.00    +0.000 A 
ATOM      3  N   UNL     1       1.621   6.861  20.764  0.00  0.00    +0.000 NA
ATOM      4  C   UNL     1       2.445   6.486  19.744  0.00  0.00    +0.000 A 
ATOM      5  S   UNL     1       3.174   4.942  19.787  0.00  0.00    +0.000 S 
ATOM      6  C   UNL     1       3.965   5.202  18.311  0.00  0.00    +0.000 A 
ATOM      7  C   UNL     1       3.728   6.459  17.779  0.00  0.00    +0.000 A 
ATOM      8  C   UNL     1       2.796   7.201  18.600  0.00  0.00    +0.000 A 
ATOM      9  C   UNL     1       2.189   8.527  18.430  0.00  0.00    +0.000 A 
ATOM     10  N   UNL     1       2.397   9.285  17.395  0.00  0.00    +0.000 NA
ATOM     11  N   UNL     1       1.361   8.857  19.499  0.00  0.00    +0.000 N 
ATOM     12  C   UNL     1       4.374   6.874  16.485  0.00  0.00    +0.000 C 
ATOM     13  C   UNL     1       5.521   5.942  16.068  0.00  0.00    +0.000 C 
ATOM     14  C   UNL     1       5.139   4.469  16.241  0.00  0.00    +0.000 C 
ATOM     15  C   UNL     1       4.848   4.149  17.712  0.00  0.00    +0.000 C 
ATOM     16  H   UNL     1       3.003   8.824  16.724  0.00  0.00    +0.000 HD
ENDROOT
BRANCH  11  17
ATOM     17  N   UNL     1       0.577  10.045  19.321  0.00  0.00    +0.000 N 
ATOM     18  H   UNL     1       0.142   9.966  18.391  0.00  0.00    +0.000 HD
ATOM     19  H   UNL     1       1.194  10.853  19.257  0.00  0.00    +0.000 HD
ENDBRANCH  11  17
TORSDOF 1
ENDMDL
MODEL 8
REMARK VINA RESULT:      -6.1      3.891      5.233
REMARK  Name = 
REMARK  2 active torsions:
REMARK  status: ('A' for Active; 'I' for Inactive)
REMARK    1  A    between atoms: C_1  and  C_2
REMARK    2  A    between atoms: N_11  and  N_12
REMARK                            x       y       z     vdW  Elec       q    Type
REMARK                         _______ _______ _______ _____ _____    ______ ____
ROOT
ATOM      1  C   UNL     1       4.715   4.354  16.934  0.00  0.00    +0.000 C 
ATOM      2  C   UNL     1       3.886   5.233  17.846  0.00  0.00    +0.000 A 
ATOM      3  N   UNL     1       3.579   6.419  17.392  0.00  0.00    +0.000 NA
ATOM      4  C   UNL     1       2.836   7.162  18.263  0.00  0.00    +0.000 A 
ATOM      5  S   UNL     1       2.314   8.719  17.793  0.00  0.00    +0.000 S 
ATOM      6  C   UNL     1       1.522   8.969  19.270  0.00  0.00    +0.000 A 
ATOM      7  C   UNL     1       1.664   7.911  20.153  0.00  0.00    +0.000 A 
ATOM      8  C   UNL     1       2.401   6.825  19.543  0.00  0.00    +0.000 A 
ATOM      9  C   UNL     1       2.749   5.487  20.036  0.00  0.00    +0.000 A 
ATOM     10  N   UNL     1       2.376   5.028  21.193  0.00  0.00    +0.000 NA
ATOM     11  N   UNL     1       3.506   4.776  19.109  0.00  0.00    +0.000 N 
ATOM     12  C   UNL     1       1.049   7.974  21.524  0.00  0.00    +0.000 C 
ATOM     13  C   UNL     1       0.605   9.392  21.913  0.00  0.00    +0.000 C 
ATOM     14  C   UNL     1      -0.131  10.085  20.763  0.00  0.00    +0.000 C 
ATOM     15  C   UNL     1       0.788  10.248  19.545  0.00  0.00    +0.000 C 
ATOM     16  H   UNL     1       1.799   5.703  21.682  0.00  0.00    +0.000 HD
ENDROOT
BRANCH  11  17
ATOM     17  N   UNL     1       3.721   3.393  19.426  0.00  0.00    +0.000 N 
ATOM     18  H   UNL     1       3.254   3.230  20.329  0.00  0.00    +0.000 HD
ATOM     19  H   UNL     1       4.712   3.237  19.609  0.00  0.00    +0.000 HD
ENDBRANCH  11  17
TORSDOF 1
ENDMDL
MODEL 9
REMARK VINA RESULT:      -6.0      3.384      5.159
REMARK  Name = 
REMARK  2 active torsions:
REMARK  status: ('A' for Active; 'I' for Inactive)
REMARK    1  A    between atoms: C_1  and  C_2
REMARK    2  A    between atoms: N_11  and  N_12
REMARK                            x       y       z     vdW  Elec       q    Type
REMARK                         _______ _______ _______ _____ _____    ______ ____
ROOT
ATOM      1  C   UNL     1       0.178   9.355  21.642  0.00  0.00    +0.000 C 
ATOM      2  C   UNL     1       0.982   8.447  20.737  0.00  0.00    +0.000 A 
ATOM      3  N   UNL     1       1.203   7.235  21.173  0.00  0.00    +0.000 NA
ATOM      4  C   UNL     1       1.936   6.469  20.314  0.00  0.00    +0.000 A 
ATOM      5  S   UNL     1       2.266   4.844  20.722  0.00  0.00    +0.000 S 
ATOM      6  C   UNL     1       3.133   4.593  19.288  0.00  0.00    +0.000 A 
ATOM      7  C   UNL     1       3.223   5.727  18.498  0.00  0.00    +0.000 A 
ATOM      8  C   UNL     1       2.479   6.823  19.080  0.00  0.00    +0.000 A 
ATOM      9  C   UNL     1       2.218   8.186  18.601  0.00  0.00    +0.000 A 
ATOM     10  N   UNL     1       2.630   8.636  17.454  0.00  0.00    +0.000 NA
ATOM     11  N   UNL     1       1.468   8.920  19.517  0.00  0.00    +0.000 N 
ATOM     12  C   UNL     1       3.982   5.694  17.199  0.00  0.00    +0.000 C 
ATOM     13  C   UNL     1       4.878   4.454  17.066  0.00  0.00    +0.000 C 
ATOM     14  C   UNL     1       4.146   3.182  17.502  0.00  0.00    +0.000 C 
ATOM     15  C   UNL     1       3.749   3.260  18.981  0.00  0.00    +0.000 C 
ATOM     16  H   UNL     1       3.122   7.915  16.938  0.00  0.00    +0.000 HD
ENDROOT
BRANCH  11  17
ATOM     17  N   UNL     1       1.001  10.192  19.045  0.00  0.00    +0.000 N 
ATOM     18  H   UNL     1       0.285  10.503  19.717  0.00  0.00    +0.000 HD
ATOM     19  H   UNL     1       0.502  10.066  18.166  0.00  0.00    +0.000 HD
ENDBRANCH  11  17
TORSDOF 1
ENDMDL
