MODEL 1
REMARK VINA RESULT:      -7.3      0.000      0.000
REMARK  Name = 
REMARK  2 active torsions:
REMARK  status: ('A' for Active; 'I' for Inactive)
REMARK    1  A    between atoms: C_1  and  C_2
REMARK    2  A    between atoms: C_2  and  C_3
REMARK                            x       y       z     vdW  Elec       q    Type
REMARK                         _______ _______ _______ _____ _____    ______ ____
ROOT
ATOM      1  C   UNL     1       5.181   4.003  15.389  0.00  0.00    +0.000 C 
ATOM      2  C   UNL     1       5.577   4.856  16.596  0.00  0.00    +0.000 C 
ATOM      3  C   UNL     1       7.084   5.120  16.560  0.00  0.00    +0.000 C 
ATOM      4  O   UNL     1       5.279   4.108  17.795  0.00  0.00    +0.000 OA
ATOM      5  C   UNL     1       4.388   4.934  18.409  0.00  0.00    +0.000 A 
ATOM      6  C   UNL     1       3.776   4.677  19.609  0.00  0.00    +0.000 A 
ATOM      7  C   UNL     1       2.882   5.633  20.103  0.00  0.00    +0.000 A 
ATOM      8  C   UNL     1       2.592   6.848  19.412  0.00  0.00    +0.000 A 
ATOM      9  C   UNL     1       3.254   7.060  18.178  0.00  0.00    +0.000 A 
ATOM     10  C   UNL     1       2.976   8.244  17.498  0.00  0.00    +0.000 A 
ATOM     11  N   UNL     1       2.122   9.200  17.931  0.00  0.00    +0.000 NA
ATOM     12  C   UNL     1       1.491   9.007  19.101  0.00  0.00    +0.000 A 
ATOM     13  C   UNL     1       0.618   9.994  19.540  0.00  0.00    +0.000 A 
ATOM     14  C   UNL     1      -0.085   9.887  20.743  0.00  0.00    +0.000 A 
ATOM     15  C   UNL     1       0.088   8.763  21.533  0.00  0.00    +0.000 A 
ATOM     16  C   UNL     1       0.959   7.759  21.112  0.00  0.00    +0.000 A 
ATOM     17  C   UNL     1       1.682   7.852  19.890  0.00  0.00    +0.000 A 
ATOM     18  C   UNL     1       4.144   6.088  17.703  0.00  0.00    +0.000 A 
ATOM     19  O   UNL     1       4.867   6.122  16.541  0.00  0.00    +0.000 OA
ENDROOT
TORSDOF 0
ENDMDL
MODEL 2
REMARK VINA RESULT:      -7.3      2.464      6.354
REMARK  Name = 
REMARK  2 active torsions:
REMARK  status: ('A' for Active; 'I' for Inactive)
REMARK    1  A    between atoms: C_1  and  C_2
REMARK    2  A    between atoms: C_2  and  C_3
REMARK                            x       y       z     vdW  Elec       q    Type
REMARK                         _______ _______ _______ _____ _____    ______ ____
ROOT
ATOM      1  C   UNL     1      -0.766   8.213  21.422  0.00  0.00    +0.000 C 
ATOM      2  C   UNL     1       0.715   8.571  21.273  0.00  0.00    +0.000 C 
ATOM      3  C   UNL     1       1.186   9.321  22.520  0.00  0.00    +0.000 C 
ATOM      4  O   UNL     1       0.853   9.453  20.137  0.00  0.00    +0.000 OA
ATOM      5  C   UNL     1       1.684   8.731  19.339  0.00  0.00    +0.000 A 
ATOM      6  C   UNL     1       2.129   9.128  18.103  0.00  0.00    +0.000 A 
ATOM      7  C   UNL     1       2.983   8.264  17.408  0.00  0.00    +0.000 A 
ATOM      8  C   UNL     1       3.400   7.005  17.935  0.00  0.00    +0.000 A 
ATOM      9  C   UNL     1       2.910   6.647  19.214  0.00  0.00    +0.000 A 
ATOM     10  C   UNL     1       3.313   5.419  19.734  0.00  0.00    +0.000 A 
ATOM     11  N   UNL     1       4.137   4.548  19.106  0.00  0.00    +0.000 NA
ATOM     12  C   UNL     1       4.606   4.879  17.892  0.00  0.00    +0.000 A 
ATOM     13  C   UNL     1       5.452   3.982  17.254  0.00  0.00    +0.000 A 
ATOM     14  C   UNL     1       5.994   4.235  15.991  0.00  0.00    +0.000 A 
ATOM     15  C   UNL     1       5.684   5.420  15.345  0.00  0.00    +0.000 A 
ATOM     16  C   UNL     1       4.836   6.336  15.966  0.00  0.00    +0.000 A 
ATOM     17  C   UNL     1       4.276   6.094  17.251  0.00  0.00    +0.000 A 
ATOM     18  C   UNL     1       2.056   7.528  19.890  0.00  0.00    +0.000 A 
ATOM     19  O   UNL     1       1.489   7.352  21.124  0.00  0.00    +0.000 OA
ENDROOT
TORSDOF 0
ENDMDL
MODEL 3
REMARK VINA RESULT:      -7.1      1.290      1.774
REMARK  Name = 
REMARK  2 active torsions:
REMARK  status: ('A' for Active; 'I' for Inactive)
REMARK    1  A    between atoms: C_1  and  C_2
REMARK    2  A    between atoms: C_2  and  C_3
REMARK                            x       y       z     vdW  Elec       q    Type
REMARK                         _______ _______ _______ _____ _____    ______ ____
ROOT
ATOM      1  C   UNL     1       3.619   3.463  17.037  0.00  0.00    +0.000 C 
ATOM      2  C   UNL     1       4.144   4.488  18.046  0.00  0.00    +0.000 C 
ATOM      3  C   UNL     1       5.661   4.340  18.179  0.00  0.00    +0.000 C 
ATOM      4  O   UNL     1       3.549   4.202  19.330  0.00  0.00    +0.000 OA
ATOM      5  C   UNL     1       2.885   5.363  19.580  0.00  0.00    +0.000 A 
ATOM      6  C   UNL     1       2.129   5.613  20.697  0.00  0.00    +0.000 A 
ATOM      7  C   UNL     1       1.509   6.863  20.800  0.00  0.00    +0.000 A 
ATOM      8  C   UNL     1       1.635   7.870  19.797  0.00  0.00    +0.000 A 
ATOM      9  C   UNL     1       2.427   7.557  18.666  0.00  0.00    +0.000 A 
ATOM     10  C   UNL     1       2.554   8.537  17.683  0.00  0.00    +0.000 A 
ATOM     11  N   UNL     1       1.977   9.760  17.733  0.00  0.00    +0.000 NA
ATOM     12  C   UNL     1       1.225  10.065  18.803  0.00  0.00    +0.000 A 
ATOM     13  C   UNL     1       0.638  11.323  18.849  0.00  0.00    +0.000 A 
ATOM     14  C   UNL     1      -0.161  11.735  19.918  0.00  0.00    +0.000 A 
ATOM     15  C   UNL     1      -0.380  10.868  20.976  0.00  0.00    +0.000 A 
ATOM     16  C   UNL     1       0.199   9.600  20.951  0.00  0.00    +0.000 A 
ATOM     17  C   UNL     1       1.014   9.164  19.870  0.00  0.00    +0.000 A 
ATOM     18  C   UNL     1       3.038   6.300  18.585  0.00  0.00    +0.000 A 
ATOM     19  O   UNL     1       3.831   5.825  17.575  0.00  0.00    +0.000 OA
ENDROOT
TORSDOF 0
ENDMDL
MODEL 4
REMARK VINA RESULT:      -6.9      3.965      7.643
REMARK  Name = 
REMARK  2 active torsions:
REMARK  status: ('A' for Active; 'I' for Inactive)
REMARK    1  A    between atoms: C_1  and  C_2
REMARK    2  A    between atoms: C_2  and  C_3
REMARK                            x       y       z     vdW  Elec       q    Type
REMARK                         _______ _______ _______ _____ _____    ______ ____
ROOT
ATOM      1  C   UNL     1      -1.143  14.014  23.067  0.00  0.00    +0.000 C 
ATOM      2  C   UNL     1      -1.749  12.747  22.458  0.00  0.00    +0.000 C 
ATOM      3  C   UNL     1      -3.251  12.950  22.249  0.00  0.00    +0.000 C 
ATOM      4  O   UNL     1      -1.566  11.664  23.396  0.00  0.00    +0.000 OA
ATOM      5  C   UNL     1      -0.818  10.798  22.661  0.00  0.00    +0.000 A 
ATOM      6  C   UNL     1      -0.355   9.586  23.105  0.00  0.00    +0.000 A 
ATOM      7  C   UNL     1       0.404   8.813  22.220  0.00  0.00    +0.000 A 
ATOM      8  C   UNL     1       0.708   9.237  20.891  0.00  0.00    +0.000 A 
ATOM      9  C   UNL     1       0.204  10.497  20.487  0.00  0.00    +0.000 A 
ATOM     10  C   UNL     1       0.497  10.918  19.191  0.00  0.00    +0.000 A 
ATOM     11  N   UNL     1       1.224  10.210  18.296  0.00  0.00    +0.000 NA
ATOM     12  C   UNL     1       1.705   9.014  18.672  0.00  0.00    +0.000 A 
ATOM     13  C   UNL     1       2.450   8.292  17.748  0.00  0.00    +0.000 A 
ATOM     14  C   UNL     1       2.991   7.039  18.041  0.00  0.00    +0.000 A 
ATOM     15  C   UNL     1       2.785   6.486  19.294  0.00  0.00    +0.000 A 
ATOM     16  C   UNL     1       2.041   7.192  20.238  0.00  0.00    +0.000 A 
ATOM     17  C   UNL     1       1.483   8.470  19.956  0.00  0.00    +0.000 A 
ATOM     18  C   UNL     1      -0.554  11.253  21.391  0.00  0.00    +0.000 A 
ATOM     19  O   UNL     1      -1.116  12.483  21.177  0.00  0.00    +0.000 OA
ENDROOT
TORSDOF 0
ENDMDL
MODEL 5
REMARK VINA RESULT:      -6.9      2.202      3.982
REMARK  Name = 
REMARK  2 active torsions:
REMARK  status: ('A' for Active; 'I' for Inactive)
REMARK    1  A    between atoms: C_1  and  C_2
REMARK    2  A    between atoms: C_2  and  C_3
REMARK                            x       y       z     vdW  Elec       q    Type
REMARK                         _______ _______ _______ _____ _____    ______ ____
ROOT
ATOM      1  C   UNL     1       4.638   5.494  19.213  0.00  0.00    +0.000 C 
ATOM      2  C   UNL     1       3.168   5.759  18.880  0.00  0.00    +0.000 C 
ATOM      3  C   UNL     1       2.507   4.457  18.424  0.00  0.00    +0.000 C 
ATOM      4  O   UNL     1       3.117   6.699  17.784  0.00  0.00    +0.000 OA
ATOM      5  C   UNL     1       2.431   7.729  18.349  0.00  0.00    +0.000 A 
ATOM      6  C   UNL     1       2.116   8.905  17.716  0.00  0.00    +0.000 A 
ATOM      7  C   UNL     1       1.404   9.866  18.441  0.00  0.00    +0.000 A 
ATOM      8  C   UNL     1       1.001   9.667  19.796  0.00  0.00    +0.000 A 
ATOM      9  C   UNL     1       1.354   8.435  20.398  0.00  0.00    +0.000 A 
ATOM     10  C   UNL     1       0.964   8.234  21.721  0.00  0.00    +0.000 A 
ATOM     11  N   UNL     1       0.274   9.129  22.466  0.00  0.00    +0.000 NA
ATOM     12  C   UNL     1      -0.064  10.300  21.902  0.00  0.00    +0.000 A 
ATOM     13  C   UNL     1      -0.773  11.213  22.672  0.00  0.00    +0.000 A 
ATOM     14  C   UNL     1      -1.172  12.456  22.177  0.00  0.00    +0.000 A 
ATOM     15  C   UNL     1      -0.857  12.801  20.874  0.00  0.00    +0.000 A 
ATOM     16  C   UNL     1      -0.145  11.901  20.082  0.00  0.00    +0.000 A 
ATOM     17  C   UNL     1       0.269  10.631  20.571  0.00  0.00    +0.000 A 
ATOM     18  C   UNL     1       2.066   7.488  19.652  0.00  0.00    +0.000 A 
ATOM     19  O   UNL     1       2.490   6.254  20.065  0.00  0.00    +0.000 OA
ENDROOT
TORSDOF 0
ENDMDL
MODEL 6
REMARK VINA RESULT:      -6.8      3.185      4.497
REMARK  Name = 
REMARK  2 active torsions:
REMARK  status: ('A' for Active; 'I' for Inactive)
REMARK    1  A    between atoms: C_1  and  C_2
REMARK    2  A    between atoms: C_2  and  C_3
REMARK                            x       y       z     vdW  Elec       q    Type
REMARK                         _______ _______ _______ _____ _____    ______ ____
ROOT
ATOM      1  C   UNL     1       7.851   4.748  14.594  0.00  0.00    +0.000 C 
ATOM      2  C   UNL     1       6.324   4.760  14.487  0.00  0.00    +0.000 C 
ATOM      3  C   UNL     1       5.914   4.538  13.029  0.00  0.00    +0.000 C 
ATOM      4  O   UNL     1       5.854   6.064  14.894  0.00  0.00    +0.000 OA
ATOM      5  C   UNL     1       5.062   5.742  15.952  0.00  0.00    +0.000 A 
ATOM      6  C   UNL     1       4.369   6.644  16.719  0.00  0.00    +0.000 A 
ATOM      7  C   UNL     1       3.597   6.147  17.775  0.00  0.00    +0.000 A 
ATOM      8  C   UNL     1       3.508   4.754  18.075  0.00  0.00    +0.000 A 
ATOM      9  C   UNL     1       4.244   3.869  17.250  0.00  0.00    +0.000 A 
ATOM     10  C   UNL     1       4.161   2.508  17.537  0.00  0.00    +0.000 A 
ATOM     11  N   UNL     1       3.430   1.975  18.544  0.00  0.00    +0.000 NA
ATOM     12  C   UNL     1       2.729   2.807  19.331  0.00  0.00    +0.000 A 
ATOM     13  C   UNL     1       1.980   2.254  20.361  0.00  0.00    +0.000 A 
ATOM     14  C   UNL     1       1.217   3.034  21.232  0.00  0.00    +0.000 A 
ATOM     15  C   UNL     1       1.197   4.410  21.072  0.00  0.00    +0.000 A 
ATOM     16  C   UNL     1       1.943   4.988  20.045  0.00  0.00    +0.000 A 
ATOM     17  C   UNL     1       2.725   4.208  19.150  0.00  0.00    +0.000 A 
ATOM     18  C   UNL     1       5.009   4.391  16.199  0.00  0.00    +0.000 A 
ATOM     19  O   UNL     1       5.779   3.693  15.307  0.00  0.00    +0.000 OA
ENDROOT
TORSDOF 0
ENDMDL
MODEL 7
REMARK VINA RESULT:      -6.8      1.842      3.241
REMARK  Name = 
REMARK  2 active torsions:
REMARK  status: ('A' for Active; 'I' for Inactive)
REMARK    1  A    between atoms: C_1  and  C_2
REMARK    2  A    between atoms: C_2  and  C_3
REMARK                            x       y       z     vdW  Elec       q    Type
REMARK                         _______ _______ _______ _____ _____    ______ ____
ROOT
ATOM      1  C   UNL     1       4.552   2.405  20.226  0.00  0.00    +0.000 C 
ATOM      2  C   UNL     1       3.390   2.931  19.380  0.00  0.00    +0.000 C 
ATOM      3  C   UNL     1       2.463   1.771  19.011  0.00  0.00    +0.000 C 
ATOM      4  O   UNL     1       3.933   3.481  18.160  0.00  0.00    +0.000 OA
ATOM      5  C   UNL     1       3.517   4.774  18.243  0.00  0.00    +0.000 A 
ATOM      6  C   UNL     1       3.785   5.747  17.314  0.00  0.00    +0.000 A 
ATOM      7  C   UNL     1       3.283   7.031  17.551  0.00  0.00    +0.000 A 
ATOM      8  C   UNL     1       2.514   7.357  18.708  0.00  0.00    +0.000 A 
ATOM      9  C   UNL     1       2.268   6.313  19.633  0.00  0.00    +0.000 A 
ATOM     10  C   UNL     1       1.518   6.623  20.765  0.00  0.00    +0.000 A 
ATOM     11  N   UNL     1       1.008   7.847  21.041  0.00  0.00    +0.000 NA
ATOM     12  C   UNL     1       1.236   8.842  20.169  0.00  0.00    +0.000 A 
ATOM     13  C   UNL     1       0.710  10.094  20.458  0.00  0.00    +0.000 A 
ATOM     14  C   UNL     1       0.890  11.193  19.615  0.00  0.00    +0.000 A 
ATOM     15  C   UNL     1       1.616  11.040  18.446  0.00  0.00    +0.000 A 
ATOM     16  C   UNL     1       2.155   9.792  18.135  0.00  0.00    +0.000 A 
ATOM     17  C   UNL     1       1.982   8.663  18.983  0.00  0.00    +0.000 A 
ATOM     18  C   UNL     1       2.781   5.035  19.374  0.00  0.00    +0.000 A 
ATOM     19  O   UNL     1       2.647   3.914  20.149  0.00  0.00    +0.000 OA
ENDROOT
TORSDOF 0
ENDMDL
MODEL 8
REMARK VINA RESULT:      -6.7      0.990      1.216
REMARK  Name = 
REMARK  2 active torsions:
REMARK  status: ('A' for Active; 'I' for Inactive)
REMARK    1  A    between atoms: C_1  and  C_2
REMARK    2  A    between atoms: C_2  and  C_3
REMARK                            x       y       z     vdW  Elec       q    Type
REMARK                         _______ _______ _______ _____ _____    ______ ____
ROOT
ATOM      1  C   UNL     1       5.319   4.209  14.007  0.00  0.00    +0.000 C 
ATOM      2  C   UNL     1       5.826   4.742  15.349  0.00  0.00    +0.000 C 
ATOM      3  C   UNL     1       7.337   4.969  15.268  0.00  0.00    +0.000 C 
ATOM      4  O   UNL     1       5.574   3.739  16.357  0.00  0.00    +0.000 OA
ATOM      5  C   UNL     1       4.759   4.417  17.209  0.00  0.00    +0.000 A 
ATOM      6  C   UNL     1       4.214   3.898  18.356  0.00  0.00    +0.000 A 
ATOM      7  C   UNL     1       3.393   4.731  19.124  0.00  0.00    +0.000 A 
ATOM      8  C   UNL     1       3.110   6.082  18.760  0.00  0.00    +0.000 A 
ATOM      9  C   UNL     1       3.700   6.564  17.566  0.00  0.00    +0.000 A 
ATOM     10  C   UNL     1       3.427   7.882  17.204  0.00  0.00    +0.000 A 
ATOM     11  N   UNL     1       2.643   8.729  17.910  0.00  0.00    +0.000 NA
ATOM     12  C   UNL     1       2.080   8.280  19.044  0.00  0.00    +0.000 A 
ATOM     13  C   UNL     1       1.278   9.155  19.764  0.00  0.00    +0.000 A 
ATOM     14  C   UNL     1       0.650   8.784  20.955  0.00  0.00    +0.000 A 
ATOM     15  C   UNL     1       0.827   7.501  21.445  0.00  0.00    +0.000 A 
ATOM     16  C   UNL     1       1.627   6.604  20.738  0.00  0.00    +0.000 A 
ATOM     17  C   UNL     1       2.274   6.966  19.524  0.00  0.00    +0.000 A 
ATOM     18  C   UNL     1       4.518   5.711  16.814  0.00  0.00    +0.000 A 
ATOM     19  O   UNL     1       5.165   6.001  15.643  0.00  0.00    +0.000 OA
ENDROOT
TORSDOF 0
ENDMDL
MODEL 9
REMARK VINA RESULT:      -6.7      2.887      6.303
REMARK  Name = 
REMARK  2 active torsions:
REMARK  status: ('A' for Active; 'I' for Inactive)
REMARK    1  A    between atoms: C_1  and  C_2
REMARK    2  A    between atoms: C_2  and  C_3
REMARK                            x       y       z     vdW  Elec       q    Type
REMARK                         _______ _______ _______ _____ _____    ______ ____
ROOT
ATOM      1  C   UNL     1      -1.160  10.873  19.796  0.00  0.00    +0.000 C 
ATOM      2  C   UNL     1       0.336  10.659  20.033  0.00  0.00    +0.000 C 
ATOM      3  C   UNL     1       0.861  11.737  20.984  0.00  0.00    +0.000 C 
ATOM      4  O   UNL     1       1.018  10.804  18.767  0.00  0.00    +0.000 OA
ATOM      5  C   UNL     1       1.594   9.579  18.634  0.00  0.00    +0.000 A 
ATOM      6  C   UNL     1       2.364   9.184  17.569  0.00  0.00    +0.000 A 
ATOM      7  C   UNL     1       2.884   7.885  17.586  0.00  0.00    +0.000 A 
ATOM      8  C   UNL     1       2.643   6.972  18.656  0.00  0.00    +0.000 A 
ATOM      9  C   UNL     1       1.841   7.434  19.728  0.00  0.00    +0.000 A 
ATOM     10  C   UNL     1       1.602   6.548  20.776  0.00  0.00    +0.000 A 
ATOM     11  N   UNL     1       2.080   5.283  20.842  0.00  0.00    +0.000 NA
ATOM     12  C   UNL     1       2.841   4.838  19.830  0.00  0.00    +0.000 A 
ATOM     13  C   UNL     1       3.330   3.540  19.905  0.00  0.00    +0.000 A 
ATOM     14  C   UNL     1       4.131   2.985  18.904  0.00  0.00    +0.000 A 
ATOM     15  C   UNL     1       4.457   3.747  17.795  0.00  0.00    +0.000 A 
ATOM     16  C   UNL     1       3.977   5.052  17.697  0.00  0.00    +0.000 A 
ATOM     17  C   UNL     1       3.160   5.632  18.707  0.00  0.00    +0.000 A 
ATOM     18  C   UNL     1       1.332   8.738  19.689  0.00  0.00    +0.000 A 
ATOM     19  O   UNL     1       0.545   9.350  20.627  0.00  0.00    +0.000 OA
ENDROOT
TORSDOF 0
ENDMDL
