MODEL 1
REMARK VINA RESULT:      -6.7      0.000      0.000
REMARK  Name = 
REMARK  10 active torsions:
REMARK  status: ('A' for Active; 'I' for Inactive)
REMARK    1  A    between atoms: C_1  and  C_2
REMARK    2  A    between atoms: C_2  and  N_3
REMARK    3  A    between atoms: N_3  and  C_4
REMARK    4  A    between atoms: C_4  and  C_5
REMARK    5  A    between atoms: C_6  and  C_8
REMARK    6  A    between atoms: C_16  and  C_18
REMARK    7  A    between atoms: C_18  and  C_19
REMARK    8  A    between atoms: C_19  and  C_20
REMARK    9  A    between atoms: C_20  and  O_22
REMARK   10  A    between atoms: O_22  and  C_23
REMARK                            x       y       z     vdW  Elec       q    Type
REMARK                         _______ _______ _______ _____ _____    ______ ____
ROOT
ATOM      1  C   UNL     1       2.945   6.419  19.397  0.00  0.00    +0.000 A 
ATOM      2  N   UNL     1       2.189   6.874  20.384  0.00  0.00    +0.000 NA
ATOM      3  C   UNL     1       1.586   8.078  20.034  0.00  0.00    +0.000 A 
ATOM      4  C   UNL     1       1.902   8.519  18.764  0.00  0.00    +0.000 A 
ATOM      5  S   UNL     1       2.938   7.408  17.987  0.00  0.00    +0.000 S 
ATOM      6  C   UNL     1       1.454   9.760  18.067  0.00  0.00    +0.000 C 
ATOM      7  C   UNL     1      -0.026  10.045  18.329  0.00  0.00    +0.000 C 
ATOM      8  N   UNL     1      -0.325  10.650  19.639  0.00  0.00    +0.000 N 
ATOM      9  C   UNL     1      -1.384  11.544  19.830  0.00  0.00    +0.000 C 
ATOM     10  O   UNL     1      -1.633  12.051  20.925  0.00  0.00    +0.000 OA
ATOM     11  C   UNL     1       0.492  10.260  20.809  0.00  0.00    +0.000 C 
ATOM     12  C   UNL     1       0.661   8.745  21.012  0.00  0.00    +0.000 C 
ENDROOT
BRANCH   1  14
ATOM     13  N   UNL     1       3.128   3.911  19.247  0.00  0.00    +0.000 N 
ATOM     14  C   UNL     1       3.755   5.180  19.384  0.00  0.00    +0.000 C 
ATOM     15  O   UNL     1       4.985   5.219  19.486  0.00  0.00    +0.000 OA
BRANCH  13  17
ATOM     16  C   UNL     1       3.509   1.685  18.179  0.00  0.00    +0.000 C 
ATOM     17  C   UNL     1       4.008   2.740  19.157  0.00  0.00    +0.000 C 
ENDBRANCH  13  17
BRANCH  13  18
ATOM     18  C   UNL     1       1.670   3.769  19.177  0.00  0.00    +0.000 C 
ATOM     19  C   UNL     1       0.912   3.387  20.439  0.00  0.00    +0.000 C 
ENDBRANCH  13  18
ENDBRANCH   1  14
BRANCH   9  20
ATOM     20  C   UNL     1      -2.230  11.870  18.610  0.00  0.00    +0.000 C 
BRANCH  20  21
ATOM     21  C   UNL     1      -3.728  11.869  18.898  0.00  0.00    +0.000 C 
BRANCH  21  22
ATOM     22  C   UNL     1      -4.489  11.364  17.698  0.00  0.00    +0.000 C 
ATOM     23  O   UNL     1      -4.166  11.550  16.533  0.00  0.00    +0.000 OA
BRANCH  22  24
ATOM     24  O   UNL     1      -5.591  10.673  18.101  0.00  0.00    +0.000 OA
ATOM     25  C   UNL     1      -6.779  11.465  18.180  0.00  0.00    +0.000 C 
ENDBRANCH  22  24
ENDBRANCH  21  22
ENDBRANCH  20  21
ENDBRANCH   9  20
TORSDOF 7
ENDMDL
MODEL 2
REMARK VINA RESULT:      -6.6      0.851      1.179
REMARK  Name = 
REMARK  10 active torsions:
REMARK  status: ('A' for Active; 'I' for Inactive)
REMARK    1  A    between atoms: C_1  and  C_2
REMARK    2  A    between atoms: C_2  and  N_3
REMARK    3  A    between atoms: N_3  and  C_4
REMARK    4  A    between atoms: C_4  and  C_5
REMARK    5  A    between atoms: C_6  and  C_8
REMARK    6  A    between atoms: C_16  and  C_18
REMARK    7  A    between atoms: C_18  and  C_19
REMARK    8  A    between atoms: C_19  and  C_20
REMARK    9  A    between atoms: C_20  and  O_22
REMARK   10  A    between atoms: O_22  and  C_23
REMARK                            x       y       z     vdW  Elec       q    Type
REMARK                         _______ _______ _______ _____ _____    ______ ____
ROOT
ATOM      1  C   UNL     1       3.148   6.054  19.379  0.00  0.00    +0.000 A 
ATOM      2  N   UNL     1       2.363   6.562  20.316  0.00  0.00    +0.000 NA
ATOM      3  C   UNL     1       1.838   7.786  19.914  0.00  0.00    +0.000 A 
ATOM      4  C   UNL     1       2.244   8.189  18.657  0.00  0.00    +0.000 A 
ATOM      5  S   UNL     1       3.266   7.017  17.956  0.00  0.00    +0.000 S 
ATOM      6  C   UNL     1       1.894   9.437  17.918  0.00  0.00    +0.000 C 
ATOM      7  C   UNL     1       0.418   9.796  18.092  0.00  0.00    +0.000 C 
ATOM      8  N   UNL     1       0.077  10.438  19.375  0.00  0.00    +0.000 N 
ATOM      9  C   UNL     1      -0.947  11.385  19.493  0.00  0.00    +0.000 C 
ATOM     10  O   UNL     1      -1.231  11.922  20.564  0.00  0.00    +0.000 OA
ATOM     11  C   UNL     1       0.809  10.032  20.593  0.00  0.00    +0.000 C 
ATOM     12  C   UNL     1       0.894   8.514  20.830  0.00  0.00    +0.000 C 
ENDROOT
BRANCH   1  14
ATOM     13  N   UNL     1       3.209   3.546  19.604  0.00  0.00    +0.000 N 
ATOM     14  C   UNL     1       3.897   4.778  19.431  0.00  0.00    +0.000 C 
ATOM     15  O   UNL     1       5.128   4.754  19.321  0.00  0.00    +0.000 OA
BRANCH  13  17
ATOM     16  C   UNL     1       3.647   1.400  18.402  0.00  0.00    +0.000 C 
ATOM     17  C   UNL     1       4.017   2.321  19.557  0.00  0.00    +0.000 C 
ENDBRANCH  13  17
BRANCH  13  18
ATOM     18  C   UNL     1       1.757   3.488  19.799  0.00  0.00    +0.000 C 
ATOM     19  C   UNL     1       1.218   2.926  21.105  0.00  0.00    +0.000 C 
ENDBRANCH  13  18
ENDBRANCH   1  14
BRANCH   9  20
ATOM     20  C   UNL     1      -1.708  11.728  18.223  0.00  0.00    +0.000 C 
BRANCH  20  21
ATOM     21  C   UNL     1      -2.835  10.747  17.912  0.00  0.00    +0.000 C 
BRANCH  21  22
ATOM     22  C   UNL     1      -4.138  11.487  17.743  0.00  0.00    +0.000 C 
ATOM     23  O   UNL     1      -4.698  12.131  18.619  0.00  0.00    +0.000 OA
BRANCH  22  24
ATOM     24  O   UNL     1      -4.601  11.331  16.472  0.00  0.00    +0.000 OA
ATOM     25  C   UNL     1      -3.698  10.644  15.603  0.00  0.00    +0.000 C 
ENDBRANCH  22  24
ENDBRANCH  21  22
ENDBRANCH  20  21
ENDBRANCH   9  20
TORSDOF 7
ENDMDL
MODEL 3
REMARK VINA RESULT:      -6.4      2.728      8.947
REMARK  Name = 
REMARK  10 active torsions:
REMARK  status: ('A' for Active; 'I' for Inactive)
REMARK    1  A    between atoms: C_1  and  C_2
REMARK    2  A    between atoms: C_2  and  N_3
REMARK    3  A    between atoms: N_3  and  C_4
REMARK    4  A    between atoms: C_4  and  C_5
REMARK    5  A    between atoms: C_6  and  C_8
REMARK    6  A    between atoms: C_16  and  C_18
REMARK    7  A    between atoms: C_18  and  C_19
REMARK    8  A    between atoms: C_19  and  C_20
REMARK    9  A    between atoms: C_20  and  O_22
REMARK   10  A    between atoms: O_22  and  C_23
REMARK                            x       y       z     vdW  Elec       q    Type
REMARK                         _______ _______ _______ _____ _____    ______ ____
ROOT
ATOM      1  C   UNL     1       0.997  10.031  19.428  0.00  0.00    +0.000 A 
ATOM      2  N   UNL     1       1.122   8.947  20.178  0.00  0.00    +0.000 NA
ATOM      3  C   UNL     1       1.889   7.982  19.534  0.00  0.00    +0.000 A 
ATOM      4  C   UNL     1       2.339   8.361  18.285  0.00  0.00    +0.000 A 
ATOM      5  S   UNL     1       1.826   9.947  17.921  0.00  0.00    +0.000 S 
ATOM      6  C   UNL     1       3.167   7.586  17.315  0.00  0.00    +0.000 C 
ATOM      7  C   UNL     1       4.281   6.814  18.022  0.00  0.00    +0.000 C 
ATOM      8  N   UNL     1       3.857   5.568  18.685  0.00  0.00    +0.000 N 
ATOM      9  C   UNL     1       4.695   4.452  18.795  0.00  0.00    +0.000 C 
ATOM     10  O   UNL     1       4.340   3.410  19.349  0.00  0.00    +0.000 OA
ATOM     11  C   UNL     1       2.515   5.509  19.304  0.00  0.00    +0.000 C 
ATOM     12  C   UNL     1       2.173   6.684  20.236  0.00  0.00    +0.000 C 
ENDROOT
BRANCH   1  14
ATOM     13  N   UNL     1      -1.092  11.434  19.320  0.00  0.00    +0.000 N 
ATOM     14  C   UNL     1       0.252  11.268  19.754  0.00  0.00    +0.000 C 
ATOM     15  O   UNL     1       0.773  12.175  20.410  0.00  0.00    +0.000 OA
BRANCH  13  17
ATOM     16  C   UNL     1      -3.163  12.376  20.353  0.00  0.00    +0.000 C 
ATOM     17  C   UNL     1      -1.787  12.650  19.759  0.00  0.00    +0.000 C 
ENDBRANCH  13  17
BRANCH  13  18
ATOM     18  C   UNL     1      -1.770  10.432  18.490  0.00  0.00    +0.000 C 
ATOM     19  C   UNL     1      -2.176  10.812  17.074  0.00  0.00    +0.000 C 
ENDBRANCH  13  18
ENDBRANCH   1  14
BRANCH   9  20
ATOM     20  C   UNL     1       6.084   4.581  18.194  0.00  0.00    +0.000 C 
BRANCH  20  21
ATOM     21  C   UNL     1       6.136   4.219  16.713  0.00  0.00    +0.000 C 
BRANCH  21  22
ATOM     22  C   UNL     1       6.704   5.367  15.916  0.00  0.00    +0.000 C 
ATOM     23  O   UNL     1       7.541   6.159  16.325  0.00  0.00    +0.000 OA
BRANCH  22  24
ATOM     24  O   UNL     1       6.146   5.395  14.674  0.00  0.00    +0.000 OA
ATOM     25  C   UNL     1       6.271   4.167  13.952  0.00  0.00    +0.000 C 
ENDBRANCH  22  24
ENDBRANCH  21  22
ENDBRANCH  20  21
ENDBRANCH   9  20
TORSDOF 7
ENDMDL
MODEL 4
REMARK VINA RESULT:      -6.3      1.509      1.877
REMARK  Name = 
REMARK  10 active torsions:
REMARK  status: ('A' for Active; 'I' for Inactive)
REMARK    1  A    between atoms: C_1  and  C_2
REMARK    2  A    between atoms: C_2  and  N_3
REMARK    3  A    between atoms: N_3  and  C_4
REMARK    4  A    between atoms: C_4  and  C_5
REMARK    5  A    between atoms: C_6  and  C_8
REMARK    6  A    between atoms: C_16  and  C_18
REMARK    7  A    between atoms: C_18  and  C_19
REMARK    8  A    between atoms: C_19  and  C_20
REMARK    9  A    between atoms: C_20  and  O_22
REMARK   10  A    between atoms: O_22  and  C_23
REMARK                            x       y       z     vdW  Elec       q    Type
REMARK                         _______ _______ _______ _____ _____    ______ ____
ROOT
ATOM      1  C   UNL     1       2.733   6.765  19.315  0.00  0.00    +0.000 A 
ATOM      2  N   UNL     1       2.122   7.090  20.444  0.00  0.00    +0.000 NA
ATOM      3  C   UNL     1       1.482   8.319  20.327  0.00  0.00    +0.000 A 
ATOM      4  C   UNL     1       1.622   8.914  19.089  0.00  0.00    +0.000 A 
ATOM      5  S   UNL     1       2.537   7.917  18.049  0.00  0.00    +0.000 S 
ATOM      6  C   UNL     1       1.088  10.223  18.615  0.00  0.00    +0.000 C 
ATOM      7  C   UNL     1      -0.340  10.457  19.109  0.00  0.00    +0.000 C 
ATOM      8  N   UNL     1      -0.454  10.897  20.512  0.00  0.00    +0.000 N 
ATOM      9  C   UNL     1      -1.473  11.749  20.952  0.00  0.00    +0.000 C 
ATOM     10  O   UNL     1      -1.567  12.117  22.124  0.00  0.00    +0.000 OA
ATOM     11  C   UNL     1       0.515  10.379  21.502  0.00  0.00    +0.000 C 
ATOM     12  C   UNL     1       0.703   8.852  21.497  0.00  0.00    +0.000 C 
ENDROOT
BRANCH   1  14
ATOM     13  N   UNL     1       2.881   4.299  18.825  0.00  0.00    +0.000 N 
ATOM     14  C   UNL     1       3.528   5.547  19.042  0.00  0.00    +0.000 C 
ATOM     15  O   UNL     1       4.762   5.586  18.993  0.00  0.00    +0.000 OA
BRANCH  13  17
ATOM     16  C   UNL     1       4.206   2.364  19.686  0.00  0.00    +0.000 C 
ATOM     17  C   UNL     1       3.737   3.159  18.475  0.00  0.00    +0.000 C 
ENDBRANCH  13  17
BRANCH  13  18
ATOM     18  C   UNL     1       1.425   4.152  18.921  0.00  0.00    +0.000 C 
ATOM     19  C   UNL     1       0.827   3.656  20.228  0.00  0.00    +0.000 C 
ENDBRANCH  13  18
ENDBRANCH   1  14
BRANCH   9  20
ATOM     20  C   UNL     1      -2.477  12.208  19.908  0.00  0.00    +0.000 C 
BRANCH  20  21
ATOM     21  C   UNL     1      -3.499  13.201  20.451  0.00  0.00    +0.000 C 
BRANCH  21  22
ATOM     22  C   UNL     1      -4.836  12.526  20.632  0.00  0.00    +0.000 C 
ATOM     23  O   UNL     1      -5.609  12.248  19.727  0.00  0.00    +0.000 OA
BRANCH  22  24
ATOM     24  O   UNL     1      -5.057  12.274  21.952  0.00  0.00    +0.000 OA
ATOM     25  C   UNL     1      -4.811  13.393  22.807  0.00  0.00    +0.000 C 
ENDBRANCH  22  24
ENDBRANCH  21  22
ENDBRANCH  20  21
ENDBRANCH   9  20
TORSDOF 7
ENDMDL
MODEL 5
REMARK VINA RESULT:      -6.2      0.791      1.086
REMARK  Name = 
REMARK  10 active torsions:
REMARK  status: ('A' for Active; 'I' for Inactive)
REMARK    1  A    between atoms: C_1  and  C_2
REMARK    2  A    between atoms: C_2  and  N_3
REMARK    3  A    between atoms: N_3  and  C_4
REMARK    4  A    between atoms: C_4  and  C_5
REMARK    5  A    between atoms: C_6  and  C_8
REMARK    6  A    between atoms: C_16  and  C_18
REMARK    7  A    between atoms: C_18  and  C_19
REMARK    8  A    between atoms: C_19  and  C_20
REMARK    9  A    between atoms: C_20  and  O_22
REMARK   10  A    between atoms: O_22  and  C_23
REMARK                            x       y       z     vdW  Elec       q    Type
REMARK                         _______ _______ _______ _____ _____    ______ ____
ROOT
ATOM      1  C   UNL     1       3.015   6.474  19.320  0.00  0.00    +0.000 A 
ATOM      2  N   UNL     1       2.210   6.927  20.267  0.00  0.00    +0.000 NA
ATOM      3  C   UNL     1       1.603   8.116  19.877  0.00  0.00    +0.000 A 
ATOM      4  C   UNL     1       1.968   8.549  18.618  0.00  0.00    +0.000 A 
ATOM      5  S   UNL     1       3.055   7.447  17.900  0.00  0.00    +0.000 S 
ATOM      6  C   UNL     1       1.530   9.775  17.888  0.00  0.00    +0.000 C 
ATOM      7  C   UNL     1       0.036  10.038  18.082  0.00  0.00    +0.000 C 
ATOM      8  N   UNL     1      -0.329  10.653  19.371  0.00  0.00    +0.000 N 
ATOM      9  C   UNL     1      -1.410  11.531  19.505  0.00  0.00    +0.000 C 
ATOM     10  O   UNL     1      -1.715  12.045  20.582  0.00  0.00    +0.000 OA
ATOM     11  C   UNL     1       0.442  10.289  20.579  0.00  0.00    +0.000 C 
ATOM     12  C   UNL     1       0.626   8.779  20.807  0.00  0.00    +0.000 C 
ENDROOT
BRANCH   1  14
ATOM     13  N   UNL     1       3.243   3.967  19.224  0.00  0.00    +0.000 N 
ATOM     14  C   UNL     1       3.845   5.248  19.356  0.00  0.00    +0.000 C 
ATOM     15  O   UNL     1       5.071   5.309  19.497  0.00  0.00    +0.000 OA
BRANCH  13  17
ATOM     16  C   UNL     1       4.325   2.139  20.540  0.00  0.00    +0.000 C 
ATOM     17  C   UNL     1       4.144   2.809  19.184  0.00  0.00    +0.000 C 
ENDBRANCH  13  17
BRANCH  13  18
ATOM     18  C   UNL     1       1.790   3.800  19.110  0.00  0.00    +0.000 C 
ATOM     19  C   UNL     1       1.249   2.521  18.491  0.00  0.00    +0.000 C 
ENDBRANCH  13  18
ENDBRANCH   1  14
BRANCH   9  20
ATOM     20  C   UNL     1      -2.207  11.830  18.246  0.00  0.00    +0.000 C 
BRANCH  20  21
ATOM     21  C   UNL     1      -3.444  10.950  18.093  0.00  0.00    +0.000 C 
BRANCH  21  22
ATOM     22  C   UNL     1      -4.692  11.758  18.350  0.00  0.00    +0.000 C 
ATOM     23  O   UNL     1      -5.173  11.974  19.453  0.00  0.00    +0.000 OA
BRANCH  22  24
ATOM     24  O   UNL     1      -5.206  12.209  17.172  0.00  0.00    +0.000 OA
ATOM     25  C   UNL     1      -6.567  12.639  17.257  0.00  0.00    +0.000 C 
ENDBRANCH  22  24
ENDBRANCH  21  22
ENDBRANCH  20  21
ENDBRANCH   9  20
TORSDOF 7
ENDMDL
MODEL 6
REMARK VINA RESULT:      -6.2      3.146      4.381
REMARK  Name = 
REMARK  10 active torsions:
REMARK  status: ('A' for Active; 'I' for Inactive)
REMARK    1  A    between atoms: C_1  and  C_2
REMARK    2  A    between atoms: C_2  and  N_3
REMARK    3  A    between atoms: N_3  and  C_4
REMARK    4  A    between atoms: C_4  and  C_5
REMARK    5  A    between atoms: C_6  and  C_8
REMARK    6  A    between atoms: C_16  and  C_18
REMARK    7  A    between atoms: C_18  and  C_19
REMARK    8  A    between atoms: C_19  and  C_20
REMARK    9  A    between atoms: C_20  and  O_22
REMARK   10  A    between atoms: O_22  and  C_23
REMARK                            x       y       z     vdW  Elec       q    Type
REMARK                         _______ _______ _______ _____ _____    ______ ____
ROOT
ATOM      1  C   UNL     1       3.605   6.342  18.062  0.00  0.00    +0.000 A 
ATOM      2  N   UNL     1       3.156   7.468  17.529  0.00  0.00    +0.000 NA
ATOM      3  C   UNL     1       2.262   8.102  18.386  0.00  0.00    +0.000 A 
ATOM      4  C   UNL     1       2.047   7.431  19.574  0.00  0.00    +0.000 A 
ATOM      5  S   UNL     1       2.991   6.011  19.637  0.00  0.00    +0.000 S 
ATOM      6  C   UNL     1       1.155   7.805  20.709  0.00  0.00    +0.000 C 
ATOM      7  C   UNL     1       1.217   9.305  21.000  0.00  0.00    +0.000 C 
ATOM      8  N   UNL     1       0.436  10.154  20.082  0.00  0.00    +0.000 N 
ATOM      9  C   UNL     1      -0.169  11.347  20.493  0.00  0.00    +0.000 C 
ATOM     10  O   UNL     1      -0.822  12.056  19.726  0.00  0.00    +0.000 OA
ATOM     11  C   UNL     1       0.327   9.757  18.662  0.00  0.00    +0.000 C 
ATOM     12  C   UNL     1       1.661   9.416  17.975  0.00  0.00    +0.000 C 
ENDROOT
BRANCH   1  14
ATOM     13  N   UNL     1       5.882   5.790  17.138  0.00  0.00    +0.000 N 
ATOM     14  C   UNL     1       4.559   5.383  17.462  0.00  0.00    +0.000 C 
ATOM     15  O   UNL     1       4.232   4.213  17.235  0.00  0.00    +0.000 OA
BRANCH  13  17
ATOM     16  C   UNL     1       6.929   4.771  15.111  0.00  0.00    +0.000 C 
ATOM     17  C   UNL     1       6.790   4.756  16.628  0.00  0.00    +0.000 C 
ENDBRANCH  13  17
BRANCH  13  18
ATOM     18  C   UNL     1       6.336   7.172  17.322  0.00  0.00    +0.000 C 
ATOM     19  C   UNL     1       7.768   7.416  17.774  0.00  0.00    +0.000 C 
ENDBRANCH  13  18
ENDBRANCH   1  14
BRANCH   9  20
ATOM     20  C   UNL     1       0.019  11.741  21.949  0.00  0.00    +0.000 C 
BRANCH  20  21
ATOM     21  C   UNL     1      -1.297  11.898  22.704  0.00  0.00    +0.000 C 
BRANCH  21  22
ATOM     22  C   UNL     1      -1.437  13.309  23.219  0.00  0.00    +0.000 C 
ATOM     23  O   UNL     1      -0.515  14.101  23.355  0.00  0.00    +0.000 OA
BRANCH  22  24
ATOM     24  O   UNL     1      -2.741  13.572  23.511  0.00  0.00    +0.000 OA
ATOM     25  C   UNL     1      -3.523  12.407  23.783  0.00  0.00    +0.000 C 
ENDBRANCH  22  24
ENDBRANCH  21  22
ENDBRANCH  20  21
ENDBRANCH   9  20
TORSDOF 7
ENDMDL
MODEL 7
REMARK VINA RESULT:      -6.2      2.710      3.421
REMARK  Name = 
REMARK  10 active torsions:
REMARK  status: ('A' for Active; 'I' for Inactive)
REMARK    1  A    between atoms: C_1  and  C_2
REMARK    2  A    between atoms: C_2  and  N_3
REMARK    3  A    between atoms: N_3  and  C_4
REMARK    4  A    between atoms: C_4  and  C_5
REMARK    5  A    between atoms: C_6  and  C_8
REMARK    6  A    between atoms: C_16  and  C_18
REMARK    7  A    between atoms: C_18  and  C_19
REMARK    8  A    between atoms: C_19  and  C_20
REMARK    9  A    between atoms: C_20  and  O_22
REMARK   10  A    between atoms: O_22  and  C_23
REMARK                            x       y       z     vdW  Elec       q    Type
REMARK                         _______ _______ _______ _____ _____    ______ ____
ROOT
ATOM      1  C   UNL     1       2.714   6.590  18.464  0.00  0.00    +0.000 A 
ATOM      2  N   UNL     1       2.326   6.632  19.729  0.00  0.00    +0.000 NA
ATOM      3  C   UNL     1       1.793   7.878  20.044  0.00  0.00    +0.000 A 
ATOM      4  C   UNL     1       1.788   8.772  18.992  0.00  0.00    +0.000 A 
ATOM      5  S   UNL     1       2.425   8.044  17.587  0.00  0.00    +0.000 S 
ATOM      6  C   UNL     1       1.309  10.184  18.969  0.00  0.00    +0.000 C 
ATOM      7  C   UNL     1       0.007  10.347  19.755  0.00  0.00    +0.000 C 
ATOM      8  N   UNL     1       0.163  10.404  21.220  0.00  0.00    +0.000 N 
ATOM      9  C   UNL     1      -0.688  11.157  22.038  0.00  0.00    +0.000 C 
ATOM     10  O   UNL     1      -0.557  11.205  23.262  0.00  0.00    +0.000 OA
ATOM     11  C   UNL     1       1.226   9.597  21.856  0.00  0.00    +0.000 C 
ATOM     12  C   UNL     1       1.267   8.119  21.431  0.00  0.00    +0.000 C 
ENDROOT
BRANCH   1  14
ATOM     13  N   UNL     1       4.698   5.513  17.346  0.00  0.00    +0.000 N 
ATOM     14  C   UNL     1       3.337   5.451  17.753  0.00  0.00    +0.000 C 
ATOM     15  O   UNL     1       2.696   4.425  17.503  0.00  0.00    +0.000 OA
BRANCH  13  17
ATOM     16  C   UNL     1       5.406   4.420  15.214  0.00  0.00    +0.000 C 
ATOM     17  C   UNL     1       5.262   4.309  16.726  0.00  0.00    +0.000 C 
ENDBRANCH  13  17
BRANCH  13  18
ATOM     18  C   UNL     1       5.516   6.713  17.552  0.00  0.00    +0.000 C 
ATOM     19  C   UNL     1       7.025   6.559  17.654  0.00  0.00    +0.000 C 
ENDBRANCH  13  18
ENDBRANCH   1  14
BRANCH   9  20
ATOM     20  C   UNL     1      -1.799  11.925  21.342  0.00  0.00    +0.000 C 
BRANCH  20  21
ATOM     21  C   UNL     1      -2.611  12.802  22.291  0.00  0.00    +0.000 C 
BRANCH  21  22
ATOM     22  C   UNL     1      -4.079  12.711  21.956  0.00  0.00    +0.000 C 
ATOM     23  O   UNL     1      -4.563  12.941  20.857  0.00  0.00    +0.000 OA
BRANCH  22  24
ATOM     24  O   UNL     1      -4.786  12.338  23.058  0.00  0.00    +0.000 OA
ATOM     25  C   UNL     1      -4.158  12.678  24.296  0.00  0.00    +0.000 C 
ENDBRANCH  22  24
ENDBRANCH  21  22
ENDBRANCH  20  21
ENDBRANCH   9  20
TORSDOF 7
ENDMDL
MODEL 8
REMARK VINA RESULT:      -6.2      2.920      8.501
REMARK  Name = 
REMARK  10 active torsions:
REMARK  status: ('A' for Active; 'I' for Inactive)
REMARK    1  A    between atoms: C_1  and  C_2
REMARK    2  A    between atoms: C_2  and  N_3
REMARK    3  A    between atoms: N_3  and  C_4
REMARK    4  A    between atoms: C_4  and  C_5
REMARK    5  A    between atoms: C_6  and  C_8
REMARK    6  A    between atoms: C_16  and  C_18
REMARK    7  A    between atoms: C_18  and  C_19
REMARK    8  A    between atoms: C_19  and  C_20
REMARK    9  A    between atoms: C_20  and  O_22
REMARK   10  A    between atoms: O_22  and  C_23
REMARK                            x       y       z     vdW  Elec       q    Type
REMARK                         _______ _______ _______ _____ _____    ______ ____
ROOT
ATOM      1  C   UNL     1       1.477  10.024  18.938  0.00  0.00    +0.000 A 
ATOM      2  N   UNL     1       2.242   9.580  17.954  0.00  0.00    +0.000 NA
ATOM      3  C   UNL     1       2.573   8.243  18.146  0.00  0.00    +0.000 A 
ATOM      4  C   UNL     1       2.042   7.689  19.294  0.00  0.00    +0.000 A 
ATOM      5  S   UNL     1       1.095   8.839  20.127  0.00  0.00    +0.000 S 
ATOM      6  C   UNL     1       2.195   6.302  19.821  0.00  0.00    +0.000 C 
ATOM      7  C   UNL     1       2.118   5.266  18.699  0.00  0.00    +0.000 C 
ATOM      8  N   UNL     1       3.347   5.118  17.898  0.00  0.00    +0.000 N 
ATOM      9  C   UNL     1       3.731   3.898  17.329  0.00  0.00    +0.000 C 
ATOM     10  O   UNL     1       4.758   3.774  16.660  0.00  0.00    +0.000 OA
ATOM     11  C   UNL     1       4.180   6.313  17.641  0.00  0.00    +0.000 C 
ATOM     12  C   UNL     1       3.416   7.542  17.118  0.00  0.00    +0.000 C 
ENDROOT
BRANCH   1  14
ATOM     13  N   UNL     1      -0.408  11.679  18.706  0.00  0.00    +0.000 N 
ATOM     14  C   UNL     1       0.926  11.389  19.101  0.00  0.00    +0.000 C 
ATOM     15  O   UNL     1       1.607  12.299  19.585  0.00  0.00    +0.000 OA
BRANCH  13  17
ATOM     16  C   UNL     1      -1.826  13.102  20.191  0.00  0.00    +0.000 C 
ATOM     17  C   UNL     1      -0.904  13.033  18.982  0.00  0.00    +0.000 C 
ENDBRANCH  13  17
BRANCH  13  18
ATOM     18  C   UNL     1      -1.266  10.673  18.071  0.00  0.00    +0.000 C 
ATOM     19  C   UNL     1      -2.304  11.133  17.058  0.00  0.00    +0.000 C 
ENDBRANCH  13  18
ENDBRANCH   1  14
BRANCH   9  20
ATOM     20  C   UNL     1       2.813   2.712  17.574  0.00  0.00    +0.000 C 
BRANCH  20  21
ATOM     21  C   UNL     1       2.763   2.281  19.036  0.00  0.00    +0.000 C 
BRANCH  21  22
ATOM     22  C   UNL     1       1.339   2.287  19.532  0.00  0.00    +0.000 C 
ATOM     23  O   UNL     1       0.353   2.076  18.839  0.00  0.00    +0.000 OA
BRANCH  22  24
ATOM     24  O   UNL     1       1.310   2.563  20.865  0.00  0.00    +0.000 OA
ATOM     25  C   UNL     1       2.603   2.667  21.466  0.00  0.00    +0.000 C 
ENDBRANCH  22  24
ENDBRANCH  21  22
ENDBRANCH  20  21
ENDBRANCH   9  20
TORSDOF 7
ENDMDL
MODEL 9
REMARK VINA RESULT:      -6.1      1.063      1.393
REMARK  Name = 
REMARK  10 active torsions:
REMARK  status: ('A' for Active; 'I' for Inactive)
REMARK    1  A    between atoms: C_1  and  C_2
REMARK    2  A    between atoms: C_2  and  N_3
REMARK    3  A    between atoms: N_3  and  C_4
REMARK    4  A    between atoms: C_4  and  C_5
REMARK    5  A    between atoms: C_6  and  C_8
REMARK    6  A    between atoms: C_16  and  C_18
REMARK    7  A    between atoms: C_18  and  C_19
REMARK    8  A    between atoms: C_19  and  C_20
REMARK    9  A    between atoms: C_20  and  O_22
REMARK   10  A    between atoms: O_22  and  C_23
REMARK                            x       y       z     vdW  Elec       q    Type
REMARK                         _______ _______ _______ _____ _____    ______ ____
ROOT
ATOM      1  C   UNL     1       2.932   6.593  19.047  0.00  0.00    +0.000 A 
ATOM      2  N   UNL     1       2.177   6.945  20.077  0.00  0.00    +0.000 NA
ATOM      3  C   UNL     1       1.604   8.195  19.869  0.00  0.00    +0.000 A 
ATOM      4  C   UNL     1       1.941   8.778  18.664  0.00  0.00    +0.000 A 
ATOM      5  S   UNL     1       2.960   7.745  17.766  0.00  0.00    +0.000 S 
ATOM      6  C   UNL     1       1.527  10.103  18.119  0.00  0.00    +0.000 C 
ATOM      7  C   UNL     1       0.052  10.389  18.403  0.00  0.00    +0.000 C 
ATOM      8  N   UNL     1      -0.246  10.839  19.774  0.00  0.00    +0.000 N 
ATOM      9  C   UNL     1      -1.287  11.728  20.064  0.00  0.00    +0.000 C 
ATOM     10  O   UNL     1      -1.536  12.105  21.210  0.00  0.00    +0.000 OA
ATOM     11  C   UNL     1       0.551  10.293  20.894  0.00  0.00    +0.000 C 
ATOM     12  C   UNL     1       0.685   8.761  20.915  0.00  0.00    +0.000 C 
ENDROOT
BRANCH   1  14
ATOM     13  N   UNL     1       3.388   4.192  19.654  0.00  0.00    +0.000 N 
ATOM     14  C   UNL     1       3.714   5.347  18.891  0.00  0.00    +0.000 C 
ATOM     15  O   UNL     1       4.658   5.279  18.097  0.00  0.00    +0.000 OA
BRANCH  13  17
ATOM     16  C   UNL     1       4.335   2.082  20.599  0.00  0.00    +0.000 C 
ATOM     17  C   UNL     1       4.157   2.973  19.377  0.00  0.00    +0.000 C 
ENDBRANCH  13  17
BRANCH  13  18
ATOM     18  C   UNL     1       2.320   4.201  20.660  0.00  0.00    +0.000 C 
ATOM     19  C   UNL     1       0.969   3.606  20.295  0.00  0.00    +0.000 C 
ENDBRANCH  13  18
ENDBRANCH   1  14
BRANCH   9  20
ATOM     20  C   UNL     1      -2.114  12.217  18.887  0.00  0.00    +0.000 C 
BRANCH  20  21
ATOM     21  C   UNL     1      -3.489  11.562  18.802  0.00  0.00    +0.000 C 
BRANCH  21  22
ATOM     22  C   UNL     1      -3.553  10.636  17.614  0.00  0.00    +0.000 C 
ATOM     23  O   UNL     1      -3.336   9.433  17.649  0.00  0.00    +0.000 OA
BRANCH  22  24
ATOM     24  O   UNL     1      -3.885  11.336  16.494  0.00  0.00    +0.000 OA
ATOM     25  C   UNL     1      -3.269  10.850  15.299  0.00  0.00    +0.000 C 
ENDBRANCH  22  24
ENDBRANCH  21  22
ENDBRANCH  20  21
ENDBRANCH   9  20
TORSDOF 7
ENDMDL
