MODEL 1
REMARK VINA RESULT:      -8.0      0.000      0.000
REMARK  Name = 
REMARK  6 active torsions:
REMARK  status: ('A' for Active; 'I' for Inactive)
REMARK    1  A    between atoms: N_1  and  S_2
REMARK    2  A    between atoms: S_2  and  C_5
REMARK    3  A    between atoms: C_7  and  S_8
REMARK    4  A    between atoms: C_12  and  N_13
REMARK    5  A    between atoms: N_13  and  C_14
REMARK    6  A    between atoms: C_14  and  C_15
REMARK                            x       y       z     vdW  Elec       q    Type
REMARK                         _______ _______ _______ _____ _____    ______ ____
ROOT
ATOM      1  C   UNL     1       5.630   5.291  17.056  0.00  0.00    +0.000 A 
ATOM      2  C   UNL     1       4.594   4.419  17.380  0.00  0.00    +0.000 A 
ATOM      3  C   UNL     1       3.405   4.896  17.963  0.00  0.00    +0.000 A 
ATOM      4  C   UNL     1       3.253   6.237  18.343  0.00  0.00    +0.000 A 
ATOM      5  C   UNL     1       4.335   7.084  18.042  0.00  0.00    +0.000 A 
ATOM      6  C   UNL     1       5.506   6.630  17.400  0.00  0.00    +0.000 A 
ATOM      7 CL   UNL     1       6.739   7.798  17.096  0.00  0.00    +0.000 Cl
ENDROOT
BRANCH   3   8
ATOM      8  S   UNL     1       2.067   3.676  17.941  0.00  0.00    +0.000 S 
ATOM      9  O   UNL     1       1.806   3.579  19.388  0.00  0.00    +0.000 OA
ATOM     10  O   UNL     1       1.016   4.406  17.236  0.00  0.00    +0.000 OA
ATOM     11  O   UNL     1       2.618   2.500  17.299  0.00  0.00    +0.000 OA
ENDBRANCH   3   8
BRANCH   1  12
ATOM     12  S   UNL     1       6.989   4.646  16.151  0.00  0.00    +0.000 S 
ATOM     13  O   UNL     1       7.968   4.191  17.123  0.00  0.00    +0.000 OA
ATOM     14  O   UNL     1       7.343   5.515  15.048  0.00  0.00    +0.000 OA
BRANCH  12  15
ATOM     15  N   UNL     1       6.415   3.215  15.498  0.00  0.00    +0.000 NA
ATOM     16  H   UNL     1       7.042   2.450  15.759  0.00  0.00    +0.000 HD
ATOM     17  H   UNL     1       6.341   3.316  14.485  0.00  0.00    +0.000 HD
ENDBRANCH  12  15
ENDBRANCH   1  12
BRANCH   4  18
ATOM     18  N   UNL     1       2.141   6.719  19.014  0.00  0.00    +0.000 N 
ATOM     19  H   UNL     1       1.429   7.158  18.410  0.00  0.00    +0.000 HD
BRANCH  18  20
ATOM     20  C   UNL     1       2.133   7.180  20.394  0.00  0.00    +0.000 C 
BRANCH  20  21
ATOM     21  C   UNL     1       1.308   8.439  20.575  0.00  0.00    +0.000 A 
ATOM     22  C   UNL     1       0.967   9.271  19.480  0.00  0.00    +0.000 A 
ATOM     23  C   UNL     1       0.238  10.450  19.664  0.00  0.00    +0.000 A 
ATOM     24  C   UNL     1      -0.129  10.785  20.947  0.00  0.00    +0.000 A 
ATOM     25  C   UNL     1       0.195   9.990  22.020  0.00  0.00    +0.000 A 
ATOM     26  C   UNL     1       0.912   8.821  21.870  0.00  0.00    +0.000 A 
ATOM     27  O   UNL     1      -0.267  10.494  23.197  0.00  0.00    +0.000 OA
ATOM     28  C   UNL     1      -0.863  11.728  22.745  0.00  0.00    +0.000 C 
ATOM     29  O   UNL     1      -0.827  11.892  21.313  0.00  0.00    +0.000 OA
ENDBRANCH  20  21
ENDBRANCH  18  20
ENDBRANCH   4  18
TORSDOF 6
ENDMDL
MODEL 2
REMARK VINA RESULT:      -7.9      0.708      1.219
REMARK  Name = 
REMARK  6 active torsions:
REMARK  status: ('A' for Active; 'I' for Inactive)
REMARK    1  A    between atoms: N_1  and  S_2
REMARK    2  A    between atoms: S_2  and  C_5
REMARK    3  A    between atoms: C_7  and  S_8
REMARK    4  A    between atoms: C_12  and  N_13
REMARK    5  A    between atoms: N_13  and  C_14
REMARK    6  A    between atoms: C_14  and  C_15
REMARK                            x       y       z     vdW  Elec       q    Type
REMARK                         _______ _______ _______ _____ _____    ______ ____
ROOT
ATOM      1  C   UNL     1       5.506   5.110  17.126  0.00  0.00    +0.000 A 
ATOM      2  C   UNL     1       4.438   4.281  17.457  0.00  0.00    +0.000 A 
ATOM      3  C   UNL     1       3.272   4.806  18.045  0.00  0.00    +0.000 A 
ATOM      4  C   UNL     1       3.175   6.152  18.424  0.00  0.00    +0.000 A 
ATOM      5  C   UNL     1       4.290   6.954  18.117  0.00  0.00    +0.000 A 
ATOM      6  C   UNL     1       5.438   6.453  17.469  0.00  0.00    +0.000 A 
ATOM      7 CL   UNL     1       6.715   7.570  17.157  0.00  0.00    +0.000 Cl
ENDROOT
BRANCH   3   8
ATOM      8  S   UNL     1       1.885   3.640  18.031  0.00  0.00    +0.000 S 
ATOM      9  O   UNL     1       0.985   4.348  17.104  0.00  0.00    +0.000 OA
ATOM     10  O   UNL     1       2.497   2.464  17.420  0.00  0.00    +0.000 OA
ATOM     11  O   UNL     1       1.448   3.533  19.409  0.00  0.00    +0.000 OA
ENDBRANCH   3   8
BRANCH   1  12
ATOM     12  S   UNL     1       6.833   4.409  16.215  0.00  0.00    +0.000 S 
ATOM     13  O   UNL     1       6.280   3.321  15.430  0.00  0.00    +0.000 OA
ATOM     14  O   UNL     1       8.008   4.243  17.047  0.00  0.00    +0.000 OA
BRANCH  12  15
ATOM     15  N   UNL     1       7.199   5.561  15.056  0.00  0.00    +0.000 NA
ATOM     16  H   UNL     1       8.065   5.296  14.580  0.00  0.00    +0.000 HD
ATOM     17  H   UNL     1       7.277   6.475  15.506  0.00  0.00    +0.000 HD
ENDBRANCH  12  15
ENDBRANCH   1  12
BRANCH   4  18
ATOM     18  N   UNL     1       2.087   6.679  19.099  0.00  0.00    +0.000 N 
ATOM     19  H   UNL     1       1.378   7.123  18.497  0.00  0.00    +0.000 HD
BRANCH  18  20
ATOM     20  C   UNL     1       2.113   7.172  20.469  0.00  0.00    +0.000 C 
BRANCH  20  21
ATOM     21  C   UNL     1       1.292   8.434  20.640  0.00  0.00    +0.000 A 
ATOM     22  C   UNL     1       0.969   9.269  19.543  0.00  0.00    +0.000 A 
ATOM     23  C   UNL     1       0.243  10.452  19.718  0.00  0.00    +0.000 A 
ATOM     24  C   UNL     1      -0.140  10.786  20.998  0.00  0.00    +0.000 A 
ATOM     25  C   UNL     1       0.166   9.988  22.073  0.00  0.00    +0.000 A 
ATOM     26  C   UNL     1       0.880   8.817  21.931  0.00  0.00    +0.000 A 
ATOM     27  O   UNL     1      -0.309  10.492  23.245  0.00  0.00    +0.000 OA
ATOM     28  C   UNL     1      -0.894  11.730  22.787  0.00  0.00    +0.000 C 
ATOM     29  O   UNL     1      -0.838  11.896  21.356  0.00  0.00    +0.000 OA
ENDBRANCH  20  21
ENDBRANCH  18  20
ENDBRANCH   4  18
TORSDOF 6
ENDMDL
MODEL 3
REMARK VINA RESULT:      -7.8      0.454      1.508
REMARK  Name = 
REMARK  6 active torsions:
REMARK  status: ('A' for Active; 'I' for Inactive)
REMARK    1  A    between atoms: N_1  and  S_2
REMARK    2  A    between atoms: S_2  and  C_5
REMARK    3  A    between atoms: C_7  and  S_8
REMARK    4  A    between atoms: C_12  and  N_13
REMARK    5  A    between atoms: N_13  and  C_14
REMARK    6  A    between atoms: C_14  and  C_15
REMARK                            x       y       z     vdW  Elec       q    Type
REMARK                         _______ _______ _______ _____ _____    ______ ____
ROOT
ATOM      1  C   UNL     1       5.681   5.350  17.030  0.00  0.00    +0.000 A 
ATOM      2  C   UNL     1       4.590   4.550  17.360  0.00  0.00    +0.000 A 
ATOM      3  C   UNL     1       3.434   5.108  17.939  0.00  0.00    +0.000 A 
ATOM      4  C   UNL     1       3.371   6.458  18.310  0.00  0.00    +0.000 A 
ATOM      5  C   UNL     1       4.507   7.230  18.005  0.00  0.00    +0.000 A 
ATOM      6  C   UNL     1       5.645   6.696  17.366  0.00  0.00    +0.000 A 
ATOM      7 CL   UNL     1       6.952   7.778  17.055  0.00  0.00    +0.000 Cl
ENDROOT
BRANCH   3   8
ATOM      8  S   UNL     1       2.019   3.978  17.924  0.00  0.00    +0.000 S 
ATOM      9  O   UNL     1       2.668   2.786  17.352  0.00  0.00    +0.000 OA
ATOM     10  O   UNL     1       1.747   3.830  19.351  0.00  0.00    +0.000 OA
ATOM     11  O   UNL     1       1.009   4.624  17.109  0.00  0.00    +0.000 OA
ENDBRANCH   3   8
BRANCH   1  12
ATOM     12  S   UNL     1       6.994   4.610  16.130  0.00  0.00    +0.000 S 
ATOM     13  O   UNL     1       7.986   4.184  17.101  0.00  0.00    +0.000 OA
ATOM     14  O   UNL     1       7.342   5.402  14.968  0.00  0.00    +0.000 OA
BRANCH  12  15
ATOM     15  N   UNL     1       6.361   3.162  15.580  0.00  0.00    +0.000 NA
ATOM     16  H   UNL     1       5.372   3.292  15.350  0.00  0.00    +0.000 HD
ATOM     17  H   UNL     1       6.493   2.446  16.296  0.00  0.00    +0.000 HD
ENDBRANCH  12  15
ENDBRANCH   1  12
BRANCH   4  18
ATOM     18  N   UNL     1       2.293   7.016  18.977  0.00  0.00    +0.000 N 
ATOM     19  H   UNL     1       1.607   6.335  19.336  0.00  0.00    +0.000 HD
BRANCH  18  20
ATOM     20  C   UNL     1       1.754   8.345  18.728  0.00  0.00    +0.000 C 
BRANCH  20  21
ATOM     21  C   UNL     1       1.206   8.988  19.987  0.00  0.00    +0.000 A 
ATOM     22  C   UNL     1       1.343   8.377  21.257  0.00  0.00    +0.000 A 
ATOM     23  C   UNL     1       0.802   8.961  22.407  0.00  0.00    +0.000 A 
ATOM     24  C   UNL     1       0.119  10.148  22.263  0.00  0.00    +0.000 A 
ATOM     25  C   UNL     1      -0.024  10.753  21.038  0.00  0.00    +0.000 A 
ATOM     26  C   UNL     1       0.499  10.201  19.888  0.00  0.00    +0.000 A 
ATOM     27  O   UNL     1      -0.723  11.918  21.114  0.00  0.00    +0.000 OA
ATOM     28  C   UNL     1      -1.057  11.940  22.518  0.00  0.00    +0.000 C 
ATOM     29  O   UNL     1      -0.479  10.849  23.263  0.00  0.00    +0.000 OA
ENDBRANCH  20  21
ENDBRANCH  18  20
ENDBRANCH   4  18
TORSDOF 6
ENDMDL
MODEL 4
REMARK VINA RESULT:      -7.8      0.846      1.522
REMARK  Name = 
REMARK  6 active torsions:
REMARK  status: ('A' for Active; 'I' for Inactive)
REMARK    1  A    between atoms: N_1  and  S_2
REMARK    2  A    between atoms: S_2  and  C_5
REMARK    3  A    between atoms: C_7  and  S_8
REMARK    4  A    between atoms: C_12  and  N_13
REMARK    5  A    between atoms: N_13  and  C_14
REMARK    6  A    between atoms: C_14  and  C_15
REMARK                            x       y       z     vdW  Elec       q    Type
REMARK                         _______ _______ _______ _____ _____    ______ ____
ROOT
ATOM      1  C   UNL     1       5.589   5.185  17.041  0.00  0.00    +0.000 A 
ATOM      2  C   UNL     1       4.458   4.433  17.342  0.00  0.00    +0.000 A 
ATOM      3  C   UNL     1       3.326   5.034  17.925  0.00  0.00    +0.000 A 
ATOM      4  C   UNL     1       3.325   6.377  18.327  0.00  0.00    +0.000 A 
ATOM      5  C   UNL     1       4.500   7.099  18.048  0.00  0.00    +0.000 A 
ATOM      6  C   UNL     1       5.617   6.524  17.407  0.00  0.00    +0.000 A 
ATOM      7 CL   UNL     1       6.978   7.548  17.131  0.00  0.00    +0.000 Cl
ENDROOT
BRANCH   3   8
ATOM      8  S   UNL     1       1.857   3.976  17.872  0.00  0.00    +0.000 S 
ATOM      9  O   UNL     1       1.520   3.960  19.307  0.00  0.00    +0.000 OA
ATOM     10  O   UNL     1       0.932   4.796  17.095  0.00  0.00    +0.000 OA
ATOM     11  O   UNL     1       2.296   2.722  17.293  0.00  0.00    +0.000 OA
ENDBRANCH   3   8
BRANCH   1  12
ATOM     12  S   UNL     1       6.874   4.403  16.135  0.00  0.00    +0.000 S 
ATOM     13  O   UNL     1       6.265   3.316  15.390  0.00  0.00    +0.000 OA
ATOM     14  O   UNL     1       8.052   4.212  16.956  0.00  0.00    +0.000 OA
BRANCH  12  15
ATOM     15  N   UNL     1       7.271   5.504  14.937  0.00  0.00    +0.000 NA
ATOM     16  H   UNL     1       6.867   5.195  14.049  0.00  0.00    +0.000 HD
ATOM     17  H   UNL     1       8.287   5.587  14.883  0.00  0.00    +0.000 HD
ENDBRANCH  12  15
ENDBRANCH   1  12
BRANCH   4  18
ATOM     18  N   UNL     1       2.269   6.972  18.997  0.00  0.00    +0.000 N 
ATOM     19  H   UNL     1       1.580   6.313  19.390  0.00  0.00    +0.000 HD
BRANCH  18  20
ATOM     20  C   UNL     1       1.746   8.301  18.719  0.00  0.00    +0.000 C 
BRANCH  20  21
ATOM     21  C   UNL     1       1.196   8.974  19.961  0.00  0.00    +0.000 A 
ATOM     22  C   UNL     1       1.135   8.304  21.207  0.00  0.00    +0.000 A 
ATOM     23  C   UNL     1       0.591   8.921  22.339  0.00  0.00    +0.000 A 
ATOM     24  C   UNL     1       0.103  10.201  22.199  0.00  0.00    +0.000 A 
ATOM     25  C   UNL     1       0.153  10.864  20.997  0.00  0.00    +0.000 A 
ATOM     26  C   UNL     1       0.684  10.281  19.865  0.00  0.00    +0.000 A 
ATOM     27  O   UNL     1      -0.373  12.117  21.074  0.00  0.00    +0.000 OA
ATOM     28  C   UNL     1      -0.815  12.139  22.448  0.00  0.00    +0.000 C 
ATOM     29  O   UNL     1      -0.467  10.947  23.182  0.00  0.00    +0.000 OA
ENDBRANCH  20  21
ENDBRANCH  18  20
ENDBRANCH   4  18
TORSDOF 6
ENDMDL
MODEL 5
REMARK VINA RESULT:      -7.8      0.689      1.447
REMARK  Name = 
REMARK  6 active torsions:
REMARK  status: ('A' for Active; 'I' for Inactive)
REMARK    1  A    between atoms: N_1  and  S_2
REMARK    2  A    between atoms: S_2  and  C_5
REMARK    3  A    between atoms: C_7  and  S_8
REMARK    4  A    between atoms: C_12  and  N_13
REMARK    5  A    between atoms: N_13  and  C_14
REMARK    6  A    between atoms: C_14  and  C_15
REMARK                            x       y       z     vdW  Elec       q    Type
REMARK                         _______ _______ _______ _____ _____    ______ ____
ROOT
ATOM      1  C   UNL     1       5.615   5.269  17.059  0.00  0.00    +0.000 A 
ATOM      2  C   UNL     1       4.584   4.387  17.375  0.00  0.00    +0.000 A 
ATOM      3  C   UNL     1       3.388   4.853  17.953  0.00  0.00    +0.000 A 
ATOM      4  C   UNL     1       3.223   6.192  18.336  0.00  0.00    +0.000 A 
ATOM      5  C   UNL     1       4.300   7.048  18.043  0.00  0.00    +0.000 A 
ATOM      6  C   UNL     1       5.478   6.606  17.406  0.00  0.00    +0.000 A 
ATOM      7 CL   UNL     1       6.703   7.785  17.112  0.00  0.00    +0.000 Cl
ENDROOT
BRANCH   3   8
ATOM      8  S   UNL     1       2.060   3.622  17.920  0.00  0.00    +0.000 S 
ATOM      9  O   UNL     1       1.750   3.564  19.360  0.00  0.00    +0.000 OA
ATOM     10  O   UNL     1       1.029   4.323  17.159  0.00  0.00    +0.000 OA
ATOM     11  O   UNL     1       2.641   2.433  17.331  0.00  0.00    +0.000 OA
ENDBRANCH   3   8
BRANCH   1  12
ATOM     12  S   UNL     1       6.984   4.637  16.160  0.00  0.00    +0.000 S 
ATOM     13  O   UNL     1       7.969   4.207  17.135  0.00  0.00    +0.000 OA
ATOM     14  O   UNL     1       7.324   5.502  15.048  0.00  0.00    +0.000 OA
BRANCH  12  15
ATOM     15  N   UNL     1       6.433   3.192  15.520  0.00  0.00    +0.000 NA
ATOM     16  H   UNL     1       6.807   2.415  16.071  0.00  0.00    +0.000 HD
ATOM     17  H   UNL     1       6.713   3.132  14.540  0.00  0.00    +0.000 HD
ENDBRANCH  12  15
ENDBRANCH   1  12
BRANCH   4  18
ATOM     18  N   UNL     1       2.104   6.662  19.002  0.00  0.00    +0.000 N 
ATOM     19  H   UNL     1       1.424   7.160  18.406  0.00  0.00    +0.000 HD
BRANCH  18  20
ATOM     20  C   UNL     1       2.064   7.035  20.408  0.00  0.00    +0.000 C 
BRANCH  20  21
ATOM     21  C   UNL     1       1.374   8.367  20.630  0.00  0.00    +0.000 A 
ATOM     22  C   UNL     1       0.897   8.756  21.905  0.00  0.00    +0.000 A 
ATOM     23  C   UNL     1       0.229   9.971  22.091  0.00  0.00    +0.000 A 
ATOM     24  C   UNL     1       0.038  10.774  20.989  0.00  0.00    +0.000 A 
ATOM     25  C   UNL     1       0.493  10.410  19.745  0.00  0.00    +0.000 A 
ATOM     26  C   UNL     1       1.156   9.220  19.532  0.00  0.00    +0.000 A 
ATOM     27  O   UNL     1       0.211  11.345  18.797  0.00  0.00    +0.000 OA
ATOM     28  C   UNL     1      -0.530  12.306  19.578  0.00  0.00    +0.000 C 
ATOM     29  O   UNL     1      -0.596  11.977  20.980  0.00  0.00    +0.000 OA
ENDBRANCH  20  21
ENDBRANCH  18  20
ENDBRANCH   4  18
TORSDOF 6
ENDMDL
MODEL 6
REMARK VINA RESULT:      -7.7      4.176      6.752
REMARK  Name = 
REMARK  6 active torsions:
REMARK  status: ('A' for Active; 'I' for Inactive)
REMARK    1  A    between atoms: N_1  and  S_2
REMARK    2  A    between atoms: S_2  and  C_5
REMARK    3  A    between atoms: C_7  and  S_8
REMARK    4  A    between atoms: C_12  and  N_13
REMARK    5  A    between atoms: N_13  and  C_14
REMARK    6  A    between atoms: C_14  and  C_15
REMARK                            x       y       z     vdW  Elec       q    Type
REMARK                         _______ _______ _______ _____ _____    ______ ____
ROOT
ATOM      1  C   UNL     1       3.467   5.110  17.708  0.00  0.00    +0.000 A 
ATOM      2  C   UNL     1       4.484   4.715  16.843  0.00  0.00    +0.000 A 
ATOM      3  C   UNL     1       5.635   5.509  16.672  0.00  0.00    +0.000 A 
ATOM      4  C   UNL     1       5.759   6.771  17.269  0.00  0.00    +0.000 A 
ATOM      5  C   UNL     1       4.694   7.160  18.102  0.00  0.00    +0.000 A 
ATOM      6  C   UNL     1       3.566   6.346  18.332  0.00  0.00    +0.000 A 
ATOM      7 CL   UNL     1       2.350   6.968  19.387  0.00  0.00    +0.000 Cl
ENDROOT
BRANCH   3   8
ATOM      8  S   UNL     1       6.976   4.637  15.822  0.00  0.00    +0.000 S 
ATOM      9  O   UNL     1       7.860   4.377  16.971  0.00  0.00    +0.000 OA
ATOM     10  O   UNL     1       6.295   3.429  15.362  0.00  0.00    +0.000 OA
ATOM     11  O   UNL     1       7.468   5.557  14.817  0.00  0.00    +0.000 OA
ENDBRANCH   3   8
BRANCH   1  12
ATOM     12  S   UNL     1       2.168   3.971  18.016  0.00  0.00    +0.000 S 
ATOM     13  O   UNL     1       1.059   4.352  17.159  0.00  0.00    +0.000 OA
ATOM     14  O   UNL     1       2.002   3.738  19.436  0.00  0.00    +0.000 OA
BRANCH  12  15
ATOM     15  N   UNL     1       2.697   2.538  17.331  0.00  0.00    +0.000 NA
ATOM     16  H   UNL     1       2.010   2.220  16.642  0.00  0.00    +0.000 HD
ATOM     17  H   UNL     1       2.840   1.848  18.070  0.00  0.00    +0.000 HD
ENDBRANCH  12  15
ENDBRANCH   1  12
BRANCH   4  18
ATOM     18  N   UNL     1       6.827   7.622  17.038  0.00  0.00    +0.000 N 
ATOM     19  H   UNL     1       6.988   7.854  16.047  0.00  0.00    +0.000 HD
BRANCH  18  20
ATOM     20  C   UNL     1       8.006   7.732  17.885  0.00  0.00    +0.000 C 
BRANCH  20  21
ATOM     21  C   UNL     1       8.381   9.174  18.164  0.00  0.00    +0.000 A 
ATOM     22  C   UNL     1       9.258   9.525  19.219  0.00  0.00    +0.000 A 
ATOM     23  C   UNL     1       9.567  10.862  19.491  0.00  0.00    +0.000 A 
ATOM     24  C   UNL     1       8.981  11.829  18.707  0.00  0.00    +0.000 A 
ATOM     25  C   UNL     1       8.127  11.505  17.680  0.00  0.00    +0.000 A 
ATOM     26  C   UNL     1       7.804  10.197  17.388  0.00  0.00    +0.000 A 
ATOM     27  O   UNL     1       7.664  12.604  17.024  0.00  0.00    +0.000 OA
ATOM     28  C   UNL     1       8.277  13.657  17.799  0.00  0.00    +0.000 C 
ATOM     29  O   UNL     1       9.157  13.172  18.832  0.00  0.00    +0.000 OA
ENDBRANCH  20  21
ENDBRANCH  18  20
ENDBRANCH   4  18
TORSDOF 6
ENDMDL
MODEL 7
REMARK VINA RESULT:      -7.7      4.262      6.767
REMARK  Name = 
REMARK  6 active torsions:
REMARK  status: ('A' for Active; 'I' for Inactive)
REMARK    1  A    between atoms: N_1  and  S_2
REMARK    2  A    between atoms: S_2  and  C_5
REMARK    3  A    between atoms: C_7  and  S_8
REMARK    4  A    between atoms: C_12  and  N_13
REMARK    5  A    between atoms: N_13  and  C_14
REMARK    6  A    between atoms: C_14  and  C_15
REMARK                            x       y       z     vdW  Elec       q    Type
REMARK                         _______ _______ _______ _____ _____    ______ ____
ROOT
ATOM      1  C   UNL     1       3.516   4.916  17.577  0.00  0.00    +0.000 A 
ATOM      2  C   UNL     1       4.584   4.576  16.752  0.00  0.00    +0.000 A 
ATOM      3  C   UNL     1       5.697   5.429  16.625  0.00  0.00    +0.000 A 
ATOM      4  C   UNL     1       5.732   6.695  17.225  0.00  0.00    +0.000 A 
ATOM      5  C   UNL     1       4.617   7.027  18.016  0.00  0.00    +0.000 A 
ATOM      6  C   UNL     1       3.525   6.155  18.203  0.00  0.00    +0.000 A 
ATOM      7 CL   UNL     1       2.238   6.710  19.210  0.00  0.00    +0.000 Cl
ENDROOT
BRANCH   3   8
ATOM      8  S   UNL     1       7.114   4.630  15.828  0.00  0.00    +0.000 S 
ATOM      9  O   UNL     1       6.410   3.556  15.106  0.00  0.00    +0.000 OA
ATOM     10  O   UNL     1       7.581   5.686  14.933  0.00  0.00    +0.000 OA
ATOM     11  O   UNL     1       7.993   4.222  16.905  0.00  0.00    +0.000 OA
ENDBRANCH   3   8
BRANCH   1  12
ATOM     12  S   UNL     1       2.267   3.710  17.836  0.00  0.00    +0.000 S 
ATOM     13  O   UNL     1       2.823   2.431  17.431  0.00  0.00    +0.000 OA
ATOM     14  O   UNL     1       0.981   4.178  17.360  0.00  0.00    +0.000 OA
BRANCH  12  15
ATOM     15  N   UNL     1       2.163   3.565  19.500  0.00  0.00    +0.000 NA
ATOM     16  H   UNL     1       2.232   4.494  19.924  0.00  0.00    +0.000 HD
ATOM     17  H   UNL     1       2.904   2.943  19.829  0.00  0.00    +0.000 HD
ENDBRANCH  12  15
ENDBRANCH   1  12
BRANCH   4  18
ATOM     18  N   UNL     1       6.762   7.602  17.035  0.00  0.00    +0.000 N 
ATOM     19  H   UNL     1       6.864   7.942  16.067  0.00  0.00    +0.000 HD
BRANCH  18  20
ATOM     20  C   UNL     1       7.979   7.662  17.830  0.00  0.00    +0.000 C 
BRANCH  20  21
ATOM     21  C   UNL     1       8.381   9.086  18.160  0.00  0.00    +0.000 A 
ATOM     22  C   UNL     1       9.234   9.388  19.248  0.00  0.00    +0.000 A 
ATOM     23  C   UNL     1       9.568  10.708  19.566  0.00  0.00    +0.000 A 
ATOM     24  C   UNL     1       9.029  11.710  18.791  0.00  0.00    +0.000 A 
ATOM     25  C   UNL     1       8.199  11.435  17.732  0.00  0.00    +0.000 A 
ATOM     26  C   UNL     1       7.852  10.144  17.395  0.00  0.00    +0.000 A 
ATOM     27  O   UNL     1       7.782  12.563  17.093  0.00  0.00    +0.000 OA
ATOM     28  C   UNL     1       8.398  13.579  17.914  0.00  0.00    +0.000 C 
ATOM     29  O   UNL     1       9.234  13.044  18.959  0.00  0.00    +0.000 OA
ENDBRANCH  20  21
ENDBRANCH  18  20
ENDBRANCH   4  18
TORSDOF 6
ENDMDL
MODEL 8
REMARK VINA RESULT:      -7.7      0.881      1.084
REMARK  Name = 
REMARK  6 active torsions:
REMARK  status: ('A' for Active; 'I' for Inactive)
REMARK    1  A    between atoms: N_1  and  S_2
REMARK    2  A    between atoms: S_2  and  C_5
REMARK    3  A    between atoms: C_7  and  S_8
REMARK    4  A    between atoms: C_12  and  N_13
REMARK    5  A    between atoms: N_13  and  C_14
REMARK    6  A    between atoms: C_14  and  C_15
REMARK                            x       y       z     vdW  Elec       q    Type
REMARK                         _______ _______ _______ _____ _____    ______ ____
ROOT
ATOM      1  C   UNL     1       5.479   5.122  17.015  0.00  0.00    +0.000 A 
ATOM      2  C   UNL     1       4.479   4.198  17.306  0.00  0.00    +0.000 A 
ATOM      3  C   UNL     1       3.338   4.576  18.039  0.00  0.00    +0.000 A 
ATOM      4  C   UNL     1       3.208   5.855  18.599  0.00  0.00    +0.000 A 
ATOM      5  C   UNL     1       4.257   6.751  18.324  0.00  0.00    +0.000 A 
ATOM      6  C   UNL     1       5.375   6.404  17.538  0.00  0.00    +0.000 A 
ATOM      7 CL   UNL     1       6.571   7.622  17.289  0.00  0.00    +0.000 Cl
ENDROOT
BRANCH   3   8
ATOM      8  S   UNL     1       2.010   3.346  17.967  0.00  0.00    +0.000 S 
ATOM      9  O   UNL     1       1.710   3.232  19.405  0.00  0.00    +0.000 OA
ATOM     10  O   UNL     1       0.974   4.075  17.240  0.00  0.00    +0.000 OA
ATOM     11  O   UNL     1       2.588   2.181  17.329  0.00  0.00    +0.000 OA
ENDBRANCH   3   8
BRANCH   1  12
ATOM     12  S   UNL     1       6.764   4.621  15.929  0.00  0.00    +0.000 S 
ATOM     13  O   UNL     1       7.914   4.298  16.754  0.00  0.00    +0.000 OA
ATOM     14  O   UNL     1       6.858   5.506  14.786  0.00  0.00    +0.000 OA
BRANCH  12  15
ATOM     15  N   UNL     1       6.274   3.123  15.364  0.00  0.00    +0.000 NA
ATOM     16  H   UNL     1       6.573   2.400  16.023  0.00  0.00    +0.000 HD
ATOM     17  H   UNL     1       6.664   2.973  14.432  0.00  0.00    +0.000 HD
ENDBRANCH  12  15
ENDBRANCH   1  12
BRANCH   4  18
ATOM     18  N   UNL     1       2.152   6.228  19.413  0.00  0.00    +0.000 N 
ATOM     19  H   UNL     1       1.217   6.026  19.027  0.00  0.00    +0.000 HD
BRANCH  18  20
ATOM     20  C   UNL     1       2.185   7.314  20.380  0.00  0.00    +0.000 C 
BRANCH  20  21
ATOM     21  C   UNL     1       1.377   8.514  19.926  0.00  0.00    +0.000 A 
ATOM     22  C   UNL     1       1.468   9.016  18.605  0.00  0.00    +0.000 A 
ATOM     23  C   UNL     1       0.747  10.147  18.207  0.00  0.00    +0.000 A 
ATOM     24  C   UNL     1      -0.048  10.765  19.146  0.00  0.00    +0.000 A 
ATOM     25  C   UNL     1      -0.145  10.291  20.432  0.00  0.00    +0.000 A 
ATOM     26  C   UNL     1       0.553   9.179  20.853  0.00  0.00    +0.000 A 
ATOM     27  O   UNL     1      -0.986  11.039  21.198  0.00  0.00    +0.000 OA
ATOM     28  C   UNL     1      -1.355  12.073  20.260  0.00  0.00    +0.000 C 
ATOM     29  O   UNL     1      -0.807  11.874  18.942  0.00  0.00    +0.000 OA
ENDBRANCH  20  21
ENDBRANCH  18  20
ENDBRANCH   4  18
TORSDOF 6
ENDMDL
MODEL 9
REMARK VINA RESULT:      -7.6      0.969      1.866
REMARK  Name = 
REMARK  6 active torsions:
REMARK  status: ('A' for Active; 'I' for Inactive)
REMARK    1  A    between atoms: N_1  and  S_2
REMARK    2  A    between atoms: S_2  and  C_5
REMARK    3  A    between atoms: C_7  and  S_8
REMARK    4  A    between atoms: C_12  and  N_13
REMARK    5  A    between atoms: N_13  and  C_14
REMARK    6  A    between atoms: C_14  and  C_15
REMARK                            x       y       z     vdW  Elec       q    Type
REMARK                         _______ _______ _______ _____ _____    ______ ____
ROOT
ATOM      1  C   UNL     1       5.496   5.132  17.082  0.00  0.00    +0.000 A 
ATOM      2  C   UNL     1       4.406   4.322  17.387  0.00  0.00    +0.000 A 
ATOM      3  C   UNL     1       3.238   4.866  17.954  0.00  0.00    +0.000 A 
ATOM      4  C   UNL     1       3.159   6.212  18.339  0.00  0.00    +0.000 A 
ATOM      5  C   UNL     1       4.294   6.994  18.058  0.00  0.00    +0.000 A 
ATOM      6  C   UNL     1       5.446   6.475  17.431  0.00  0.00    +0.000 A 
ATOM      7 CL   UNL     1       6.750   7.569  17.151  0.00  0.00    +0.000 Cl
ENDROOT
BRANCH   3   8
ATOM      8  S   UNL     1       1.830   3.727  17.906  0.00  0.00    +0.000 S 
ATOM      9  O   UNL     1       0.919   4.506  17.050  0.00  0.00    +0.000 OA
ATOM     10  O   UNL     1       2.405   2.580  17.207  0.00  0.00    +0.000 OA
ATOM     11  O   UNL     1       1.427   3.541  19.286  0.00  0.00    +0.000 OA
ENDBRANCH   3   8
BRANCH   1  12
ATOM     12  S   UNL     1       6.828   4.412  16.195  0.00  0.00    +0.000 S 
ATOM     13  O   UNL     1       6.276   3.315  15.419  0.00  0.00    +0.000 OA
ATOM     14  O   UNL     1       7.993   4.250  17.040  0.00  0.00    +0.000 OA
BRANCH  12  15
ATOM     15  N   UNL     1       7.211   5.545  15.023  0.00  0.00    +0.000 NA
ATOM     16  H   UNL     1       7.921   5.155  14.397  0.00  0.00    +0.000 HD
ATOM     17  H   UNL     1       7.535   6.400  15.479  0.00  0.00    +0.000 HD
ENDBRANCH  12  15
ENDBRANCH   1  12
BRANCH   4  18
ATOM     18  N   UNL     1       2.067   6.755  18.995  0.00  0.00    +0.000 N 
ATOM     19  H   UNL     1       1.445   7.323  18.400  0.00  0.00    +0.000 HD
BRANCH  18  20
ATOM     20  C   UNL     1       2.026   7.092  20.410  0.00  0.00    +0.000 C 
BRANCH  20  21
ATOM     21  C   UNL     1       1.327   8.412  20.666  0.00  0.00    +0.000 A 
ATOM     22  C   UNL     1       0.871   8.776  21.957  0.00  0.00    +0.000 A 
ATOM     23  C   UNL     1       0.193   9.980  22.175  0.00  0.00    +0.000 A 
ATOM     24  C   UNL     1      -0.029  10.798  21.090  0.00  0.00    +0.000 A 
ATOM     25  C   UNL     1       0.406  10.459  19.832  0.00  0.00    +0.000 A 
ATOM     26  C   UNL     1       1.077   9.280  19.586  0.00  0.00    +0.000 A 
ATOM     27  O   UNL     1       0.095  11.405  18.903  0.00  0.00    +0.000 OA
ATOM     28  C   UNL     1      -0.641  12.345  19.715  0.00  0.00    +0.000 C 
ATOM     29  O   UNL     1      -0.675  11.994  21.112  0.00  0.00    +0.000 OA
ENDBRANCH  20  21
ENDBRANCH  18  20
ENDBRANCH   4  18
TORSDOF 6
ENDMDL
