MODEL 1
REMARK VINA RESULT:      -9.0      0.000      0.000
REMARK  Name = 
REMARK  3 active torsions:
REMARK  status: ('A' for Active; 'I' for Inactive)
REMARK    1  A    between atoms: C_1  and  O_2
REMARK    2  A    between atoms: O_2  and  C_3
REMARK    3  A    between atoms: C_7  and  C_8
REMARK                            x       y       z     vdW  Elec       q    Type
REMARK                         _______ _______ _______ _____ _____    ______ ____
ROOT
ATOM      1  C   UNL     1       6.025   5.906  17.058  0.00  0.00    +0.000 A 
ATOM      2  C   UNL     1       6.370   5.361  15.825  0.00  0.00    +0.000 A 
ATOM      3  O   UNL     1       7.442   5.732  15.073  0.00  0.00    +0.000 OA
ATOM      4  C   UNL     1       7.411   5.007  13.925  0.00  0.00    +0.000 A 
ATOM      5  C   UNL     1       6.307   4.176  13.904  0.00  0.00    +0.000 A 
ATOM      6  C   UNL     1       5.888   3.291  12.789  0.00  0.00    +0.000 C 
ATOM      7  C   UNL     1       5.662   4.371  15.151  0.00  0.00    +0.000 A 
ATOM      8  C   UNL     1       4.526   3.803  15.811  0.00  0.00    +0.000 A 
ATOM      9  C   UNL     1       4.136   4.286  17.077  0.00  0.00    +0.000 A 
ATOM     10  C   UNL     1       4.859   5.359  17.627  0.00  0.00    +0.000 A 
ATOM     11  O   UNL     1       4.354   5.997  18.788  0.00  0.00    +0.000 OA
ATOM     12  C   UNL     1       3.116   5.743  19.352  0.00  0.00    +0.000 A 
ATOM     13  O   UNL     1       2.710   6.368  20.322  0.00  0.00    +0.000 OA
ATOM     14  C   UNL     1       2.405   4.557  18.823  0.00  0.00    +0.000 A 
ATOM     15  C   UNL     1       1.248   4.160  19.509  0.00  0.00    +0.000 A 
ATOM     16  C   UNL     1       0.825   2.844  19.414  0.00  0.00    +0.000 A 
ATOM     17  C   UNL     1       1.479   1.977  18.541  0.00  0.00    +0.000 A 
ATOM     18  C   UNL     1       2.503   2.449  17.705  0.00  0.00    +0.000 A 
ATOM     19  C   UNL     1       2.992   3.756  17.835  0.00  0.00    +0.000 A 
ENDROOT
BRANCH   1  21
ATOM     20  C   UNL     1       7.808   6.652  18.436  0.00  0.00    +0.000 C 
ATOM     21  O   UNL     1       6.742   6.964  17.537  0.00  0.00    +0.000 OA
ENDBRANCH   1  21
TORSDOF 1
ENDMDL
MODEL 2
REMARK VINA RESULT:      -8.2      3.218      5.845
REMARK  Name = 
REMARK  3 active torsions:
REMARK  status: ('A' for Active; 'I' for Inactive)
REMARK    1  A    between atoms: C_1  and  O_2
REMARK    2  A    between atoms: O_2  and  C_3
REMARK    3  A    between atoms: C_7  and  C_8
REMARK                            x       y       z     vdW  Elec       q    Type
REMARK                         _______ _______ _______ _____ _____    ______ ____
ROOT
ATOM      1  C   UNL     1       3.502   5.755  18.329  0.00  0.00    +0.000 A 
ATOM      2  C   UNL     1       3.302   4.606  19.089  0.00  0.00    +0.000 A 
ATOM      3  O   UNL     1       3.861   3.390  18.839  0.00  0.00    +0.000 OA
ATOM      4  C   UNL     1       3.389   2.521  19.768  0.00  0.00    +0.000 A 
ATOM      5  C   UNL     1       2.499   3.151  20.618  0.00  0.00    +0.000 A 
ATOM      6  C   UNL     1       1.720   2.517  21.709  0.00  0.00    +0.000 C 
ATOM      7  C   UNL     1       2.480   4.507  20.207  0.00  0.00    +0.000 A 
ATOM      8  C   UNL     1       1.845   5.703  20.669  0.00  0.00    +0.000 A 
ATOM      9  C   UNL     1       2.026   6.912  19.966  0.00  0.00    +0.000 A 
ATOM     10  C   UNL     1       2.795   6.883  18.789  0.00  0.00    +0.000 A 
ATOM     11  O   UNL     1       2.810   8.030  17.956  0.00  0.00    +0.000 OA
ATOM     12  C   UNL     1       2.005   9.142  18.132  0.00  0.00    +0.000 A 
ATOM     13  O   UNL     1       2.020  10.079  17.346  0.00  0.00    +0.000 OA
ATOM     14  C   UNL     1       1.269   9.202  19.415  0.00  0.00    +0.000 A 
ATOM     15  C   UNL     1       0.607  10.403  19.706  0.00  0.00    +0.000 A 
ATOM     16  C   UNL     1       0.339  10.724  21.026  0.00  0.00    +0.000 A 
ATOM     17  C   UNL     1       0.613   9.792  22.026  0.00  0.00    +0.000 A 
ATOM     18  C   UNL     1       1.080   8.511  21.694  0.00  0.00    +0.000 A 
ATOM     19  C   UNL     1       1.424   8.191  20.373  0.00  0.00    +0.000 A 
ENDROOT
BRANCH   1  21
ATOM     20  C   UNL     1       5.606   6.055  17.276  0.00  0.00    +0.000 C 
ATOM     21  O   UNL     1       4.234   5.670  17.181  0.00  0.00    +0.000 OA
ENDBRANCH   1  21
TORSDOF 1
ENDMDL
MODEL 3
REMARK VINA RESULT:      -7.8      2.268      6.084
REMARK  Name = 
REMARK  3 active torsions:
REMARK  status: ('A' for Active; 'I' for Inactive)
REMARK    1  A    between atoms: C_1  and  O_2
REMARK    2  A    between atoms: O_2  and  C_3
REMARK    3  A    between atoms: C_7  and  C_8
REMARK                            x       y       z     vdW  Elec       q    Type
REMARK                         _______ _______ _______ _____ _____    ______ ____
ROOT
ATOM      1  C   UNL     1       2.470   5.649  20.034  0.00  0.00    +0.000 A 
ATOM      2  C   UNL     1       2.050   6.974  19.947  0.00  0.00    +0.000 A 
ATOM      3  O   UNL     1       1.309   7.628  20.883  0.00  0.00    +0.000 OA
ATOM      4  C   UNL     1       1.066   8.879  20.416  0.00  0.00    +0.000 A 
ATOM      5  C   UNL     1       1.623   9.047  19.162  0.00  0.00    +0.000 A 
ATOM      6  C   UNL     1       1.507  10.247  18.297  0.00  0.00    +0.000 C 
ATOM      7  C   UNL     1       2.298   7.833  18.881  0.00  0.00    +0.000 A 
ATOM      8  C   UNL     1       3.119   7.346  17.815  0.00  0.00    +0.000 A 
ATOM      9  C   UNL     1       3.604   6.022  17.850  0.00  0.00    +0.000 A 
ATOM     10  C   UNL     1       3.213   5.203  18.924  0.00  0.00    +0.000 A 
ATOM     11  O   UNL     1       3.508   3.818  18.867  0.00  0.00    +0.000 OA
ATOM     12  C   UNL     1       4.030   3.168  17.762  0.00  0.00    +0.000 A 
ATOM     13  O   UNL     1       4.210   1.958  17.753  0.00  0.00    +0.000 OA
ATOM     14  C   UNL     1       4.520   4.047  16.677  0.00  0.00    +0.000 A 
ATOM     15  C   UNL     1       5.232   3.428  15.639  0.00  0.00    +0.000 A 
ATOM     16  C   UNL     1       6.121   4.179  14.889  0.00  0.00    +0.000 A 
ATOM     17  C   UNL     1       6.195   5.556  15.092  0.00  0.00    +0.000 A 
ATOM     18  C   UNL     1       5.321   6.190  15.990  0.00  0.00    +0.000 A 
ATOM     19  C   UNL     1       4.464   5.441  16.808  0.00  0.00    +0.000 A 
ENDROOT
BRANCH   1  21
ATOM     20  C   UNL     1       1.096   3.861  20.772  0.00  0.00    +0.000 C 
ATOM     21  O   UNL     1       2.040   4.888  21.081  0.00  0.00    +0.000 OA
ENDBRANCH   1  21
TORSDOF 1
ENDMDL
MODEL 4
REMARK VINA RESULT:      -7.7      1.128      5.644
REMARK  Name = 
REMARK  3 active torsions:
REMARK  status: ('A' for Active; 'I' for Inactive)
REMARK    1  A    between atoms: C_1  and  O_2
REMARK    2  A    between atoms: O_2  and  C_3
REMARK    3  A    between atoms: C_7  and  C_8
REMARK                            x       y       z     vdW  Elec       q    Type
REMARK                         _______ _______ _______ _____ _____    ______ ____
ROOT
ATOM      1  C   UNL     1       6.021   5.840  17.357  0.00  0.00    +0.000 A 
ATOM      2  C   UNL     1       5.044   5.170  18.088  0.00  0.00    +0.000 A 
ATOM      3  O   UNL     1       4.694   5.448  19.374  0.00  0.00    +0.000 OA
ATOM      4  C   UNL     1       3.745   4.552  19.745  0.00  0.00    +0.000 A 
ATOM      5  C   UNL     1       3.482   3.666  18.717  0.00  0.00    +0.000 A 
ATOM      6  C   UNL     1       2.565   2.501  18.767  0.00  0.00    +0.000 C 
ATOM      7  C   UNL     1       4.287   4.095  17.632  0.00  0.00    +0.000 A 
ATOM      8  C   UNL     1       4.467   3.688  16.272  0.00  0.00    +0.000 A 
ATOM      9  C   UNL     1       5.420   4.341  15.463  0.00  0.00    +0.000 A 
ATOM     10  C   UNL     1       6.204   5.350  16.050  0.00  0.00    +0.000 A 
ATOM     11  O   UNL     1       7.307   5.865  15.323  0.00  0.00    +0.000 OA
ATOM     12  C   UNL     1       7.770   5.350  14.124  0.00  0.00    +0.000 A 
ATOM     13  O   UNL     1       8.764   5.801  13.571  0.00  0.00    +0.000 OA
ATOM     14  C   UNL     1       6.890   4.354  13.474  0.00  0.00    +0.000 A 
ATOM     15  C   UNL     1       7.232   3.967  12.171  0.00  0.00    +0.000 A 
ATOM     16  C   UNL     1       6.249   3.464  11.335  0.00  0.00    +0.000 A 
ATOM     17  C   UNL     1       4.972   3.231  11.844  0.00  0.00    +0.000 A 
ATOM     18  C   UNL     1       4.704   3.427  13.208  0.00  0.00    +0.000 A 
ATOM     19  C   UNL     1       5.664   4.001  14.053  0.00  0.00    +0.000 A 
ENDROOT
BRANCH   1  21
ATOM     20  C   UNL     1       7.891   6.320  18.736  0.00  0.00    +0.000 C 
ATOM     21  O   UNL     1       6.775   6.792  17.979  0.00  0.00    +0.000 OA
ENDBRANCH   1  21
TORSDOF 1
ENDMDL
MODEL 5
REMARK VINA RESULT:      -7.5      3.370      5.573
REMARK  Name = 
REMARK  3 active torsions:
REMARK  status: ('A' for Active; 'I' for Inactive)
REMARK    1  A    between atoms: C_1  and  O_2
REMARK    2  A    between atoms: O_2  and  C_3
REMARK    3  A    between atoms: C_7  and  C_8
REMARK                            x       y       z     vdW  Elec       q    Type
REMARK                         _______ _______ _______ _____ _____    ______ ____
ROOT
ATOM      1  C   UNL     1       2.587   5.588  19.987  0.00  0.00    +0.000 A 
ATOM      2  C   UNL     1       3.396   5.350  18.879  0.00  0.00    +0.000 A 
ATOM      3  O   UNL     1       4.076   4.196  18.634  0.00  0.00    +0.000 OA
ATOM      4  C   UNL     1       4.782   4.370  17.488  0.00  0.00    +0.000 A 
ATOM      5  C   UNL     1       4.593   5.645  16.987  0.00  0.00    +0.000 A 
ATOM      6  C   UNL     1       5.254   6.234  15.797  0.00  0.00    +0.000 C 
ATOM      7  C   UNL     1       3.661   6.259  17.860  0.00  0.00    +0.000 A 
ATOM      8  C   UNL     1       2.986   7.521  17.907  0.00  0.00    +0.000 A 
ATOM      9  C   UNL     1       2.128   7.819  18.985  0.00  0.00    +0.000 A 
ATOM     10  C   UNL     1       2.007   6.870  20.015  0.00  0.00    +0.000 A 
ATOM     11  O   UNL     1       1.326   7.237  21.204  0.00  0.00    +0.000 OA
ATOM     12  C   UNL     1       0.889   8.517  21.497  0.00  0.00    +0.000 A 
ATOM     13  O   UNL     1       0.358   8.786  22.566  0.00  0.00    +0.000 OA
ATOM     14  C   UNL     1       0.939   9.483  20.377  0.00  0.00    +0.000 A 
ATOM     15  C   UNL     1       0.319  10.723  20.587  0.00  0.00    +0.000 A 
ATOM     16  C   UNL     1      -0.113  11.455  19.493  0.00  0.00    +0.000 A 
ATOM     17  C   UNL     1       0.191  11.010  18.208  0.00  0.00    +0.000 A 
ATOM     18  C   UNL     1       0.996   9.875  18.021  0.00  0.00    +0.000 A 
ATOM     19  C   UNL     1       1.384   9.082  19.110  0.00  0.00    +0.000 A 
ENDROOT
BRANCH   1  21
ATOM     20  C   UNL     1       1.438   3.722  20.897  0.00  0.00    +0.000 C 
ATOM     21  O   UNL     1       2.525   4.647  20.973  0.00  0.00    +0.000 OA
ENDBRANCH   1  21
TORSDOF 1
ENDMDL
MODEL 6
REMARK VINA RESULT:      -7.4      1.155      5.614
REMARK  Name = 
REMARK  3 active torsions:
REMARK  status: ('A' for Active; 'I' for Inactive)
REMARK    1  A    between atoms: C_1  and  O_2
REMARK    2  A    between atoms: O_2  and  C_3
REMARK    3  A    between atoms: C_7  and  C_8
REMARK                            x       y       z     vdW  Elec       q    Type
REMARK                         _______ _______ _______ _____ _____    ______ ____
ROOT
ATOM      1  C   UNL     1       3.026   6.129  18.885  0.00  0.00    +0.000 A 
ATOM      2  C   UNL     1       2.228   5.020  19.150  0.00  0.00    +0.000 A 
ATOM      3  O   UNL     1       1.220   4.975  20.063  0.00  0.00    +0.000 OA
ATOM      4  C   UNL     1       0.716   3.715  20.060  0.00  0.00    +0.000 A 
ATOM      5  C   UNL     1       1.405   2.917  19.165  0.00  0.00    +0.000 A 
ATOM      6  C   UNL     1       1.200   1.466  18.935  0.00  0.00    +0.000 C 
ATOM      7  C   UNL     1       2.349   3.773  18.544  0.00  0.00    +0.000 A 
ATOM      8  C   UNL     1       3.322   3.634  17.504  0.00  0.00    +0.000 A 
ATOM      9  C   UNL     1       4.146   4.726  17.162  0.00  0.00    +0.000 A 
ATOM     10  C   UNL     1       4.012   5.913  17.904  0.00  0.00    +0.000 A 
ATOM     11  O   UNL     1       4.971   6.941  17.723  0.00  0.00    +0.000 OA
ATOM     12  C   UNL     1       6.127   6.817  16.972  0.00  0.00    +0.000 A 
ATOM     13  O   UNL     1       6.947   7.722  16.900  0.00  0.00    +0.000 OA
ATOM     14  C   UNL     1       6.214   5.605  16.128  0.00  0.00    +0.000 A 
ATOM     15  C   UNL     1       7.273   5.551  15.211  0.00  0.00    +0.000 A 
ATOM     16  C   UNL     1       7.155   4.749  14.088  0.00  0.00    +0.000 A 
ATOM     17  C   UNL     1       6.045   3.915  13.957  0.00  0.00    +0.000 A 
ATOM     18  C   UNL     1       5.097   3.826  14.989  0.00  0.00    +0.000 A 
ATOM     19  C   UNL     1       5.162   4.679  16.099  0.00  0.00    +0.000 A 
ENDROOT
BRANCH   1  21
ATOM     20  C   UNL     1       1.991   8.249  19.144  0.00  0.00    +0.000 C 
ATOM     21  O   UNL     1       2.876   7.248  19.651  0.00  0.00    +0.000 OA
ENDBRANCH   1  21
TORSDOF 1
ENDMDL
MODEL 7
REMARK VINA RESULT:      -7.3      3.768      6.879
REMARK  Name = 
REMARK  3 active torsions:
REMARK  status: ('A' for Active; 'I' for Inactive)
REMARK    1  A    between atoms: C_1  and  O_2
REMARK    2  A    between atoms: O_2  and  C_3
REMARK    3  A    between atoms: C_7  and  C_8
REMARK                            x       y       z     vdW  Elec       q    Type
REMARK                         _______ _______ _______ _____ _____    ______ ____
ROOT
ATOM      1  C   UNL     1       1.605   9.271  18.597  0.00  0.00    +0.000 A 
ATOM      2  C   UNL     1       0.891   9.697  19.714  0.00  0.00    +0.000 A 
ATOM      3  O   UNL     1       0.227  10.881  19.819  0.00  0.00    +0.000 OA
ATOM      4  C   UNL     1      -0.299  10.948  21.068  0.00  0.00    +0.000 A 
ATOM      5  C   UNL     1       0.036   9.824  21.800  0.00  0.00    +0.000 A 
ATOM      6  C   UNL     1      -0.288   9.567  23.224  0.00  0.00    +0.000 C 
ATOM      7  C   UNL     1       0.764   8.996  20.909  0.00  0.00    +0.000 A 
ATOM      8  C   UNL     1       1.347   7.691  20.977  0.00  0.00    +0.000 A 
ATOM      9  C   UNL     1       2.060   7.182  19.871  0.00  0.00    +0.000 A 
ATOM     10  C   UNL     1       2.216   8.011  18.747  0.00  0.00    +0.000 A 
ATOM     11  O   UNL     1       3.106   7.607  17.720  0.00  0.00    +0.000 OA
ATOM     12  C   UNL     1       3.956   6.517  17.798  0.00  0.00    +0.000 A 
ATOM     13  O   UNL     1       4.745   6.251  16.902  0.00  0.00    +0.000 OA
ATOM     14  C   UNL     1       3.721   5.604  18.939  0.00  0.00    +0.000 A 
ATOM     15  C   UNL     1       4.429   4.394  18.933  0.00  0.00    +0.000 A 
ATOM     16  C   UNL     1       3.927   3.314  19.640  0.00  0.00    +0.000 A 
ATOM     17  C   UNL     1       2.802   3.487  20.445  0.00  0.00    +0.000 A 
ATOM     18  C   UNL     1       2.231   4.759  20.605  0.00  0.00    +0.000 A 
ATOM     19  C   UNL     1       2.680   5.848  19.845  0.00  0.00    +0.000 A 
ENDROOT
BRANCH   1  21
ATOM     20  C   UNL     1       2.491  11.320  17.793  0.00  0.00    +0.000 C 
ATOM     21  O   UNL     1       1.751  10.123  17.542  0.00  0.00    +0.000 OA
ENDBRANCH   1  21
TORSDOF 1
ENDMDL
MODEL 8
REMARK VINA RESULT:      -6.9      2.968      5.419
REMARK  Name = 
REMARK  3 active torsions:
REMARK  status: ('A' for Active; 'I' for Inactive)
REMARK    1  A    between atoms: C_1  and  O_2
REMARK    2  A    between atoms: O_2  and  C_3
REMARK    3  A    between atoms: C_7  and  C_8
REMARK                            x       y       z     vdW  Elec       q    Type
REMARK                         _______ _______ _______ _____ _____    ______ ____
ROOT
ATOM      1  C   UNL     1       1.866   4.578  19.907  0.00  0.00    +0.000 A 
ATOM      2  C   UNL     1       2.720   4.053  18.941  0.00  0.00    +0.000 A 
ATOM      3  O   UNL     1       3.022   2.735  18.790  0.00  0.00    +0.000 OA
ATOM      4  C   UNL     1       3.919   2.631  17.777  0.00  0.00    +0.000 A 
ATOM      5  C   UNL     1       4.231   3.880  17.272  0.00  0.00    +0.000 A 
ATOM      6  C   UNL     1       5.226   4.182  16.214  0.00  0.00    +0.000 C 
ATOM      7  C   UNL     1       3.421   4.792  17.993  0.00  0.00    +0.000 A 
ATOM      8  C   UNL     1       3.188   6.204  17.949  0.00  0.00    +0.000 A 
ATOM      9  C   UNL     1       2.312   6.801  18.879  0.00  0.00    +0.000 A 
ATOM     10  C   UNL     1       1.731   5.979  19.861  0.00  0.00    +0.000 A 
ATOM     11  O   UNL     1       1.026   6.588  20.929  0.00  0.00    +0.000 OA
ATOM     12  C   UNL     1       0.982   7.951  21.169  0.00  0.00    +0.000 A 
ATOM     13  O   UNL     1       0.404   8.415  22.142  0.00  0.00    +0.000 OA
ATOM     14  C   UNL     1       1.516   8.807  20.087  0.00  0.00    +0.000 A 
ATOM     15  C   UNL     1       1.303  10.187  20.213  0.00  0.00    +0.000 A 
ATOM     16  C   UNL     1       1.308  10.979  19.076  0.00  0.00    +0.000 A 
ATOM     17  C   UNL     1       1.652  10.412  17.850  0.00  0.00    +0.000 A 
ATOM     18  C   UNL     1       2.068   9.073  17.778  0.00  0.00    +0.000 A 
ATOM     19  C   UNL     1       2.003   8.239  18.902  0.00  0.00    +0.000 A 
ENDROOT
BRANCH   1  21
ATOM     20  C   UNL     1       2.246   3.325  21.885  0.00  0.00    +0.000 C 
ATOM     21  O   UNL     1       1.349   3.744  20.855  0.00  0.00    +0.000 OA
ENDBRANCH   1  21
TORSDOF 1
ENDMDL
MODEL 9
REMARK VINA RESULT:      -6.8      2.299      3.995
REMARK  Name = 
REMARK  3 active torsions:
REMARK  status: ('A' for Active; 'I' for Inactive)
REMARK    1  A    between atoms: C_1  and  O_2
REMARK    2  A    between atoms: O_2  and  C_3
REMARK    3  A    between atoms: C_7  and  C_8
REMARK                            x       y       z     vdW  Elec       q    Type
REMARK                         _______ _______ _______ _____ _____    ______ ____
ROOT
ATOM      1  C   UNL     1       3.916   3.851  17.869  0.00  0.00    +0.000 A 
ATOM      2  C   UNL     1       4.847   4.029  16.849  0.00  0.00    +0.000 A 
ATOM      3  O   UNL     1       5.562   3.035  16.254  0.00  0.00    +0.000 OA
ATOM      4  C   UNL     1       6.391   3.611  15.346  0.00  0.00    +0.000 A 
ATOM      5  C   UNL     1       6.244   4.986  15.355  0.00  0.00    +0.000 A 
ATOM      6  C   UNL     1       7.028   5.964  14.561  0.00  0.00    +0.000 C 
ATOM      7  C   UNL     1       5.214   5.250  16.292  0.00  0.00    +0.000 A 
ATOM      8  C   UNL     1       4.524   6.419  16.746  0.00  0.00    +0.000 A 
ATOM      9  C   UNL     1       3.547   6.309  17.757  0.00  0.00    +0.000 A 
ATOM     10  C   UNL     1       3.322   5.043  18.325  0.00  0.00    +0.000 A 
ATOM     11  O   UNL     1       2.508   4.950  19.482  0.00  0.00    +0.000 OA
ATOM     12  C   UNL     1       2.026   6.033  20.195  0.00  0.00    +0.000 A 
ATOM     13  O   UNL     1       1.376   5.890  21.222  0.00  0.00    +0.000 OA
ATOM     14  C   UNL     1       2.191   7.352  19.544  0.00  0.00    +0.000 A 
ATOM     15  C   UNL     1       1.537   8.437  20.146  0.00  0.00    +0.000 A 
ATOM     16  C   UNL     1       1.222   9.546  19.377  0.00  0.00    +0.000 A 
ATOM     17  C   UNL     1       1.673   9.616  18.060  0.00  0.00    +0.000 A 
ATOM     18  C   UNL     1       2.507   8.613  17.540  0.00  0.00    +0.000 A 
ATOM     19  C   UNL     1       2.779   7.452  18.276  0.00  0.00    +0.000 A 
ENDROOT
BRANCH   1  21
ATOM     20  C   UNL     1       2.639   1.852  17.928  0.00  0.00    +0.000 C 
ATOM     21  O   UNL     1       3.754   2.607  18.405  0.00  0.00    +0.000 OA
ENDBRANCH   1  21
TORSDOF 1
ENDMDL
