MODEL 1
REMARK VINA RESULT:      -7.2      0.000      0.000
REMARK  Name = 
REMARK  5 active torsions:
REMARK  status: ('A' for Active; 'I' for Inactive)
REMARK    1  A    between atoms: C_1  and  C_2
REMARK    2  A    between atoms: C_2  and  O_3
REMARK    3  A    between atoms: O_3  and  C_4
REMARK    4  A    between atoms: C_9  and  N_10
REMARK    5  A    between atoms: C_11  and  C_13
REMARK                            x       y       z     vdW  Elec       q    Type
REMARK                         _______ _______ _______ _____ _____    ______ ____
ROOT
ATOM      1  N   UNL     1       2.539   6.897  18.926  0.00  0.00    +0.000 N 
ATOM      2  C   UNL     1       2.133   8.154  18.520  0.00  0.00    +0.000 C 
ATOM      3  O   UNL     1       2.247   8.613  17.388  0.00  0.00    +0.000 OA
ATOM      4  H   UNL     1       2.155   6.580  19.808  0.00  0.00    +0.000 HD
ENDROOT
BRANCH   2   5
ATOM      5  C   UNL     1       1.476   8.894  19.594  0.00  0.00    +0.000 A 
ATOM      6  C   UNL     1       1.196   8.430  20.866  0.00  0.00    +0.000 A 
ATOM      7  N   UNL     1       0.516   9.442  21.475  0.00  0.00    +0.000 N 
ATOM      8  C   UNL     1       0.436  10.492  20.604  0.00  0.00    +0.000 A 
ATOM      9  N   UNL     1       1.031  10.205  19.467  0.00  0.00    +0.000 NA
ATOM     10  C   UNL     1      -0.205  11.776  20.965  0.00  0.00    +0.000 C 
ATOM     11  C   UNL     1      -1.104  11.727  22.198  0.00  0.00    +0.000 C 
ATOM     12  C   UNL     1      -0.977  10.544  23.159  0.00  0.00    +0.000 C 
ATOM     13  C   UNL     1      -0.005   9.420  22.812  0.00  0.00    +0.000 C 
ENDBRANCH   2   5
BRANCH   1  19
ATOM     14  C   UNL     1       2.660   4.742  17.752  0.00  0.00    +0.000 A 
ATOM     15  C   UNL     1       3.430   3.837  17.007  0.00  0.00    +0.000 A 
ATOM     16  C   UNL     1       4.732   4.153  16.611  0.00  0.00    +0.000 A 
ATOM     17  C   UNL     1       5.281   5.380  16.961  0.00  0.00    +0.000 A 
ATOM     18  C   UNL     1       4.521   6.293  17.691  0.00  0.00    +0.000 A 
ATOM     19  C   UNL     1       3.215   5.983  18.100  0.00  0.00    +0.000 A 
BRANCH  14  20
ATOM     20  O   UNL     1       1.404   4.277  18.048  0.00  0.00    +0.000 OA
BRANCH  20  22
ATOM     21  C   UNL     1       0.995   3.842  20.367  0.00  0.00    +0.000 C 
ATOM     22  C   UNL     1       1.301   3.227  19.012  0.00  0.00    +0.000 C 
ENDBRANCH  20  22
ENDBRANCH  14  20
ENDBRANCH   1  19
TORSDOF 4
ENDMDL
MODEL 2
REMARK VINA RESULT:      -7.1      3.839      8.271
REMARK  Name = 
REMARK  5 active torsions:
REMARK  status: ('A' for Active; 'I' for Inactive)
REMARK    1  A    between atoms: C_1  and  C_2
REMARK    2  A    between atoms: C_2  and  O_3
REMARK    3  A    between atoms: O_3  and  C_4
REMARK    4  A    between atoms: C_9  and  N_10
REMARK    5  A    between atoms: C_11  and  C_13
REMARK                            x       y       z     vdW  Elec       q    Type
REMARK                         _______ _______ _______ _____ _____    ______ ____
ROOT
ATOM      1  N   UNL     1       3.702   4.093  17.532  0.00  0.00    +0.000 N 
ATOM      2  C   UNL     1       5.077   4.135  17.667  0.00  0.00    +0.000 C 
ATOM      3  O   UNL     1       5.696   4.042  18.722  0.00  0.00    +0.000 OA
ATOM      4  H   UNL     1       3.362   3.934  16.591  0.00  0.00    +0.000 HD
ENDROOT
BRANCH   2   5
ATOM      5  C   UNL     1       5.753   4.246  16.377  0.00  0.00    +0.000 A 
ATOM      6  C   UNL     1       6.793   5.099  16.060  0.00  0.00    +0.000 A 
ATOM      7  N   UNL     1       7.033   4.894  14.734  0.00  0.00    +0.000 N 
ATOM      8  C   UNL     1       6.190   3.914  14.291  0.00  0.00    +0.000 A 
ATOM      9  N   UNL     1       5.421   3.480  15.265  0.00  0.00    +0.000 NA
ATOM     10  C   UNL     1       6.217   3.414  12.898  0.00  0.00    +0.000 C 
ATOM     11  C   UNL     1       6.950   4.309  11.902  0.00  0.00    +0.000 C 
ATOM     12  C   UNL     1       7.898   5.386  12.434  0.00  0.00    +0.000 C 
ATOM     13  C   UNL     1       8.021   5.571  13.943  0.00  0.00    +0.000 C 
ENDBRANCH   2   5
BRANCH   1  19
ATOM     14  C   UNL     1       2.657   5.056  19.536  0.00  0.00    +0.000 A 
ATOM     15  C   UNL     1       1.819   4.868  20.646  0.00  0.00    +0.000 A 
ATOM     16  C   UNL     1       1.140   3.663  20.841  0.00  0.00    +0.000 A 
ATOM     17  C   UNL     1       1.295   2.627  19.928  0.00  0.00    +0.000 A 
ATOM     18  C   UNL     1       2.115   2.807  18.814  0.00  0.00    +0.000 A 
ATOM     19  C   UNL     1       2.807   4.010  18.612  0.00  0.00    +0.000 A 
BRANCH  14  20
ATOM     20  O   UNL     1       3.237   6.298  19.493  0.00  0.00    +0.000 OA
BRANCH  20  22
ATOM     21  C   UNL     1       2.908   7.868  17.715  0.00  0.00    +0.000 C 
ATOM     22  C   UNL     1       2.420   7.392  19.072  0.00  0.00    +0.000 C 
ENDBRANCH  20  22
ENDBRANCH  14  20
ENDBRANCH   1  19
TORSDOF 4
ENDMDL
MODEL 3
REMARK VINA RESULT:      -7.0      0.665      1.358
REMARK  Name = 
REMARK  5 active torsions:
REMARK  status: ('A' for Active; 'I' for Inactive)
REMARK    1  A    between atoms: C_1  and  C_2
REMARK    2  A    between atoms: C_2  and  O_3
REMARK    3  A    between atoms: O_3  and  C_4
REMARK    4  A    between atoms: C_9  and  N_10
REMARK    5  A    between atoms: C_11  and  C_13
REMARK                            x       y       z     vdW  Elec       q    Type
REMARK                         _______ _______ _______ _____ _____    ______ ____
ROOT
ATOM      1  N   UNL     1       2.453   6.869  18.859  0.00  0.00    +0.000 N 
ATOM      2  C   UNL     1       2.152   8.150  18.435  0.00  0.00    +0.000 C 
ATOM      3  O   UNL     1       2.491   8.649  17.367  0.00  0.00    +0.000 OA
ATOM      4  H   UNL     1       1.901   6.527  19.636  0.00  0.00    +0.000 HD
ENDROOT
BRANCH   2   5
ATOM      5  C   UNL     1       1.309   8.862  19.391  0.00  0.00    +0.000 A 
ATOM      6  C   UNL     1       0.694  10.084  19.200  0.00  0.00    +0.000 A 
ATOM      7  N   UNL     1       0.086  10.370  20.387  0.00  0.00    +0.000 N 
ATOM      8  C   UNL     1       0.298   9.324  21.240  0.00  0.00    +0.000 A 
ATOM      9  N   UNL     1       1.010   8.382  20.662  0.00  0.00    +0.000 NA
ATOM     10  C   UNL     1      -0.265   9.290  22.609  0.00  0.00    +0.000 C 
ATOM     11  C   UNL     1      -0.752  10.634  23.142  0.00  0.00    +0.000 C 
ATOM     12  C   UNL     1      -0.993  11.779  22.156  0.00  0.00    +0.000 C 
ATOM     13  C   UNL     1      -0.669  11.554  20.682  0.00  0.00    +0.000 C 
ENDBRANCH   2   5
BRANCH   1  19
ATOM     14  C   UNL     1       2.789   4.731  17.698  0.00  0.00    +0.000 A 
ATOM     15  C   UNL     1       3.679   3.843  17.076  0.00  0.00    +0.000 A 
ATOM     16  C   UNL     1       5.024   4.178  16.898  0.00  0.00    +0.000 A 
ATOM     17  C   UNL     1       5.495   5.406  17.345  0.00  0.00    +0.000 A 
ATOM     18  C   UNL     1       4.616   6.302  17.954  0.00  0.00    +0.000 A 
ATOM     19  C   UNL     1       3.265   5.973  18.143  0.00  0.00    +0.000 A 
BRANCH  14  20
ATOM     20  O   UNL     1       1.507   4.249  17.783  0.00  0.00    +0.000 OA
BRANCH  20  22
ATOM     21  C   UNL     1       0.989   3.681  20.051  0.00  0.00    +0.000 C 
ATOM     22  C   UNL     1       1.276   3.144  18.659  0.00  0.00    +0.000 C 
ENDBRANCH  20  22
ENDBRANCH  14  20
ENDBRANCH   1  19
TORSDOF 4
ENDMDL
MODEL 4
REMARK VINA RESULT:      -6.8      2.041      3.844
REMARK  Name = 
REMARK  5 active torsions:
REMARK  status: ('A' for Active; 'I' for Inactive)
REMARK    1  A    between atoms: C_1  and  C_2
REMARK    2  A    between atoms: C_2  and  O_3
REMARK    3  A    between atoms: O_3  and  C_4
REMARK    4  A    between atoms: C_9  and  N_10
REMARK    5  A    between atoms: C_11  and  C_13
REMARK                            x       y       z     vdW  Elec       q    Type
REMARK                         _______ _______ _______ _____ _____    ______ ____
ROOT
ATOM      1  N   UNL     1       3.780   6.683  17.850  0.00  0.00    +0.000 N 
ATOM      2  C   UNL     1       3.251   6.415  19.098  0.00  0.00    +0.000 C 
ATOM      3  O   UNL     1       3.558   5.469  19.818  0.00  0.00    +0.000 OA
ATOM      4  H   UNL     1       3.613   7.618  17.499  0.00  0.00    +0.000 HD
ENDROOT
BRANCH   2   5
ATOM      5  C   UNL     1       2.298   7.435  19.523  0.00  0.00    +0.000 A 
ATOM      6  C   UNL     1       1.890   8.538  18.798  0.00  0.00    +0.000 A 
ATOM      7  N   UNL     1       1.062   9.230  19.631  0.00  0.00    +0.000 N 
ATOM      8  C   UNL     1       0.947   8.531  20.800  0.00  0.00    +0.000 A 
ATOM      9  N   UNL     1       1.659   7.426  20.759  0.00  0.00    +0.000 NA
ATOM     10  C   UNL     1       0.082   8.982  21.913  0.00  0.00    +0.000 C 
ATOM     11  C   UNL     1      -0.356  10.442  21.841  0.00  0.00    +0.000 C 
ATOM     12  C   UNL     1      -0.227  11.190  20.513  0.00  0.00    +0.000 C 
ATOM     13  C   UNL     1       0.401  10.467  19.325  0.00  0.00    +0.000 C 
ENDBRANCH   2   5
BRANCH   1  19
ATOM     14  C   UNL     1       5.970   6.317  16.798  0.00  0.00    +0.000 A 
ATOM     15  C   UNL     1       6.805   5.468  16.057  0.00  0.00    +0.000 A 
ATOM     16  C   UNL     1       6.395   4.179  15.707  0.00  0.00    +0.000 A 
ATOM     17  C   UNL     1       5.140   3.726  16.092  0.00  0.00    +0.000 A 
ATOM     18  C   UNL     1       4.306   4.557  16.840  0.00  0.00    +0.000 A 
ATOM     19  C   UNL     1       4.705   5.855  17.191  0.00  0.00    +0.000 A 
BRANCH  14  20
ATOM     20  O   UNL     1       6.531   7.541  17.062  0.00  0.00    +0.000 OA
BRANCH  20  22
ATOM     21  C   UNL     1       8.199   9.002  17.967  0.00  0.00    +0.000 C 
ATOM     22  C   UNL     1       7.775   7.557  17.764  0.00  0.00    +0.000 C 
ENDBRANCH  20  22
ENDBRANCH  14  20
ENDBRANCH   1  19
TORSDOF 4
ENDMDL
MODEL 5
REMARK VINA RESULT:      -6.8      1.449      2.542
REMARK  Name = 
REMARK  5 active torsions:
REMARK  status: ('A' for Active; 'I' for Inactive)
REMARK    1  A    between atoms: C_1  and  C_2
REMARK    2  A    between atoms: C_2  and  O_3
REMARK    3  A    between atoms: O_3  and  C_4
REMARK    4  A    between atoms: C_9  and  N_10
REMARK    5  A    between atoms: C_11  and  C_13
REMARK                            x       y       z     vdW  Elec       q    Type
REMARK                         _______ _______ _______ _____ _____    ______ ____
ROOT
ATOM      1  N   UNL     1       2.279   6.240  19.396  0.00  0.00    +0.000 N 
ATOM      2  C   UNL     1       2.264   7.548  18.950  0.00  0.00    +0.000 C 
ATOM      3  O   UNL     1       2.710   7.944  17.878  0.00  0.00    +0.000 OA
ATOM      4  H   UNL     1       1.660   6.038  20.172  0.00  0.00    +0.000 HD
ENDROOT
BRANCH   2   5
ATOM      5  C   UNL     1       1.586   8.441  19.885  0.00  0.00    +0.000 A 
ATOM      6  C   UNL     1       1.288   8.179  21.209  0.00  0.00    +0.000 A 
ATOM      7  N   UNL     1       0.594   9.269  21.643  0.00  0.00    +0.000 N 
ATOM      8  C   UNL     1       0.523  10.170  20.617  0.00  0.00    +0.000 A 
ATOM      9  N   UNL     1       1.137   9.713  19.548  0.00  0.00    +0.000 NA
ATOM     10  C   UNL     1      -0.130  11.489  20.763  0.00  0.00    +0.000 C 
ATOM     11  C   UNL     1      -1.048  11.627  21.975  0.00  0.00    +0.000 C 
ATOM     12  C   UNL     1      -0.931  10.609  23.112  0.00  0.00    +0.000 C 
ATOM     13  C   UNL     1       0.051   9.452  22.959  0.00  0.00    +0.000 C 
ENDBRANCH   2   5
BRANCH   1  19
ATOM     14  C   UNL     1       4.278   5.031  18.636  0.00  0.00    +0.000 A 
ATOM     15  C   UNL     1       4.817   4.005  17.845  0.00  0.00    +0.000 A 
ATOM     16  C   UNL     1       3.990   3.137  17.129  0.00  0.00    +0.000 A 
ATOM     17  C   UNL     1       2.611   3.287  17.192  0.00  0.00    +0.000 A 
ATOM     18  C   UNL     1       2.063   4.295  17.985  0.00  0.00    +0.000 A 
ATOM     19  C   UNL     1       2.884   5.177  18.703  0.00  0.00    +0.000 A 
BRANCH  14  20
ATOM     20  O   UNL     1       5.228   5.783  19.277  0.00  0.00    +0.000 OA
BRANCH  20  22
ATOM     21  C   UNL     1       7.440   6.311  18.525  0.00  0.00    +0.000 C 
ATOM     22  C   UNL     1       6.573   5.302  19.258  0.00  0.00    +0.000 C 
ENDBRANCH  20  22
ENDBRANCH  14  20
ENDBRANCH   1  19
TORSDOF 4
ENDMDL
MODEL 6
REMARK VINA RESULT:      -6.8      5.015      6.561
REMARK  Name = 
REMARK  5 active torsions:
REMARK  status: ('A' for Active; 'I' for Inactive)
REMARK    1  A    between atoms: C_1  and  C_2
REMARK    2  A    between atoms: C_2  and  O_3
REMARK    3  A    between atoms: O_3  and  C_4
REMARK    4  A    between atoms: C_9  and  N_10
REMARK    5  A    between atoms: C_11  and  C_13
REMARK                            x       y       z     vdW  Elec       q    Type
REMARK                         _______ _______ _______ _____ _____    ______ ____
ROOT
ATOM      1  N   UNL     1       5.209   3.792  15.740  0.00  0.00    +0.000 N 
ATOM      2  C   UNL     1       4.552   4.755  16.481  0.00  0.00    +0.000 C 
ATOM      3  O   UNL     1       4.530   5.957  16.235  0.00  0.00    +0.000 OA
ATOM      4  H   UNL     1       4.930   2.836  15.923  0.00  0.00    +0.000 HD
ENDROOT
BRANCH   2   5
ATOM      5  C   UNL     1       3.807   4.178  17.596  0.00  0.00    +0.000 A 
ATOM      6  C   UNL     1       2.434   4.167  17.756  0.00  0.00    +0.000 A 
ATOM      7  N   UNL     1       2.219   3.592  18.973  0.00  0.00    +0.000 N 
ATOM      8  C   UNL     1       3.428   3.231  19.497  0.00  0.00    +0.000 A 
ATOM      9  N   UNL     1       4.408   3.545  18.679  0.00  0.00    +0.000 NA
ATOM     10  C   UNL     1       3.553   2.538  20.799  0.00  0.00    +0.000 C 
ATOM     11  C   UNL     1       2.314   2.601  21.688  0.00  0.00    +0.000 C 
ATOM     12  C   UNL     1       0.974   2.994  21.063  0.00  0.00    +0.000 C 
ATOM     13  C   UNL     1       0.939   3.378  19.587  0.00  0.00    +0.000 C 
ENDBRANCH   2   5
BRANCH   1  19
ATOM     14  C   UNL     1       7.126   4.929  14.705  0.00  0.00    +0.000 A 
ATOM     15  C   UNL     1       7.830   5.243  13.533  0.00  0.00    +0.000 A 
ATOM     16  C   UNL     1       7.443   4.718  12.297  0.00  0.00    +0.000 A 
ATOM     17  C   UNL     1       6.342   3.874  12.219  0.00  0.00    +0.000 A 
ATOM     18  C   UNL     1       5.642   3.545  13.379  0.00  0.00    +0.000 A 
ATOM     19  C   UNL     1       6.018   4.072  14.624  0.00  0.00    +0.000 A 
BRANCH  14  20
ATOM     20  O   UNL     1       7.644   5.520  15.828  0.00  0.00    +0.000 OA
BRANCH  20  22
ATOM     21  C   UNL     1       7.605   5.618  18.221  0.00  0.00    +0.000 C 
ATOM     22  C   UNL     1       7.750   4.718  17.005  0.00  0.00    +0.000 C 
ENDBRANCH  20  22
ENDBRANCH  14  20
ENDBRANCH   1  19
TORSDOF 4
ENDMDL
MODEL 7
REMARK VINA RESULT:      -6.7      4.414      6.211
REMARK  Name = 
REMARK  5 active torsions:
REMARK  status: ('A' for Active; 'I' for Inactive)
REMARK    1  A    between atoms: C_1  and  C_2
REMARK    2  A    between atoms: C_2  and  O_3
REMARK    3  A    between atoms: O_3  and  C_4
REMARK    4  A    between atoms: C_9  and  N_10
REMARK    5  A    between atoms: C_11  and  C_13
REMARK                            x       y       z     vdW  Elec       q    Type
REMARK                         _______ _______ _______ _____ _____    ______ ____
ROOT
ATOM      1  N   UNL     1       5.002   4.108  15.740  0.00  0.00    +0.000 N 
ATOM      2  C   UNL     1       4.485   5.190  16.427  0.00  0.00    +0.000 C 
ATOM      3  O   UNL     1       4.646   6.370  16.131  0.00  0.00    +0.000 OA
ATOM      4  H   UNL     1       4.582   3.213  15.958  0.00  0.00    +0.000 HD
ENDROOT
BRANCH   2   5
ATOM      5  C   UNL     1       3.648   4.779  17.551  0.00  0.00    +0.000 A 
ATOM      6  C   UNL     1       3.719   5.247  18.849  0.00  0.00    +0.000 A 
ATOM      7  N   UNL     1       2.798   4.519  19.543  0.00  0.00    +0.000 N 
ATOM      8  C   UNL     1       2.169   3.677  18.670  0.00  0.00    +0.000 A 
ATOM      9  N   UNL     1       2.639   3.827  17.451  0.00  0.00    +0.000 NA
ATOM     10  C   UNL     1       1.076   2.771  19.090  0.00  0.00    +0.000 C 
ATOM     11  C   UNL     1       0.963   2.547  20.595  0.00  0.00    +0.000 C 
ATOM     12  C   UNL     1       1.668   3.519  21.544  0.00  0.00    +0.000 C 
ATOM     13  C   UNL     1       2.519   4.636  20.946  0.00  0.00    +0.000 C 
ENDBRANCH   2   5
BRANCH   1  19
ATOM     14  C   UNL     1       7.071   4.917  14.691  0.00  0.00    +0.000 A 
ATOM     15  C   UNL     1       7.829   5.069  13.521  0.00  0.00    +0.000 A 
ATOM     16  C   UNL     1       7.394   4.537  12.305  0.00  0.00    +0.000 A 
ATOM     17  C   UNL     1       6.189   3.847  12.246  0.00  0.00    +0.000 A 
ATOM     18  C   UNL     1       5.433   3.678  13.406  0.00  0.00    +0.000 A 
ATOM     19  C   UNL     1       5.858   4.215  14.630  0.00  0.00    +0.000 A 
BRANCH  14  20
ATOM     20  O   UNL     1       7.648   5.492  15.795  0.00  0.00    +0.000 OA
BRANCH  20  22
ATOM     21  C   UNL     1       7.586   5.616  18.185  0.00  0.00    +0.000 C 
ATOM     22  C   UNL     1       7.732   4.701  16.981  0.00  0.00    +0.000 C 
ENDBRANCH  20  22
ENDBRANCH  14  20
ENDBRANCH   1  19
TORSDOF 4
ENDMDL
MODEL 8
REMARK VINA RESULT:      -6.6      1.174      1.724
REMARK  Name = 
REMARK  5 active torsions:
REMARK  status: ('A' for Active; 'I' for Inactive)
REMARK    1  A    between atoms: C_1  and  C_2
REMARK    2  A    between atoms: C_2  and  O_3
REMARK    3  A    between atoms: O_3  and  C_4
REMARK    4  A    between atoms: C_9  and  N_10
REMARK    5  A    between atoms: C_11  and  C_13
REMARK                            x       y       z     vdW  Elec       q    Type
REMARK                         _______ _______ _______ _____ _____    ______ ____
ROOT
ATOM      1  N   UNL     1       2.499   6.975  18.572  0.00  0.00    +0.000 N 
ATOM      2  C   UNL     1       2.176   6.924  19.915  0.00  0.00    +0.000 C 
ATOM      3  O   UNL     1       2.524   6.050  20.702  0.00  0.00    +0.000 OA
ATOM      4  H   UNL     1       2.350   7.871  18.123  0.00  0.00    +0.000 HD
ENDROOT
BRANCH   2   5
ATOM      5  C   UNL     1       1.399   8.085  20.339  0.00  0.00    +0.000 A 
ATOM      6  C   UNL     1       1.181   9.243  19.616  0.00  0.00    +0.000 A 
ATOM      7  N   UNL     1       0.471  10.057  20.448  0.00  0.00    +0.000 N 
ATOM      8  C   UNL     1       0.236   9.381  21.612  0.00  0.00    +0.000 A 
ATOM      9  N   UNL     1       0.759   8.176  21.570  0.00  0.00    +0.000 NA
ATOM     10  C   UNL     1      -0.551   9.964  22.722  0.00  0.00    +0.000 C 
ATOM     11  C   UNL     1      -0.745  11.476  22.655  0.00  0.00    +0.000 C 
ATOM     12  C   UNL     1      -0.487  12.197  21.330  0.00  0.00    +0.000 C 
ATOM     13  C   UNL     1       0.024  11.386  20.143  0.00  0.00    +0.000 C 
ENDBRANCH   2   5
BRANCH   1  19
ATOM     14  C   UNL     1       2.694   4.697  17.675  0.00  0.00    +0.000 A 
ATOM     15  C   UNL     1       3.507   3.718  17.083  0.00  0.00    +0.000 A 
ATOM     16  C   UNL     1       4.825   4.002  16.715  0.00  0.00    +0.000 A 
ATOM     17  C   UNL     1       5.347   5.269  16.941  0.00  0.00    +0.000 A 
ATOM     18  C   UNL     1       4.544   6.254  17.517  0.00  0.00    +0.000 A 
ATOM     19  C   UNL     1       3.222   5.978  17.897  0.00  0.00    +0.000 A 
BRANCH  14  20
ATOM     20  O   UNL     1       1.429   4.254  17.964  0.00  0.00    +0.000 OA
BRANCH  20  22
ATOM     21  C   UNL     1       0.871   3.085  19.979  0.00  0.00    +0.000 C 
ATOM     22  C   UNL     1       1.301   2.947  18.528  0.00  0.00    +0.000 C 
ENDBRANCH  20  22
ENDBRANCH  14  20
ENDBRANCH   1  19
TORSDOF 4
ENDMDL
MODEL 9
REMARK VINA RESULT:      -6.6      2.184      3.666
REMARK  Name = 
REMARK  5 active torsions:
REMARK  status: ('A' for Active; 'I' for Inactive)
REMARK    1  A    between atoms: C_1  and  C_2
REMARK    2  A    between atoms: C_2  and  O_3
REMARK    3  A    between atoms: O_3  and  C_4
REMARK    4  A    between atoms: C_9  and  N_10
REMARK    5  A    between atoms: C_11  and  C_13
REMARK                            x       y       z     vdW  Elec       q    Type
REMARK                         _______ _______ _______ _____ _____    ______ ____
ROOT
ATOM      1  N   UNL     1       4.202   6.641  17.659  0.00  0.00    +0.000 N 
ATOM      2  C   UNL     1       3.266   6.277  18.609  0.00  0.00    +0.000 C 
ATOM      3  O   UNL     1       3.130   5.156  19.088  0.00  0.00    +0.000 OA
ATOM      4  H   UNL     1       4.350   7.637  17.553  0.00  0.00    +0.000 HD
ENDROOT
BRANCH   2   5
ATOM      5  C   UNL     1       2.459   7.412  19.049  0.00  0.00    +0.000 A 
ATOM      6  C   UNL     1       1.883   7.583  20.293  0.00  0.00    +0.000 A 
ATOM      7  N   UNL     1       1.173   8.743  20.203  0.00  0.00    +0.000 N 
ATOM      8  C   UNL     1       1.362   9.267  18.955  0.00  0.00    +0.000 A 
ATOM      9  N   UNL     1       2.157   8.502  18.240  0.00  0.00    +0.000 NA
ATOM     10  C   UNL     1       0.763  10.554  18.535  0.00  0.00    +0.000 C 
ATOM     11  C   UNL     1      -0.375  11.057  19.419  0.00  0.00    +0.000 C 
ATOM     12  C   UNL     1      -0.548  10.459  20.816  0.00  0.00    +0.000 C 
ATOM     13  C   UNL     1       0.382   9.329  21.248  0.00  0.00    +0.000 C 
ENDBRANCH   2   5
BRANCH   1  19
ATOM     14  C   UNL     1       6.392   5.533  17.541  0.00  0.00    +0.000 A 
ATOM     15  C   UNL     1       7.265   4.699  16.827  0.00  0.00    +0.000 A 
ATOM     16  C   UNL     1       6.861   4.080  15.641  0.00  0.00    +0.000 A 
ATOM     17  C   UNL     1       5.579   4.294  15.152  0.00  0.00    +0.000 A 
ATOM     18  C   UNL     1       4.698   5.112  15.861  0.00  0.00    +0.000 A 
ATOM     19  C   UNL     1       5.095   5.743  17.049  0.00  0.00    +0.000 A 
BRANCH  14  20
ATOM     20  O   UNL     1       6.944   6.050  18.685  0.00  0.00    +0.000 OA
BRANCH  20  22
ATOM     21  C   UNL     1       7.708   8.101  17.712  0.00  0.00    +0.000 C 
ATOM     22  C   UNL     1       8.093   6.888  18.542  0.00  0.00    +0.000 C 
ENDBRANCH  20  22
ENDBRANCH  14  20
ENDBRANCH   1  19
TORSDOF 4
ENDMDL
