MODEL 1
REMARK VINA RESULT:      -8.2      0.000      0.000
REMARK  Name = 
REMARK  7 active torsions:
REMARK  status: ('A' for Active; 'I' for Inactive)
REMARK    1  A    between atoms: C_1  and  C_2
REMARK    2  A    between atoms: C_5  and  N_6
REMARK    3  A    between atoms: N_6  and  C_7
REMARK    4  A    between atoms: C_9  and  C_10
REMARK    5  A    between atoms: C_12  and  C_14
REMARK    6  A    between atoms: C_18  and  C_19
REMARK    7  A    between atoms: C_27  and  C_28
REMARK                            x       y       z     vdW  Elec       q    Type
REMARK                         _______ _______ _______ _____ _____    ______ ____
ROOT
ATOM      1  C   UNL     1      -2.390  13.359  20.472  0.00  0.00    +0.000 C 
ATOM      2  C   UNL     1      -2.368  14.951  20.605  0.00  0.00    +0.000 C 
ATOM      3  C   UNL     1      -0.925  15.484  20.979  0.00  0.00    +0.000 C 
ATOM      4  C   UNL     1      -0.811  16.685  21.938  0.00  0.00    +0.000 C 
ATOM      5  N   UNL     1      -0.122  14.307  21.424  0.00  0.00    +0.000 N 
ATOM      6  C   UNL     1       0.564  13.744  20.263  0.00  0.00    +0.000 C 
ATOM      7  O   UNL     1       0.899  14.465  19.312  0.00  0.00    +0.000 OA
ATOM      8  C   UNL     1      -0.938  13.577  22.395  0.00  0.00    +0.000 A 
ATOM      9  C   UNL     1      -1.256  14.159  23.646  0.00  0.00    +0.000 A 
ATOM     10  C   UNL     1      -2.475  13.888  24.312  0.00  0.00    +0.000 A 
ATOM     11  C   UNL     1      -3.301  12.857  23.873  0.00  0.00    +0.000 A 
ATOM     12  C   UNL     1      -4.624  12.549  24.520  0.00  0.00    +0.000 C 
ATOM     13  C   UNL     1      -2.954  12.218  22.689  0.00  0.00    +0.000 A 
ATOM     14  C   UNL     1      -1.979  12.816  21.863  0.00  0.00    +0.000 A 
ENDROOT
BRANCH   6  15
ATOM     15  C   UNL     1       0.794  12.290  19.991  0.00  0.00    +0.000 A 
ATOM     16  C   UNL     1       1.216  11.827  18.755  0.00  0.00    +0.000 A 
ATOM     17  C   UNL     1       1.338  10.450  18.542  0.00  0.00    +0.000 A 
ATOM     18  C   UNL     1       1.071   9.523  19.572  0.00  0.00    +0.000 A 
ATOM     19  C   UNL     1       0.638   9.954  20.816  0.00  0.00    +0.000 A 
ATOM     20  C   UNL     1       0.482  11.340  21.016  0.00  0.00    +0.000 A 
BRANCH  19  21
ATOM     21  C   UNL     1       0.381   8.930  21.915  0.00  0.00    +0.000 C 
ATOM     22  F   UNL     1       0.198   9.506  23.144  0.00  0.00    +0.000 F 
ATOM     23  F   UNL     1      -0.734   8.177  21.708  0.00  0.00    +0.000 F 
ATOM     24  F   UNL     1       1.404   8.046  22.082  0.00  0.00    +0.000 F 
ENDBRANCH  19  21
ENDBRANCH   6  15
BRANCH   1  25
ATOM     25  N   UNL     1      -3.677  12.830  19.996  0.00  0.00    +0.000 N 
ATOM     26  H   UNL     1      -4.157  12.282  20.703  0.00  0.00    +0.000 HD
BRANCH  25  31
ATOM     27  C   UNL     1      -3.046   9.755  15.198  0.00  0.00    +0.000 C 
ATOM     28  C   UNL     1      -3.223  10.538  16.462  0.00  0.00    +0.000 A 
ATOM     29  C   UNL     1      -2.187  10.599  17.395  0.00  0.00    +0.000 A 
ATOM     30  C   UNL     1      -2.339  11.337  18.565  0.00  0.00    +0.000 A 
ATOM     31  C   UNL     1      -3.528  12.022  18.841  0.00  0.00    +0.000 A 
ATOM     32  C   UNL     1      -4.579  11.926  17.921  0.00  0.00    +0.000 A 
ATOM     33  C   UNL     1      -4.430  11.181  16.746  0.00  0.00    +0.000 A 
ENDBRANCH  25  31
ENDBRANCH   1  25
TORSDOF 4
ENDMDL
MODEL 2
REMARK VINA RESULT:      -8.1      1.581      2.092
REMARK  Name = 
REMARK  7 active torsions:
REMARK  status: ('A' for Active; 'I' for Inactive)
REMARK    1  A    between atoms: C_1  and  C_2
REMARK    2  A    between atoms: C_5  and  N_6
REMARK    3  A    between atoms: N_6  and  C_7
REMARK    4  A    between atoms: C_9  and  C_10
REMARK    5  A    between atoms: C_12  and  C_14
REMARK    6  A    between atoms: C_18  and  C_19
REMARK    7  A    between atoms: C_27  and  C_28
REMARK                            x       y       z     vdW  Elec       q    Type
REMARK                         _______ _______ _______ _____ _____    ______ ____
ROOT
ATOM      1  C   UNL     1      -2.604  13.361  20.801  0.00  0.00    +0.000 C 
ATOM      2  C   UNL     1      -2.329  14.929  20.941  0.00  0.00    +0.000 C 
ATOM      3  C   UNL     1      -0.945  15.216  21.652  0.00  0.00    +0.000 C 
ATOM      4  C   UNL     1      -0.847  16.417  22.614  0.00  0.00    +0.000 C 
ATOM      5  N   UNL     1      -0.494  13.936  22.274  0.00  0.00    +0.000 N 
ATOM      6  C   UNL     1       0.334  13.214  21.310  0.00  0.00    +0.000 C 
ATOM      7  O   UNL     1       1.009  13.826  20.470  0.00  0.00    +0.000 OA
ATOM      8  C   UNL     1      -1.635  13.399  23.018  0.00  0.00    +0.000 A 
ATOM      9  C   UNL     1      -2.130  14.078  24.157  0.00  0.00    +0.000 A 
ATOM     10  C   UNL     1      -3.501  14.052  24.510  0.00  0.00    +0.000 A 
ATOM     11  C   UNL     1      -4.371  13.165  23.883  0.00  0.00    +0.000 A 
ATOM     12  C   UNL     1      -5.843  13.119  24.191  0.00  0.00    +0.000 C 
ATOM     13  C   UNL     1      -3.874  12.427  22.815  0.00  0.00    +0.000 A 
ATOM     14  C   UNL     1      -2.640  12.812  22.249  0.00  0.00    +0.000 A 
ENDROOT
BRANCH   6  15
ATOM     15  C   UNL     1       0.358  11.732  21.099  0.00  0.00    +0.000 A 
ATOM     16  C   UNL     1      -0.057  10.840  22.075  0.00  0.00    +0.000 A 
ATOM     17  C   UNL     1       0.064   9.465  21.845  0.00  0.00    +0.000 A 
ATOM     18  C   UNL     1       0.570   8.969  20.624  0.00  0.00    +0.000 A 
ATOM     19  C   UNL     1       1.001   9.836  19.633  0.00  0.00    +0.000 A 
ATOM     20  C   UNL     1       0.911  11.220  19.882  0.00  0.00    +0.000 A 
BRANCH  19  21
ATOM     21  C   UNL     1       1.519   9.268  18.317  0.00  0.00    +0.000 C 
ATOM     22  F   UNL     1       2.241  10.181  17.594  0.00  0.00    +0.000 F 
ATOM     23  F   UNL     1       2.352   8.203  18.474  0.00  0.00    +0.000 F 
ATOM     24  F   UNL     1       0.529   8.850  17.479  0.00  0.00    +0.000 F 
ENDBRANCH  19  21
ENDBRANCH   6  15
BRANCH   1  25
ATOM     25  N   UNL     1      -3.816  13.046  20.029  0.00  0.00    +0.000 N 
ATOM     26  H   UNL     1      -4.537  12.615  20.597  0.00  0.00    +0.000 HD
BRANCH  25  31
ATOM     27  C   UNL     1      -2.736   9.741  15.469  0.00  0.00    +0.000 C 
ATOM     28  C   UNL     1      -3.025  10.583  16.674  0.00  0.00    +0.000 A 
ATOM     29  C   UNL     1      -1.986  10.959  17.527  0.00  0.00    +0.000 A 
ATOM     30  C   UNL     1      -2.245  11.753  18.640  0.00  0.00    +0.000 A 
ATOM     31  C   UNL     1      -3.543  12.184  18.937  0.00  0.00    +0.000 A 
ATOM     32  C   UNL     1      -4.588  11.773  18.100  0.00  0.00    +0.000 A 
ATOM     33  C   UNL     1      -4.330  10.971  16.983  0.00  0.00    +0.000 A 
ENDBRANCH  25  31
ENDBRANCH   1  25
TORSDOF 4
ENDMDL
MODEL 3
REMARK VINA RESULT:      -8.0      1.562      2.217
REMARK  Name = 
REMARK  7 active torsions:
REMARK  status: ('A' for Active; 'I' for Inactive)
REMARK    1  A    between atoms: C_1  and  C_2
REMARK    2  A    between atoms: C_5  and  N_6
REMARK    3  A    between atoms: N_6  and  C_7
REMARK    4  A    between atoms: C_9  and  C_10
REMARK    5  A    between atoms: C_12  and  C_14
REMARK    6  A    between atoms: C_18  and  C_19
REMARK    7  A    between atoms: C_27  and  C_28
REMARK                            x       y       z     vdW  Elec       q    Type
REMARK                         _______ _______ _______ _____ _____    ______ ____
ROOT
ATOM      1  C   UNL     1      -2.684  13.376  20.807  0.00  0.00    +0.000 C 
ATOM      2  C   UNL     1      -2.430  14.949  20.924  0.00  0.00    +0.000 C 
ATOM      3  C   UNL     1      -1.039  15.264  21.612  0.00  0.00    +0.000 C 
ATOM      4  C   UNL     1      -0.946  16.478  22.558  0.00  0.00    +0.000 C 
ATOM      5  N   UNL     1      -0.561  13.998  22.241  0.00  0.00    +0.000 N 
ATOM      6  C   UNL     1       0.264  13.278  21.273  0.00  0.00    +0.000 C 
ATOM      7  O   UNL     1       0.917  13.890  20.416  0.00  0.00    +0.000 OA
ATOM      8  C   UNL     1      -1.682  13.454  23.008  0.00  0.00    +0.000 A 
ATOM      9  C   UNL     1      -2.171  14.139  24.147  0.00  0.00    +0.000 A 
ATOM     10  C   UNL     1      -3.536  14.097  24.521  0.00  0.00    +0.000 A 
ATOM     11  C   UNL     1      -4.402  13.190  23.916  0.00  0.00    +0.000 A 
ATOM     12  C   UNL     1      -5.868  13.127  24.248  0.00  0.00    +0.000 C 
ATOM     13  C   UNL     1      -3.909  12.447  22.850  0.00  0.00    +0.000 A 
ATOM     14  C   UNL     1      -2.690  12.843  22.262  0.00  0.00    +0.000 A 
ENDROOT
BRANCH   6  15
ATOM     15  C   UNL     1       0.306  11.794  21.078  0.00  0.00    +0.000 A 
ATOM     16  C   UNL     1      -0.076  10.907  22.072  0.00  0.00    +0.000 A 
ATOM     17  C   UNL     1       0.062   9.532  21.855  0.00  0.00    +0.000 A 
ATOM     18  C   UNL     1       0.551   9.029  20.631  0.00  0.00    +0.000 A 
ATOM     19  C   UNL     1       0.950   9.891  19.622  0.00  0.00    +0.000 A 
ATOM     20  C   UNL     1       0.843  11.276  19.856  0.00  0.00    +0.000 A 
BRANCH  19  21
ATOM     21  C   UNL     1       1.451   9.316  18.302  0.00  0.00    +0.000 C 
ATOM     22  F   UNL     1       2.188   8.173  18.469  0.00  0.00    +0.000 F 
ATOM     23  F   UNL     1       0.452   8.971  17.444  0.00  0.00    +0.000 F 
ATOM     24  F   UNL     1       2.261  10.167  17.612  0.00  0.00    +0.000 F 
ENDBRANCH  19  21
ENDBRANCH   6  15
BRANCH   1  25
ATOM     25  N   UNL     1      -3.902  13.035  20.056  0.00  0.00    +0.000 N 
ATOM     26  H   UNL     1      -4.577  12.528  20.621  0.00  0.00    +0.000 HD
BRANCH  25  31
ATOM     27  C   UNL     1      -2.719   9.702  15.543  0.00  0.00    +0.000 C 
ATOM     28  C   UNL     1      -3.023  10.593  16.708  0.00  0.00    +0.000 A 
ATOM     29  C   UNL     1      -4.339  10.972  16.971  0.00  0.00    +0.000 A 
ATOM     30  C   UNL     1      -4.630  11.789  18.060  0.00  0.00    +0.000 A 
ATOM     31  C   UNL     1      -3.619  12.256  18.906  0.00  0.00    +0.000 A 
ATOM     32  C   UNL     1      -2.294  11.905  18.616  0.00  0.00    +0.000 A 
ATOM     33  C   UNL     1      -1.999  11.089  17.519  0.00  0.00    +0.000 A 
ENDBRANCH  25  31
ENDBRANCH   1  25
TORSDOF 4
ENDMDL
MODEL 4
REMARK VINA RESULT:      -7.9      0.306      1.082
REMARK  Name = 
REMARK  7 active torsions:
REMARK  status: ('A' for Active; 'I' for Inactive)
REMARK    1  A    between atoms: C_1  and  C_2
REMARK    2  A    between atoms: C_5  and  N_6
REMARK    3  A    between atoms: N_6  and  C_7
REMARK    4  A    between atoms: C_9  and  C_10
REMARK    5  A    between atoms: C_12  and  C_14
REMARK    6  A    between atoms: C_18  and  C_19
REMARK    7  A    between atoms: C_27  and  C_28
REMARK                            x       y       z     vdW  Elec       q    Type
REMARK                         _______ _______ _______ _____ _____    ______ ____
ROOT
ATOM      1  C   UNL     1      -2.608  13.462  20.592  0.00  0.00    +0.000 C 
ATOM      2  C   UNL     1      -2.646  15.053  20.741  0.00  0.00    +0.000 C 
ATOM      3  C   UNL     1      -1.231  15.633  21.147  0.00  0.00    +0.000 C 
ATOM      4  C   UNL     1      -1.177  16.828  22.119  0.00  0.00    +0.000 C 
ATOM      5  N   UNL     1      -0.393  14.482  21.596  0.00  0.00    +0.000 N 
ATOM      6  C   UNL     1       0.333  13.954  20.442  0.00  0.00    +0.000 C 
ATOM      7  O   UNL     1       0.660  14.697  19.505  0.00  0.00    +0.000 OA
ATOM      8  C   UNL     1      -1.200  13.713  22.544  0.00  0.00    +0.000 A 
ATOM      9  C   UNL     1      -1.562  14.270  23.794  0.00  0.00    +0.000 A 
ATOM     10  C   UNL     1      -2.783  13.949  24.435  0.00  0.00    +0.000 A 
ATOM     11  C   UNL     1      -3.563  12.894  23.971  0.00  0.00    +0.000 A 
ATOM     12  C   UNL     1      -4.886  12.532  24.590  0.00  0.00    +0.000 C 
ATOM     13  C   UNL     1      -3.172  12.279  22.788  0.00  0.00    +0.000 A 
ATOM     14  C   UNL     1      -2.204  12.920  21.986  0.00  0.00    +0.000 A 
ENDROOT
BRANCH   6  15
ATOM     15  C   UNL     1       0.621  12.513  20.162  0.00  0.00    +0.000 A 
ATOM     16  C   UNL     1       1.080  12.077  18.928  0.00  0.00    +0.000 A 
ATOM     17  C   UNL     1       1.255  10.707  18.705  0.00  0.00    +0.000 A 
ATOM     18  C   UNL     1       1.005   9.762  19.722  0.00  0.00    +0.000 A 
ATOM     19  C   UNL     1       0.536  10.165  20.963  0.00  0.00    +0.000 A 
ATOM     20  C   UNL     1       0.327  11.543  21.173  0.00  0.00    +0.000 A 
BRANCH  19  21
ATOM     21  C   UNL     1       0.299   9.122  22.048  0.00  0.00    +0.000 C 
ATOM     22  F   UNL     1       1.446   8.466  22.411  0.00  0.00    +0.000 F 
ATOM     23  F   UNL     1      -0.192   9.642  23.206  0.00  0.00    +0.000 F 
ATOM     24  F   UNL     1      -0.572   8.142  21.678  0.00  0.00    +0.000 F 
ENDBRANCH  19  21
ENDBRANCH   6  15
BRANCH   1  25
ATOM     25  N   UNL     1      -3.866  12.892  20.088  0.00  0.00    +0.000 N 
ATOM     26  H   UNL     1      -4.311  12.276  20.761  0.00  0.00    +0.000 HD
BRANCH  25  31
ATOM     27  C   UNL     1      -3.108   9.755  15.348  0.00  0.00    +0.000 C 
ATOM     28  C   UNL     1      -3.296  10.595  16.574  0.00  0.00    +0.000 A 
ATOM     29  C   UNL     1      -4.533  11.187  16.830  0.00  0.00    +0.000 A 
ATOM     30  C   UNL     1      -4.720  11.957  17.975  0.00  0.00    +0.000 A 
ATOM     31  C   UNL     1      -3.678  12.165  18.885  0.00  0.00    +0.000 A 
ATOM     32  C   UNL     1      -2.427  11.601  18.605  0.00  0.00    +0.000 A 
ATOM     33  C   UNL     1      -2.236  10.831  17.452  0.00  0.00    +0.000 A 
ENDBRANCH  25  31
ENDBRANCH   1  25
TORSDOF 4
ENDMDL
MODEL 5
REMARK VINA RESULT:      -7.9      3.191      5.896
REMARK  Name = 
REMARK  7 active torsions:
REMARK  status: ('A' for Active; 'I' for Inactive)
REMARK    1  A    between atoms: C_1  and  C_2
REMARK    2  A    between atoms: C_5  and  N_6
REMARK    3  A    between atoms: N_6  and  C_7
REMARK    4  A    between atoms: C_9  and  C_10
REMARK    5  A    between atoms: C_12  and  C_14
REMARK    6  A    between atoms: C_18  and  C_19
REMARK    7  A    between atoms: C_27  and  C_28
REMARK                            x       y       z     vdW  Elec       q    Type
REMARK                         _______ _______ _______ _____ _____    ______ ____
ROOT
ATOM      1  C   UNL     1      -4.020  13.474  21.764  0.00  0.00    +0.000 C 
ATOM      2  C   UNL     1      -4.721  13.221  23.177  0.00  0.00    +0.000 C 
ATOM      3  C   UNL     1      -6.266  12.918  23.014  0.00  0.00    +0.000 C 
ATOM      4  C   UNL     1      -7.239  13.468  24.076  0.00  0.00    +0.000 C 
ATOM      5  N   UNL     1      -6.647  13.301  21.623  0.00  0.00    +0.000 N 
ATOM      6  C   UNL     1      -6.491  12.134  20.757  0.00  0.00    +0.000 C 
ATOM      7  O   UNL     1      -6.645  10.988  21.203  0.00  0.00    +0.000 OA
ATOM      8  C   UNL     1      -6.107  14.641  21.388  0.00  0.00    +0.000 A 
ATOM      9  C   UNL     1      -6.607  15.753  22.107  0.00  0.00    +0.000 A 
ATOM     10  C   UNL     1      -5.789  16.856  22.450  0.00  0.00    +0.000 A 
ATOM     11  C   UNL     1      -4.524  16.994  21.887  0.00  0.00    +0.000 A 
ATOM     12  C   UNL     1      -3.598  18.125  22.242  0.00  0.00    +0.000 C 
ATOM     13  C   UNL     1      -4.053  15.945  21.106  0.00  0.00    +0.000 A 
ATOM     14  C   UNL     1      -4.732  14.710  21.158  0.00  0.00    +0.000 A 
ENDROOT
BRANCH   6  15
ATOM     15  C   UNL     1      -5.992  12.140  19.346  0.00  0.00    +0.000 A 
ATOM     16  C   UNL     1      -6.601  12.889  18.351  0.00  0.00    +0.000 A 
ATOM     17  C   UNL     1      -6.135  12.790  17.035  0.00  0.00    +0.000 A 
ATOM     18  C   UNL     1      -5.036  11.968  16.708  0.00  0.00    +0.000 A 
ATOM     19  C   UNL     1      -4.413  11.201  17.679  0.00  0.00    +0.000 A 
ATOM     20  C   UNL     1      -4.907  11.275  18.996  0.00  0.00    +0.000 A 
BRANCH  19  21
ATOM     21  C   UNL     1      -3.213  10.342  17.297  0.00  0.00    +0.000 C 
ATOM     22  F   UNL     1      -3.350   9.758  16.066  0.00  0.00    +0.000 F 
ATOM     23  F   UNL     1      -2.044  11.038  17.230  0.00  0.00    +0.000 F 
ATOM     24  F   UNL     1      -2.986   9.312  18.159  0.00  0.00    +0.000 F 
ENDBRANCH  19  21
ENDBRANCH   6  15
BRANCH   1  25
ATOM     25  N   UNL     1      -2.560  13.630  21.855  0.00  0.00    +0.000 N 
ATOM     26  H   UNL     1      -2.190  14.246  21.138  0.00  0.00    +0.000 HD
BRANCH  25  31
ATOM     27  C   UNL     1       0.367   8.719  21.411  0.00  0.00    +0.000 C 
ATOM     28  C   UNL     1      -0.420   9.989  21.523  0.00  0.00    +0.000 A 
ATOM     29  C   UNL     1      -0.798  10.466  22.778  0.00  0.00    +0.000 A 
ATOM     30  C   UNL     1      -1.516  11.653  22.890  0.00  0.00    +0.000 A 
ATOM     31  C   UNL     1      -1.885  12.387  21.757  0.00  0.00    +0.000 A 
ATOM     32  C   UNL     1      -1.537  11.884  20.497  0.00  0.00    +0.000 A 
ATOM     33  C   UNL     1      -0.819  10.689  20.382  0.00  0.00    +0.000 A 
ENDBRANCH  25  31
ENDBRANCH   1  25
TORSDOF 4
ENDMDL
MODEL 6
REMARK VINA RESULT:      -7.8      0.717      1.322
REMARK  Name = 
REMARK  7 active torsions:
REMARK  status: ('A' for Active; 'I' for Inactive)
REMARK    1  A    between atoms: C_1  and  C_2
REMARK    2  A    between atoms: C_5  and  N_6
REMARK    3  A    between atoms: N_6  and  C_7
REMARK    4  A    between atoms: C_9  and  C_10
REMARK    5  A    between atoms: C_12  and  C_14
REMARK    6  A    between atoms: C_18  and  C_19
REMARK    7  A    between atoms: C_27  and  C_28
REMARK                            x       y       z     vdW  Elec       q    Type
REMARK                         _______ _______ _______ _____ _____    ______ ____
ROOT
ATOM      1  C   UNL     1      -1.923  13.081  20.031  0.00  0.00    +0.000 C 
ATOM      2  C   UNL     1      -1.844  14.675  20.087  0.00  0.00    +0.000 C 
ATOM      3  C   UNL     1      -0.372  15.175  20.388  0.00  0.00    +0.000 C 
ATOM      4  C   UNL     1      -0.186  16.416  21.284  0.00  0.00    +0.000 C 
ATOM      5  N   UNL     1       0.407  13.994  20.862  0.00  0.00    +0.000 N 
ATOM      6  C   UNL     1       1.033  13.353  19.708  0.00  0.00    +0.000 C 
ATOM      7  O   UNL     1       1.359  14.016  18.713  0.00  0.00    +0.000 OA
ATOM      8  C   UNL     1      -0.399  13.338  21.893  0.00  0.00    +0.000 A 
ATOM      9  C   UNL     1      -0.655  13.989  23.124  0.00  0.00    +0.000 A 
ATOM     10  C   UNL     1      -1.859  13.792  23.842  0.00  0.00    +0.000 A 
ATOM     11  C   UNL     1      -2.733  12.771  23.481  0.00  0.00    +0.000 A 
ATOM     12  C   UNL     1      -4.043  12.539  24.184  0.00  0.00    +0.000 C 
ATOM     13  C   UNL     1      -2.448  12.065  22.318  0.00  0.00    +0.000 A 
ATOM     14  C   UNL     1      -1.483  12.590  21.433  0.00  0.00    +0.000 A 
ENDROOT
BRANCH   6  15
ATOM     15  C   UNL     1       1.207  11.881  19.499  0.00  0.00    +0.000 A 
ATOM     16  C   UNL     1       1.619  11.350  18.287  0.00  0.00    +0.000 A 
ATOM     17  C   UNL     1       1.686   9.961  18.133  0.00  0.00    +0.000 A 
ATOM     18  C   UNL     1       1.373   9.090  19.198  0.00  0.00    +0.000 A 
ATOM     19  C   UNL     1       0.948   9.590  20.419  0.00  0.00    +0.000 A 
ATOM     20  C   UNL     1       0.848  10.988  20.560  0.00  0.00    +0.000 A 
BRANCH  19  21
ATOM     21  C   UNL     1       0.641   8.624  21.557  0.00  0.00    +0.000 C 
ATOM     22  F   UNL     1       1.197   7.387  21.365  0.00  0.00    +0.000 F 
ATOM     23  F   UNL     1       1.109   9.040  22.765  0.00  0.00    +0.000 F 
ATOM     24  F   UNL     1      -0.691   8.395  21.729  0.00  0.00    +0.000 F 
ENDBRANCH  19  21
ENDBRANCH   6  15
BRANCH   1  25
ATOM     25  N   UNL     1      -3.242  12.574  19.624  0.00  0.00    +0.000 N 
ATOM     26  H   UNL     1      -3.653  11.960  20.319  0.00  0.00    +0.000 HD
BRANCH  25  31
ATOM     27  C   UNL     1      -3.052   9.534  14.766  0.00  0.00    +0.000 C 
ATOM     28  C   UNL     1      -3.089  10.347  16.023  0.00  0.00    +0.000 A 
ATOM     29  C   UNL     1      -4.215  11.114  16.324  0.00  0.00    +0.000 A 
ATOM     30  C   UNL     1      -4.262  11.861  17.498  0.00  0.00    +0.000 A 
ATOM     31  C   UNL     1      -3.187  11.872  18.394  0.00  0.00    +0.000 A 
ATOM     32  C   UNL     1      -2.043  11.131  18.069  0.00  0.00    +0.000 A 
ATOM     33  C   UNL     1      -1.993  10.383  16.887  0.00  0.00    +0.000 A 
ENDBRANCH  25  31
ENDBRANCH   1  25
TORSDOF 4
ENDMDL
MODEL 7
REMARK VINA RESULT:      -7.7      3.689      6.381
REMARK  Name = 
REMARK  7 active torsions:
REMARK  status: ('A' for Active; 'I' for Inactive)
REMARK    1  A    between atoms: C_1  and  C_2
REMARK    2  A    between atoms: C_5  and  N_6
REMARK    3  A    between atoms: N_6  and  C_7
REMARK    4  A    between atoms: C_9  and  C_10
REMARK    5  A    between atoms: C_12  and  C_14
REMARK    6  A    between atoms: C_18  and  C_19
REMARK    7  A    between atoms: C_27  and  C_28
REMARK                            x       y       z     vdW  Elec       q    Type
REMARK                         _______ _______ _______ _____ _____    ______ ____
ROOT
ATOM      1  C   UNL     1      -1.842  12.776  20.120  0.00  0.00    +0.000 C 
ATOM      2  C   UNL     1      -1.583  11.644  21.218  0.00  0.00    +0.000 C 
ATOM      3  C   UNL     1      -0.046  11.521  21.576  0.00  0.00    +0.000 C 
ATOM      4  C   UNL     1       0.534  10.121  21.856  0.00  0.00    +0.000 C 
ATOM      5  N   UNL     1       0.713  12.264  20.527  0.00  0.00    +0.000 N 
ATOM      6  C   UNL     1       0.886  13.647  20.967  0.00  0.00    +0.000 C 
ATOM      7  O   UNL     1       0.961  13.924  22.172  0.00  0.00    +0.000 OA
ATOM      8  C   UNL     1       0.196  11.819  19.232  0.00  0.00    +0.000 A 
ATOM      9  C   UNL     1       0.397  10.486  18.799  0.00  0.00    +0.000 A 
ATOM     10  C   UNL     1      -0.544   9.809  17.987  0.00  0.00    +0.000 A 
ATOM     11  C   UNL     1      -1.589  10.509  17.391  0.00  0.00    +0.000 A 
ATOM     12  C   UNL     1      -2.638   9.836  16.548  0.00  0.00    +0.000 C 
ATOM     13  C   UNL     1      -1.747  11.845  17.741  0.00  0.00    +0.000 A 
ATOM     14  C   UNL     1      -1.049  12.332  18.865  0.00  0.00    +0.000 A 
ENDROOT
BRANCH   6  15
ATOM     15  C   UNL     1       0.833  14.865  20.098  0.00  0.00    +0.000 A 
ATOM     16  C   UNL     1      -0.266  15.710  20.077  0.00  0.00    +0.000 A 
ATOM     17  C   UNL     1      -0.287  16.788  19.186  0.00  0.00    +0.000 A 
ATOM     18  C   UNL     1       0.804  17.051  18.330  0.00  0.00    +0.000 A 
ATOM     19  C   UNL     1       1.912  16.219  18.320  0.00  0.00    +0.000 A 
ATOM     20  C   UNL     1       1.915  15.114  19.194  0.00  0.00    +0.000 A 
BRANCH  19  21
ATOM     21  C   UNL     1       3.083  16.545  17.402  0.00  0.00    +0.000 C 
ATOM     22  F   UNL     1       3.526  15.454  16.701  0.00  0.00    +0.000 F 
ATOM     23  F   UNL     1       2.790  17.478  16.455  0.00  0.00    +0.000 F 
ATOM     24  F   UNL     1       4.178  17.014  18.064  0.00  0.00    +0.000 F 
ENDBRANCH  19  21
ENDBRANCH   6  15
BRANCH   1  25
ATOM     25  N   UNL     1      -3.268  13.017  19.854  0.00  0.00    +0.000 N 
ATOM     26  H   UNL     1      -3.419  13.556  19.007  0.00  0.00    +0.000 HD
BRANCH  25  31
ATOM     27  C   UNL     1      -5.968  15.872  24.029  0.00  0.00    +0.000 C 
ATOM     28  C   UNL     1      -5.243  15.122  22.955  0.00  0.00    +0.000 A 
ATOM     29  C   UNL     1      -5.540  13.779  22.721  0.00  0.00    +0.000 A 
ATOM     30  C   UNL     1      -4.881  13.079  21.714  0.00  0.00    +0.000 A 
ATOM     31  C   UNL     1      -3.903  13.694  20.925  0.00  0.00    +0.000 A 
ATOM     32  C   UNL     1      -3.580  15.032  21.188  0.00  0.00    +0.000 A 
ATOM     33  C   UNL     1      -4.239  15.735  22.203  0.00  0.00    +0.000 A 
ENDBRANCH  25  31
ENDBRANCH   1  25
TORSDOF 4
ENDMDL
MODEL 8
REMARK VINA RESULT:      -7.6      1.866      2.577
REMARK  Name = 
REMARK  7 active torsions:
REMARK  status: ('A' for Active; 'I' for Inactive)
REMARK    1  A    between atoms: C_1  and  C_2
REMARK    2  A    between atoms: C_5  and  N_6
REMARK    3  A    between atoms: N_6  and  C_7
REMARK    4  A    between atoms: C_9  and  C_10
REMARK    5  A    between atoms: C_12  and  C_14
REMARK    6  A    between atoms: C_18  and  C_19
REMARK    7  A    between atoms: C_27  and  C_28
REMARK                            x       y       z     vdW  Elec       q    Type
REMARK                         _______ _______ _______ _____ _____    ______ ____
ROOT
ATOM      1  C   UNL     1      -4.114  13.554  20.823  0.00  0.00    +0.000 C 
ATOM      2  C   UNL     1      -4.125  15.140  20.637  0.00  0.00    +0.000 C 
ATOM      3  C   UNL     1      -2.939  15.827  21.429  0.00  0.00    +0.000 C 
ATOM      4  C   UNL     1      -3.195  17.192  22.099  0.00  0.00    +0.000 C 
ATOM      5  N   UNL     1      -2.391  14.810  22.374  0.00  0.00    +0.000 N 
ATOM      6  C   UNL     1      -1.312  14.084  21.706  0.00  0.00    +0.000 C 
ATOM      7  O   UNL     1      -0.620  14.636  20.839  0.00  0.00    +0.000 OA
ATOM      8  C   UNL     1      -3.534  14.222  23.075  0.00  0.00    +0.000 A 
ATOM      9  C   UNL     1      -4.310  15.005  23.962  0.00  0.00    +0.000 A 
ATOM     10  C   UNL     1      -5.697  14.785  24.142  0.00  0.00    +0.000 A 
ATOM     11  C   UNL     1      -6.298  13.639  23.630  0.00  0.00    +0.000 A 
ATOM     12  C   UNL     1      -7.773  13.371  23.759  0.00  0.00    +0.000 C 
ATOM     13  C   UNL     1      -5.522  12.813  22.826  0.00  0.00    +0.000 A 
ATOM     14  C   UNL     1      -4.292  13.309  22.342  0.00  0.00    +0.000 A 
ENDROOT
BRANCH   6  15
ATOM     15  C   UNL     1      -1.013  12.624  21.839  0.00  0.00    +0.000 A 
ATOM     16  C   UNL     1      -1.301  11.913  22.994  0.00  0.00    +0.000 A 
ATOM     17  C   UNL     1      -0.924  10.569  23.084  0.00  0.00    +0.000 A 
ATOM     18  C   UNL     1      -0.288   9.913  22.010  0.00  0.00    +0.000 A 
ATOM     19  C   UNL     1       0.022  10.599  20.846  0.00  0.00    +0.000 A 
ATOM     20  C   UNL     1      -0.326  11.962  20.772  0.00  0.00    +0.000 A 
BRANCH  19  21
ATOM     21  C   UNL     1       0.689   9.856  19.695  0.00  0.00    +0.000 C 
ATOM     22  F   UNL     1       1.299   8.697  20.096  0.00  0.00    +0.000 F 
ATOM     23  F   UNL     1      -0.179   9.478  18.716  0.00  0.00    +0.000 F 
ATOM     24  F   UNL     1       1.663  10.578  19.074  0.00  0.00    +0.000 F 
ENDBRANCH  19  21
ENDBRANCH   6  15
BRANCH   1  25
ATOM     25  N   UNL     1      -5.118  12.862  20.000  0.00  0.00    +0.000 N 
ATOM     26  H   UNL     1      -5.646  12.174  20.528  0.00  0.00    +0.000 HD
BRANCH  25  31
ATOM     27  C   UNL     1      -2.758  10.415  15.382  0.00  0.00    +0.000 C 
ATOM     28  C   UNL     1      -3.382  11.031  16.596  0.00  0.00    +0.000 A 
ATOM     29  C   UNL     1      -2.607  11.279  17.729  0.00  0.00    +0.000 A 
ATOM     30  C   UNL     1      -3.178  11.865  18.856  0.00  0.00    +0.000 A 
ATOM     31  C   UNL     1      -4.534  12.207  18.887  0.00  0.00    +0.000 A 
ATOM     32  C   UNL     1      -5.317  11.921  17.761  0.00  0.00    +0.000 A 
ATOM     33  C   UNL     1      -4.746  11.328  16.630  0.00  0.00    +0.000 A 
ENDBRANCH  25  31
ENDBRANCH   1  25
TORSDOF 4
ENDMDL
MODEL 9
REMARK VINA RESULT:      -7.5      3.283      5.747
REMARK  Name = 
REMARK  7 active torsions:
REMARK  status: ('A' for Active; 'I' for Inactive)
REMARK    1  A    between atoms: C_1  and  C_2
REMARK    2  A    between atoms: C_5  and  N_6
REMARK    3  A    between atoms: N_6  and  C_7
REMARK    4  A    between atoms: C_9  and  C_10
REMARK    5  A    between atoms: C_12  and  C_14
REMARK    6  A    between atoms: C_18  and  C_19
REMARK    7  A    between atoms: C_27  and  C_28
REMARK                            x       y       z     vdW  Elec       q    Type
REMARK                         _______ _______ _______ _____ _____    ______ ____
ROOT
ATOM      1  C   UNL     1      -4.280  13.467  21.774  0.00  0.00    +0.000 C 
ATOM      2  C   UNL     1      -5.023  13.138  23.150  0.00  0.00    +0.000 C 
ATOM      3  C   UNL     1      -6.532  12.727  22.912  0.00  0.00    +0.000 C 
ATOM      4  C   UNL     1      -7.589  13.186  23.937  0.00  0.00    +0.000 C 
ATOM      5  N   UNL     1      -6.878  13.107  21.511  0.00  0.00    +0.000 N 
ATOM      6  C   UNL     1      -6.599  11.971  20.636  0.00  0.00    +0.000 C 
ATOM      7  O   UNL     1      -6.689  10.809  21.058  0.00  0.00    +0.000 OA
ATOM      8  C   UNL     1      -6.427  14.486  21.320  0.00  0.00    +0.000 A 
ATOM      9  C   UNL     1      -7.039  15.546  22.033  0.00  0.00    +0.000 A 
ATOM     10  C   UNL     1      -6.319  16.699  22.429  0.00  0.00    +0.000 A 
ATOM     11  C   UNL     1      -5.044  16.938  21.926  0.00  0.00    +0.000 A 
ATOM     12  C   UNL     1      -4.220  18.127  22.340  0.00  0.00    +0.000 C 
ATOM     13  C   UNL     1      -4.463  15.941  21.152  0.00  0.00    +0.000 A 
ATOM     14  C   UNL     1      -5.052  14.659  21.155  0.00  0.00    +0.000 A 
ENDROOT
BRANCH   6  15
ATOM     15  C   UNL     1      -6.040  12.038  19.249  0.00  0.00    +0.000 A 
ATOM     16  C   UNL     1      -6.571  12.873  18.278  0.00  0.00    +0.000 A 
ATOM     17  C   UNL     1      -6.053  12.831  16.979  0.00  0.00    +0.000 A 
ATOM     18  C   UNL     1      -4.978  11.980  16.646  0.00  0.00    +0.000 A 
ATOM     19  C   UNL     1      -4.432  11.127  17.592  0.00  0.00    +0.000 A 
ATOM     20  C   UNL     1      -4.979  11.146  18.890  0.00  0.00    +0.000 A 
BRANCH  19  21
ATOM     21  C   UNL     1      -3.256  10.238  17.207  0.00  0.00    +0.000 C 
ATOM     22  F   UNL     1      -2.740   9.552  18.274  0.00  0.00    +0.000 F 
ATOM     23  F   UNL     1      -3.573   9.282  16.291  0.00  0.00    +0.000 F 
ATOM     24  F   UNL     1      -2.204  10.927  16.682  0.00  0.00    +0.000 F 
ENDBRANCH  19  21
ENDBRANCH   6  15
BRANCH   1  25
ATOM     25  N   UNL     1      -2.840  13.725  21.934  0.00  0.00    +0.000 N 
ATOM     26  H   UNL     1      -2.591  14.684  21.710  0.00  0.00    +0.000 HD
BRANCH  25  31
ATOM     27  C   UNL     1       0.525  10.405  18.690  0.00  0.00    +0.000 C 
ATOM     28  C   UNL     1      -0.375  11.260  19.527  0.00  0.00    +0.000 A 
ATOM     29  C   UNL     1      -0.664  10.891  20.841  0.00  0.00    +0.000 A 
ATOM     30  C   UNL     1      -1.488  11.689  21.629  0.00  0.00    +0.000 A 
ATOM     31  C   UNL     1      -2.052  12.867  21.127  0.00  0.00    +0.000 A 
ATOM     32  C   UNL     1      -1.791  13.214  19.795  0.00  0.00    +0.000 A 
ATOM     33  C   UNL     1      -0.967  12.411  19.000  0.00  0.00    +0.000 A 
ENDBRANCH  25  31
ENDBRANCH   1  25
TORSDOF 4
ENDMDL
