MODEL 1
REMARK VINA RESULT:      -7.6      0.000      0.000
REMARK  Name = 
REMARK  3 active torsions:
REMARK  status: ('A' for Active; 'I' for Inactive)
REMARK    1  A    between atoms: C_7  and  N_8
REMARK    2  A    between atoms: N_11  and  C_12
REMARK    3  A    between atoms: C_12  and  C_13
REMARK                            x       y       z     vdW  Elec       q    Type
REMARK                         _______ _______ _______ _____ _____    ______ ____
ROOT
ATOM      1  N   UNL     1       4.317   4.524  18.296  0.00  0.00    +0.000 N 
ATOM      2  C   UNL     1       4.209   4.535  16.832  0.00  0.00    +0.000 C 
ATOM      3  C   UNL     1       5.014   5.721  16.233  0.00  0.00    +0.000 C 
ATOM      4  N   UNL     1       6.417   5.857  16.699  0.00  0.00    +0.000 NA
ATOM      5  C   UNL     1       6.399   5.846  18.183  0.00  0.00    +0.000 C 
ATOM      6  C   UNL     1       5.694   4.626  18.818  0.00  0.00    +0.000 C 
ENDROOT
BRANCH   1  13
ATOM      7 CL   UNL     1       3.518   1.395  18.494  0.00  0.00    +0.000 Cl
ATOM      8  C   UNL     1       2.785   2.778  19.243  0.00  0.00    +0.000 A 
ATOM      9  C   UNL     1       1.671   2.483  20.053  0.00  0.00    +0.000 A 
ATOM     10  C   UNL     1       1.041   3.478  20.791  0.00  0.00    +0.000 A 
ATOM     11  C   UNL     1       1.521   4.775  20.722  0.00  0.00    +0.000 A 
ATOM     12  C   UNL     1       2.614   5.074  19.900  0.00  0.00    +0.000 A 
ATOM     13  C   UNL     1       3.285   4.096  19.128  0.00  0.00    +0.000 A 
ENDBRANCH   1  13
BRANCH   4  14
ATOM     14  C   UNL     1       7.247   4.774  16.137  0.00  0.00    +0.000 C 
BRANCH  14  15
ATOM     15  C   UNL     1       7.136   4.657  14.654  0.00  0.00    +0.000 A 
ATOM     16  C   UNL     1       6.382   3.866  13.813  0.00  0.00    +0.000 A 
ATOM     17  C   UNL     1       6.742   4.229  12.493  0.00  0.00    +0.000 A 
ATOM     18  C   UNL     1       7.687   5.222  12.613  0.00  0.00    +0.000 A 
ATOM     19  O   UNL     1       7.931   5.491  13.921  0.00  0.00    +0.000 OA
ENDBRANCH  14  15
ENDBRANCH   4  14
TORSDOF 3
ENDMDL
MODEL 2
REMARK VINA RESULT:      -7.4      1.362      1.739
REMARK  Name = 
REMARK  3 active torsions:
REMARK  status: ('A' for Active; 'I' for Inactive)
REMARK    1  A    between atoms: C_7  and  N_8
REMARK    2  A    between atoms: N_11  and  C_12
REMARK    3  A    between atoms: C_12  and  C_13
REMARK                            x       y       z     vdW  Elec       q    Type
REMARK                         _______ _______ _______ _____ _____    ______ ____
ROOT
ATOM      1  N   UNL     1       4.317   4.751  18.361  0.00  0.00    +0.000 N 
ATOM      2  C   UNL     1       4.189   4.744  16.898  0.00  0.00    +0.000 C 
ATOM      3  C   UNL     1       5.070   5.856  16.266  0.00  0.00    +0.000 C 
ATOM      4  N   UNL     1       6.486   5.898  16.710  0.00  0.00    +0.000 NA
ATOM      5  C   UNL     1       6.489   5.915  18.195  0.00  0.00    +0.000 C 
ATOM      6  C   UNL     1       5.706   4.761  18.862  0.00  0.00    +0.000 C 
ENDROOT
BRANCH   1  13
ATOM      7 CL   UNL     1       2.361   7.022  19.578  0.00  0.00    +0.000 Cl
ATOM      8  C   UNL     1       2.400   5.313  19.876  0.00  0.00    +0.000 A 
ATOM      9  C   UNL     1       1.431   4.857  20.793  0.00  0.00    +0.000 A 
ATOM     10  C   UNL     1       1.281   3.500  21.056  0.00  0.00    +0.000 A 
ATOM     11  C   UNL     1       2.099   2.592  20.407  0.00  0.00    +0.000 A 
ATOM     12  C   UNL     1       3.077   3.046  19.512  0.00  0.00    +0.000 A 
ATOM     13  C   UNL     1       3.269   4.415  19.215  0.00  0.00    +0.000 A 
ENDBRANCH   1  13
BRANCH   4  14
ATOM     14  C   UNL     1       7.226   4.746  16.158  0.00  0.00    +0.000 C 
BRANCH  14  15
ATOM     15  C   UNL     1       7.128   4.642  14.673  0.00  0.00    +0.000 A 
ATOM     16  C   UNL     1       6.387   3.854  13.818  0.00  0.00    +0.000 A 
ATOM     17  C   UNL     1       6.756   4.232  12.505  0.00  0.00    +0.000 A 
ATOM     18  C   UNL     1       7.694   5.229  12.642  0.00  0.00    +0.000 A 
ATOM     19  O   UNL     1       7.924   5.488  13.955  0.00  0.00    +0.000 OA
ENDBRANCH  14  15
ENDBRANCH   4  14
TORSDOF 3
ENDMDL
MODEL 3
REMARK VINA RESULT:      -7.3      1.170      1.314
REMARK  Name = 
REMARK  3 active torsions:
REMARK  status: ('A' for Active; 'I' for Inactive)
REMARK    1  A    between atoms: C_7  and  N_8
REMARK    2  A    between atoms: N_11  and  C_12
REMARK    3  A    between atoms: C_12  and  C_13
REMARK                            x       y       z     vdW  Elec       q    Type
REMARK                         _______ _______ _______ _____ _____    ______ ____
ROOT
ATOM      1  N   UNL     1       4.217   4.233  18.514  0.00  0.00    +0.000 N 
ATOM      2  C   UNL     1       4.122   4.274  17.049  0.00  0.00    +0.000 C 
ATOM      3  C   UNL     1       4.881   5.506  16.484  0.00  0.00    +0.000 C 
ATOM      4  N   UNL     1       6.272   5.693  16.967  0.00  0.00    +0.000 NA
ATOM      5  C   UNL     1       6.240   5.647  18.451  0.00  0.00    +0.000 C 
ATOM      6  C   UNL     1       5.584   4.383  19.051  0.00  0.00    +0.000 C 
ENDROOT
BRANCH   1  13
ATOM      7 CL   UNL     1       1.118   4.434  17.608  0.00  0.00    +0.000 Cl
ATOM      8  C   UNL     1       1.808   3.842  19.086  0.00  0.00    +0.000 A 
ATOM      9  C   UNL     1       0.865   3.387  20.031  0.00  0.00    +0.000 A 
ATOM     10  C   UNL     1       1.275   2.798  21.221  0.00  0.00    +0.000 A 
ATOM     11  C   UNL     1       2.629   2.662  21.476  0.00  0.00    +0.000 A 
ATOM     12  C   UNL     1       3.566   3.134  20.548  0.00  0.00    +0.000 A 
ATOM     13  C   UNL     1       3.197   3.742  19.326  0.00  0.00    +0.000 A 
ENDBRANCH   1  13
BRANCH   4  14
ATOM     14  C   UNL     1       7.153   4.659  16.389  0.00  0.00    +0.000 C 
BRANCH  14  15
ATOM     15  C   UNL     1       7.061   4.572  14.903  0.00  0.00    +0.000 A 
ATOM     16  C   UNL     1       6.307   3.809  14.036  0.00  0.00    +0.000 A 
ATOM     17  C   UNL     1       6.692   4.192  12.729  0.00  0.00    +0.000 A 
ATOM     18  C   UNL     1       7.650   5.167  12.881  0.00  0.00    +0.000 A 
ATOM     19  O   UNL     1       7.879   5.408  14.197  0.00  0.00    +0.000 OA
ENDBRANCH  14  15
ENDBRANCH   4  14
TORSDOF 3
ENDMDL
MODEL 4
REMARK VINA RESULT:      -7.1      1.626      2.024
REMARK  Name = 
REMARK  3 active torsions:
REMARK  status: ('A' for Active; 'I' for Inactive)
REMARK    1  A    between atoms: C_7  and  N_8
REMARK    2  A    between atoms: N_11  and  C_12
REMARK    3  A    between atoms: C_12  and  C_13
REMARK                            x       y       z     vdW  Elec       q    Type
REMARK                         _______ _______ _______ _____ _____    ______ ____
ROOT
ATOM      1  N   UNL     1       4.630   4.937  18.192  0.00  0.00    +0.000 N 
ATOM      2  C   UNL     1       4.381   4.777  16.753  0.00  0.00    +0.000 C 
ATOM      3  C   UNL     1       5.149   5.854  15.940  0.00  0.00    +0.000 C 
ATOM      4  N   UNL     1       6.594   5.998  16.252  0.00  0.00    +0.000 NA
ATOM      5  C   UNL     1       6.720   6.166  17.721  0.00  0.00    +0.000 C 
ATOM      6  C   UNL     1       6.054   5.055  18.564  0.00  0.00    +0.000 C 
ENDROOT
BRANCH   1  13
ATOM      7 CL   UNL     1       2.446   7.145  19.098  0.00  0.00    +0.000 Cl
ATOM      8  C   UNL     1       2.725   5.543  19.705  0.00  0.00    +0.000 A 
ATOM      9  C   UNL     1       1.867   5.158  20.755  0.00  0.00    +0.000 A 
ATOM     10  C   UNL     1       1.911   3.869  21.276  0.00  0.00    +0.000 A 
ATOM     11  C   UNL     1       2.813   2.960  20.751  0.00  0.00    +0.000 A 
ATOM     12  C   UNL     1       3.680   3.348  19.723  0.00  0.00    +0.000 A 
ATOM     13  C   UNL     1       3.675   4.648  19.163  0.00  0.00    +0.000 A 
ENDBRANCH   1  13
BRANCH   4  14
ATOM     14  C   UNL     1       7.341   4.828  15.751  0.00  0.00    +0.000 C 
BRANCH  14  15
ATOM     15  C   UNL     1       7.180   4.611  14.284  0.00  0.00    +0.000 A 
ATOM     16  C   UNL     1       7.723   5.209  13.166  0.00  0.00    +0.000 A 
ATOM     17  C   UNL     1       7.157   4.552  12.048  0.00  0.00    +0.000 A 
ATOM     18  C   UNL     1       6.310   3.593  12.554  0.00  0.00    +0.000 A 
ATOM     19  O   UNL     1       6.320   3.618  13.911  0.00  0.00    +0.000 OA
ENDBRANCH  14  15
ENDBRANCH   4  14
TORSDOF 3
ENDMDL
MODEL 5
REMARK VINA RESULT:      -6.9      1.066      1.293
REMARK  Name = 
REMARK  3 active torsions:
REMARK  status: ('A' for Active; 'I' for Inactive)
REMARK    1  A    between atoms: C_7  and  N_8
REMARK    2  A    between atoms: N_11  and  C_12
REMARK    3  A    between atoms: C_12  and  C_13
REMARK                            x       y       z     vdW  Elec       q    Type
REMARK                         _______ _______ _______ _____ _____    ______ ____
ROOT
ATOM      1  N   UNL     1       4.604   5.590  18.179  0.00  0.00    +0.000 N 
ATOM      2  C   UNL     1       4.327   5.391  16.750  0.00  0.00    +0.000 C 
ATOM      3  C   UNL     1       5.269   6.268  15.881  0.00  0.00    +0.000 C 
ATOM      4  N   UNL     1       6.717   6.178  16.195  0.00  0.00    +0.000 NA
ATOM      5  C   UNL     1       6.874   6.408  17.653  0.00  0.00    +0.000 C 
ATOM      6  C   UNL     1       6.028   5.480  18.555  0.00  0.00    +0.000 C 
ENDROOT
BRANCH   1  13
ATOM      7 CL   UNL     1       4.073   2.869  19.846  0.00  0.00    +0.000 Cl
ATOM      8  C   UNL     1       3.230   4.385  19.895  0.00  0.00    +0.000 A 
ATOM      9  C   UNL     1       2.148   4.424  20.798  0.00  0.00    +0.000 A 
ATOM     10  C   UNL     1       1.440   5.601  21.013  0.00  0.00    +0.000 A 
ATOM     11  C   UNL     1       1.808   6.745  20.326  0.00  0.00    +0.000 A 
ATOM     12  C   UNL     1       2.869   6.702  19.413  0.00  0.00    +0.000 A 
ATOM     13  C   UNL     1       3.616   5.528  19.158  0.00  0.00    +0.000 A 
ENDBRANCH   1  13
BRANCH   4  14
ATOM     14  C   UNL     1       7.248   4.868  15.770  0.00  0.00    +0.000 C 
BRANCH  14  15
ATOM     15  C   UNL     1       7.047   4.596  14.317  0.00  0.00    +0.000 A 
ATOM     16  C   UNL     1       6.262   3.707  13.613  0.00  0.00    +0.000 A 
ATOM     17  C   UNL     1       6.529   3.938  12.242  0.00  0.00    +0.000 A 
ATOM     18  C   UNL     1       7.454   4.955  12.198  0.00  0.00    +0.000 A 
ATOM     19  O   UNL     1       7.772   5.364  13.452  0.00  0.00    +0.000 OA
ENDBRANCH  14  15
ENDBRANCH   4  14
TORSDOF 3
ENDMDL
MODEL 6
REMARK VINA RESULT:      -6.8      2.066      3.038
REMARK  Name = 
REMARK  3 active torsions:
REMARK  status: ('A' for Active; 'I' for Inactive)
REMARK    1  A    between atoms: C_7  and  N_8
REMARK    2  A    between atoms: N_11  and  C_12
REMARK    3  A    between atoms: C_12  and  C_13
REMARK                            x       y       z     vdW  Elec       q    Type
REMARK                         _______ _______ _______ _____ _____    ______ ____
ROOT
ATOM      1  N   UNL     1       3.934   4.387  18.452  0.00  0.00    +0.000 N 
ATOM      2  C   UNL     1       4.525   3.554  17.397  0.00  0.00    +0.000 C 
ATOM      3  C   UNL     1       4.710   4.374  16.090  0.00  0.00    +0.000 C 
ATOM      4  N   UNL     1       5.400   5.680  16.233  0.00  0.00    +0.000 NA
ATOM      5  C   UNL     1       4.711   6.434  17.311  0.00  0.00    +0.000 C 
ATOM      6  C   UNL     1       4.599   5.688  18.660  0.00  0.00    +0.000 C 
ENDROOT
BRANCH   1  13
ATOM      7 CL   UNL     1       4.859   2.022  20.455  0.00  0.00    +0.000 Cl
ATOM      8  C   UNL     1       3.317   2.802  20.294  0.00  0.00    +0.000 A 
ATOM      9  C   UNL     1       2.323   2.321  21.170  0.00  0.00    +0.000 A 
ATOM     10  C   UNL     1       1.067   2.915  21.220  0.00  0.00    +0.000 A 
ATOM     11  C   UNL     1       0.797   3.992  20.394  0.00  0.00    +0.000 A 
ATOM     12  C   UNL     1       1.777   4.457  19.508  0.00  0.00    +0.000 A 
ATOM     13  C   UNL     1       3.067   3.883  19.418  0.00  0.00    +0.000 A 
ENDBRANCH   1  13
BRANCH   4  14
ATOM     14  C   UNL     1       6.833   5.470  16.519  0.00  0.00    +0.000 C 
BRANCH  14  15
ATOM     15  C   UNL     1       7.437   6.566  17.330  0.00  0.00    +0.000 A 
ATOM     16  C   UNL     1       8.027   6.617  18.575  0.00  0.00    +0.000 A 
ATOM     17  C   UNL     1       8.395   7.967  18.788  0.00  0.00    +0.000 A 
ATOM     18  C   UNL     1       8.012   8.652  17.658  0.00  0.00    +0.000 A 
ATOM     19  O   UNL     1       7.433   7.809  16.765  0.00  0.00    +0.000 OA
ENDBRANCH  14  15
ENDBRANCH   4  14
TORSDOF 3
ENDMDL
MODEL 7
REMARK VINA RESULT:      -6.8      2.259      3.278
REMARK  Name = 
REMARK  3 active torsions:
REMARK  status: ('A' for Active; 'I' for Inactive)
REMARK    1  A    between atoms: C_7  and  N_8
REMARK    2  A    between atoms: N_11  and  C_12
REMARK    3  A    between atoms: C_12  and  C_13
REMARK                            x       y       z     vdW  Elec       q    Type
REMARK                         _______ _______ _______ _____ _____    ______ ____
ROOT
ATOM      1  N   UNL     1       3.954   4.319  18.442  0.00  0.00    +0.000 N 
ATOM      2  C   UNL     1       4.655   3.556  17.402  0.00  0.00    +0.000 C 
ATOM      3  C   UNL     1       4.922   4.444  16.156  0.00  0.00    +0.000 C 
ATOM      4  N   UNL     1       5.557   5.760  16.418  0.00  0.00    +0.000 NA
ATOM      5  C   UNL     1       4.760   6.440  17.470  0.00  0.00    +0.000 C 
ATOM      6  C   UNL     1       4.560   5.625  18.767  0.00  0.00    +0.000 C 
ENDROOT
BRANCH   1  13
ATOM      7 CL   UNL     1       0.833   4.077  17.625  0.00  0.00    +0.000 Cl
ATOM      8  C   UNL     1       1.629   3.654  19.108  0.00  0.00    +0.000 A 
ATOM      9  C   UNL     1       0.777   3.132  20.101  0.00  0.00    +0.000 A 
ATOM     10  C   UNL     1       1.289   2.661  21.305  0.00  0.00    +0.000 A 
ATOM     11  C   UNL     1       2.655   2.712  21.523  0.00  0.00    +0.000 A 
ATOM     12  C   UNL     1       3.500   3.251  20.546  0.00  0.00    +0.000 A 
ATOM     13  C   UNL     1       3.026   3.744  19.308  0.00  0.00    +0.000 A 
ENDBRANCH   1  13
BRANCH   4  14
ATOM     14  C   UNL     1       6.968   5.573  16.812  0.00  0.00    +0.000 C 
BRANCH  14  15
ATOM     15  C   UNL     1       7.548   6.763  17.498  0.00  0.00    +0.000 A 
ATOM     16  C   UNL     1       8.210   6.947  18.695  0.00  0.00    +0.000 A 
ATOM     17  C   UNL     1       8.501   8.329  18.783  0.00  0.00    +0.000 A 
ATOM     18  C   UNL     1       8.004   8.900  17.634  0.00  0.00    +0.000 A 
ATOM     19  O   UNL     1       7.427   7.957  16.846  0.00  0.00    +0.000 OA
ENDBRANCH  14  15
ENDBRANCH   4  14
TORSDOF 3
ENDMDL
MODEL 8
REMARK VINA RESULT:      -6.7      1.107      1.412
REMARK  Name = 
REMARK  3 active torsions:
REMARK  status: ('A' for Active; 'I' for Inactive)
REMARK    1  A    between atoms: C_7  and  N_8
REMARK    2  A    between atoms: N_11  and  C_12
REMARK    3  A    between atoms: C_12  and  C_13
REMARK                            x       y       z     vdW  Elec       q    Type
REMARK                         _______ _______ _______ _____ _____    ______ ____
ROOT
ATOM      1  N   UNL     1       4.205   4.374  18.395  0.00  0.00    +0.000 N 
ATOM      2  C   UNL     1       4.744   5.734  18.270  0.00  0.00    +0.000 C 
ATOM      3  C   UNL     1       6.210   5.698  17.759  0.00  0.00    +0.000 C 
ATOM      4  N   UNL     1       6.458   4.876  16.547  0.00  0.00    +0.000 NA
ATOM      5  C   UNL     1       5.885   3.529  16.795  0.00  0.00    +0.000 C 
ATOM      6  C   UNL     1       4.395   3.520  17.206  0.00  0.00    +0.000 C 
ENDROOT
BRANCH   1  13
ATOM      7 CL   UNL     1       4.772   1.879  20.375  0.00  0.00    +0.000 Cl
ATOM      8  C   UNL     1       3.373   2.899  20.244  0.00  0.00    +0.000 A 
ATOM      9  C   UNL     1       2.330   2.579  21.137  0.00  0.00    +0.000 A 
ATOM     10  C   UNL     1       1.188   3.367  21.212  0.00  0.00    +0.000 A 
ATOM     11  C   UNL     1       1.081   4.479  20.393  0.00  0.00    +0.000 A 
ATOM     12  C   UNL     1       2.106   4.785  19.490  0.00  0.00    +0.000 A 
ATOM     13  C   UNL     1       3.285   4.011  19.376  0.00  0.00    +0.000 A 
ENDBRANCH   1  13
BRANCH   4  14
ATOM     14  C   UNL     1       5.870   5.530  15.361  0.00  0.00    +0.000 C 
BRANCH  14  15
ATOM     15  C   UNL     1       6.220   4.849  14.081  0.00  0.00    +0.000 A 
ATOM     16  C   UNL     1       5.631   3.843  13.344  0.00  0.00    +0.000 A 
ATOM     17  C   UNL     1       6.462   3.634  12.218  0.00  0.00    +0.000 A 
ATOM     18  C   UNL     1       7.500   4.529  12.336  0.00  0.00    +0.000 A 
ATOM     19  O   UNL     1       7.360   5.273  13.463  0.00  0.00    +0.000 OA
ENDBRANCH  14  15
ENDBRANCH   4  14
TORSDOF 3
ENDMDL
MODEL 9
REMARK VINA RESULT:      -6.7      1.378      1.748
REMARK  Name = 
REMARK  3 active torsions:
REMARK  status: ('A' for Active; 'I' for Inactive)
REMARK    1  A    between atoms: C_7  and  N_8
REMARK    2  A    between atoms: N_11  and  C_12
REMARK    3  A    between atoms: C_12  and  C_13
REMARK                            x       y       z     vdW  Elec       q    Type
REMARK                         _______ _______ _______ _____ _____    ______ ____
ROOT
ATOM      1  N   UNL     1       4.187   4.249  18.545  0.00  0.00    +0.000 N 
ATOM      2  C   UNL     1       4.717   5.614  18.663  0.00  0.00    +0.000 C 
ATOM      3  C   UNL     1       6.237   5.641  18.345  0.00  0.00    +0.000 C 
ATOM      4  N   UNL     1       6.650   4.981  17.082  0.00  0.00    +0.000 NA
ATOM      5  C   UNL     1       6.071   3.614  17.081  0.00  0.00    +0.000 C 
ATOM      6  C   UNL     1       4.541   3.554  17.291  0.00  0.00    +0.000 C 
ENDROOT
BRANCH   1  13
ATOM      7 CL   UNL     1       1.101   4.449  17.593  0.00  0.00    +0.000 Cl
ATOM      8  C   UNL     1       1.769   3.865  19.085  0.00  0.00    +0.000 A 
ATOM      9  C   UNL     1       0.812   3.418  20.018  0.00  0.00    +0.000 A 
ATOM     10  C   UNL     1       1.204   2.836  21.219  0.00  0.00    +0.000 A 
ATOM     11  C   UNL     1       2.554   2.700  21.494  0.00  0.00    +0.000 A 
ATOM     12  C   UNL     1       3.505   3.164  20.577  0.00  0.00    +0.000 A 
ATOM     13  C   UNL     1       3.155   3.765  19.345  0.00  0.00    +0.000 A 
ENDBRANCH   1  13
BRANCH   4  14
ATOM     14  C   UNL     1       6.210   5.781  15.922  0.00  0.00    +0.000 C 
BRANCH  14  15
ATOM     15  C   UNL     1       6.498   5.127  14.613  0.00  0.00    +0.000 A 
ATOM     16  C   UNL     1       5.843   4.180  13.855  0.00  0.00    +0.000 A 
ATOM     17  C   UNL     1       6.640   3.967  12.705  0.00  0.00    +0.000 A 
ATOM     18  C   UNL     1       7.726   4.801  12.832  0.00  0.00    +0.000 A 
ATOM     19  O   UNL     1       7.648   5.513  13.986  0.00  0.00    +0.000 OA
ENDBRANCH  14  15
ENDBRANCH   4  14
TORSDOF 3
ENDMDL
