MODEL 1
REMARK VINA RESULT:      -6.4      0.000      0.000
REMARK  Name = 
REMARK  5 active torsions:
REMARK  status: ('A' for Active; 'I' for Inactive)
REMARK    1  A    between atoms: C_1  and  C_2
REMARK    2  A    between atoms: N_10  and  C_11
REMARK    3  A    between atoms: C_11  and  C_12
REMARK    4  A    between atoms: C_12  and  C_13
REMARK    5  A    between atoms: C_13  and  O_15
REMARK                            x       y       z     vdW  Elec       q    Type
REMARK                         _______ _______ _______ _____ _____    ______ ____
ROOT
ATOM      1  C   UNL     1       4.908   3.949  15.908  0.00  0.00    +0.000 C 
ATOM      2  C   UNL     1       3.961   4.008  17.067  0.00  0.00    +0.000 A 
ATOM      3  N   UNL     1       2.895   3.176  17.181  0.00  0.00    +0.000 NA
ATOM      4  C   UNL     1       2.323   3.546  18.341  0.00  0.00    +0.000 A 
ATOM      5  C   UNL     1       1.184   3.009  18.933  0.00  0.00    +0.000 A 
ATOM      6  C   UNL     1       0.759   3.565  20.154  0.00  0.00    +0.000 A 
ATOM      7  C   UNL     1       1.477   4.632  20.743  0.00  0.00    +0.000 A 
ATOM      8  C   UNL     1       2.631   5.148  20.120  0.00  0.00    +0.000 A 
ATOM      9  C   UNL     1       3.025   4.570  18.910  0.00  0.00    +0.000 A 
ATOM     10  N   UNL     1       4.072   4.870  18.115  0.00  0.00    +0.000 N 
ENDROOT
BRANCH  10  11
ATOM     11  C   UNL     1       5.120   5.872  18.333  0.00  0.00    +0.000 C 
BRANCH  11  12
ATOM     12  C   UNL     1       6.380   5.229  18.915  0.00  0.00    +0.000 C 
BRANCH  12  13
ATOM     13  C   UNL     1       7.488   5.183  17.896  0.00  0.00    +0.000 C 
ATOM     14  O   UNL     1       7.732   6.173  17.223  0.00  0.00    +0.000 OA
BRANCH  13  15
ATOM     15  O   UNL     1       8.224   4.065  17.710  0.00  0.00    +0.000 OA
ATOM     16  H   UNL     1       7.942   3.204  18.045  0.00  0.00    +0.000 HD
ENDBRANCH  13  15
ENDBRANCH  12  13
ENDBRANCH  11  12
ENDBRANCH  10  11
TORSDOF 4
ENDMDL
MODEL 2
REMARK VINA RESULT:      -6.4      2.016      3.138
REMARK  Name = 
REMARK  5 active torsions:
REMARK  status: ('A' for Active; 'I' for Inactive)
REMARK    1  A    between atoms: C_1  and  C_2
REMARK    2  A    between atoms: N_10  and  C_11
REMARK    3  A    between atoms: C_11  and  C_12
REMARK    4  A    between atoms: C_12  and  C_13
REMARK    5  A    between atoms: C_13  and  O_15
REMARK                            x       y       z     vdW  Elec       q    Type
REMARK                         _______ _______ _______ _____ _____    ______ ____
ROOT
ATOM      1  C   UNL     1       7.365   5.165  18.138  0.00  0.00    +0.000 C 
ATOM      2  C   UNL     1       6.031   4.500  18.271  0.00  0.00    +0.000 A 
ATOM      3  N   UNL     1       5.626   3.898  19.418  0.00  0.00    +0.000 NA
ATOM      4  C   UNL     1       4.394   3.444  19.125  0.00  0.00    +0.000 A 
ATOM      5  C   UNL     1       3.528   2.745  19.959  0.00  0.00    +0.000 A 
ATOM      6  C   UNL     1       2.281   2.359  19.431  0.00  0.00    +0.000 A 
ATOM      7  C   UNL     1       1.940   2.681  18.097  0.00  0.00    +0.000 A 
ATOM      8  C   UNL     1       2.838   3.397  17.281  0.00  0.00    +0.000 A 
ATOM      9  C   UNL     1       4.065   3.766  17.839  0.00  0.00    +0.000 A 
ATOM     10  N   UNL     1       5.092   4.442  17.286  0.00  0.00    +0.000 N 
ENDROOT
BRANCH  10  11
ATOM     11  C   UNL     1       5.181   5.018  15.941  0.00  0.00    +0.000 C 
BRANCH  11  12
ATOM     12  C   UNL     1       5.767   4.010  14.950  0.00  0.00    +0.000 C 
BRANCH  12  13
ATOM     13  C   UNL     1       6.839   4.641  14.102  0.00  0.00    +0.000 C 
ATOM     14  O   UNL     1       6.909   4.366  12.913  0.00  0.00    +0.000 OA
BRANCH  13  15
ATOM     15  O   UNL     1       7.729   5.510  14.628  0.00  0.00    +0.000 OA
ATOM     16  H   UNL     1       8.009   6.306  14.157  0.00  0.00    +0.000 HD
ENDBRANCH  13  15
ENDBRANCH  12  13
ENDBRANCH  11  12
ENDBRANCH  10  11
TORSDOF 4
ENDMDL
MODEL 3
REMARK VINA RESULT:      -6.3      1.932      2.803
REMARK  Name = 
REMARK  5 active torsions:
REMARK  status: ('A' for Active; 'I' for Inactive)
REMARK    1  A    between atoms: C_1  and  C_2
REMARK    2  A    between atoms: N_10  and  C_11
REMARK    3  A    between atoms: C_11  and  C_12
REMARK    4  A    between atoms: C_12  and  C_13
REMARK    5  A    between atoms: C_13  and  O_15
REMARK                            x       y       z     vdW  Elec       q    Type
REMARK                         _______ _______ _______ _____ _____    ______ ____
ROOT
ATOM      1  C   UNL     1       7.436   5.649  18.710  0.00  0.00    +0.000 C 
ATOM      2  C   UNL     1       6.100   4.978  18.635  0.00  0.00    +0.000 A 
ATOM      3  N   UNL     1       5.718   4.012  19.510  0.00  0.00    +0.000 NA
ATOM      4  C   UNL     1       4.477   3.687  19.107  0.00  0.00    +0.000 A 
ATOM      5  C   UNL     1       3.625   2.740  19.666  0.00  0.00    +0.000 A 
ATOM      6  C   UNL     1       2.363   2.561  19.068  0.00  0.00    +0.000 A 
ATOM      7  C   UNL     1       1.993   3.327  17.938  0.00  0.00    +0.000 A 
ATOM      8  C   UNL     1       2.877   4.285  17.401  0.00  0.00    +0.000 A 
ATOM      9  C   UNL     1       4.119   4.437  18.022  0.00  0.00    +0.000 A 
ATOM     10  N   UNL     1       5.138   5.265  17.715  0.00  0.00    +0.000 N 
ENDROOT
BRANCH  10  11
ATOM     11  C   UNL     1       5.199   6.275  16.654  0.00  0.00    +0.000 C 
BRANCH  11  12
ATOM     12  C   UNL     1       5.335   5.617  15.279  0.00  0.00    +0.000 C 
BRANCH  12  13
ATOM     13  C   UNL     1       6.543   4.719  15.223  0.00  0.00    +0.000 C 
ATOM     14  O   UNL     1       7.652   5.207  15.062  0.00  0.00    +0.000 OA
BRANCH  13  15
ATOM     15  O   UNL     1       6.427   3.379  15.350  0.00  0.00    +0.000 OA
ATOM     16  H   UNL     1       6.973   2.767  14.839  0.00  0.00    +0.000 HD
ENDBRANCH  13  15
ENDBRANCH  12  13
ENDBRANCH  11  12
ENDBRANCH  10  11
TORSDOF 4
ENDMDL
MODEL 4
REMARK VINA RESULT:      -6.3      1.905      3.092
REMARK  Name = 
REMARK  5 active torsions:
REMARK  status: ('A' for Active; 'I' for Inactive)
REMARK    1  A    between atoms: C_1  and  C_2
REMARK    2  A    between atoms: N_10  and  C_11
REMARK    3  A    between atoms: C_11  and  C_12
REMARK    4  A    between atoms: C_12  and  C_13
REMARK    5  A    between atoms: C_13  and  O_15
REMARK                            x       y       z     vdW  Elec       q    Type
REMARK                         _______ _______ _______ _____ _____    ______ ____
ROOT
ATOM      1  C   UNL     1       7.418   5.315  18.348  0.00  0.00    +0.000 C 
ATOM      2  C   UNL     1       5.957   5.018  18.486  0.00  0.00    +0.000 A 
ATOM      3  N   UNL     1       5.232   5.407  19.566  0.00  0.00    +0.000 NA
ATOM      4  C   UNL     1       3.992   4.961  19.298  0.00  0.00    +0.000 A 
ATOM      5  C   UNL     1       2.854   5.095  20.086  0.00  0.00    +0.000 A 
ATOM      6  C   UNL     1       1.655   4.536  19.605  0.00  0.00    +0.000 A 
ATOM      7  C   UNL     1       1.630   3.865  18.359  0.00  0.00    +0.000 A 
ATOM      8  C   UNL     1       2.799   3.754  17.581  0.00  0.00    +0.000 A 
ATOM      9  C   UNL     1       3.970   4.323  18.090  0.00  0.00    +0.000 A 
ATOM     10  N   UNL     1       5.210   4.357  17.560  0.00  0.00    +0.000 N 
ENDROOT
BRANCH  10  11
ATOM     11  C   UNL     1       5.659   3.834  16.267  0.00  0.00    +0.000 C 
BRANCH  11  12
ATOM     12  C   UNL     1       5.666   4.935  15.203  0.00  0.00    +0.000 C 
BRANCH  12  13
ATOM     13  C   UNL     1       6.682   4.647  14.129  0.00  0.00    +0.000 C 
ATOM     14  O   UNL     1       7.648   5.384  13.999  0.00  0.00    +0.000 OA
BRANCH  13  15
ATOM     15  O   UNL     1       6.549   3.586  13.305  0.00  0.00    +0.000 OA
ATOM     16  H   UNL     1       6.630   3.668  12.346  0.00  0.00    +0.000 HD
ENDBRANCH  13  15
ENDBRANCH  12  13
ENDBRANCH  11  12
ENDBRANCH  10  11
TORSDOF 4
ENDMDL
MODEL 5
REMARK VINA RESULT:      -6.2      1.556      2.409
REMARK  Name = 
REMARK  5 active torsions:
REMARK  status: ('A' for Active; 'I' for Inactive)
REMARK    1  A    between atoms: C_1  and  C_2
REMARK    2  A    between atoms: N_10  and  C_11
REMARK    3  A    between atoms: C_11  and  C_12
REMARK    4  A    between atoms: C_12  and  C_13
REMARK    5  A    between atoms: C_13  and  O_15
REMARK                            x       y       z     vdW  Elec       q    Type
REMARK                         _______ _______ _______ _____ _____    ______ ____
ROOT
ATOM      1  C   UNL     1       3.204   7.725  17.782  0.00  0.00    +0.000 C 
ATOM      2  C   UNL     1       3.085   6.247  17.994  0.00  0.00    +0.000 A 
ATOM      3  N   UNL     1       2.106   5.695  18.755  0.00  0.00    +0.000 NA
ATOM      4  C   UNL     1       2.348   4.375  18.679  0.00  0.00    +0.000 A 
ATOM      5  C   UNL     1       1.632   3.346  19.284  0.00  0.00    +0.000 A 
ATOM      6  C   UNL     1       2.077   2.028  19.072  0.00  0.00    +0.000 A 
ATOM      7  C   UNL     1       3.213   1.778  18.268  0.00  0.00    +0.000 A 
ATOM      8  C   UNL     1       3.911   2.842  17.663  0.00  0.00    +0.000 A 
ATOM      9  C   UNL     1       3.440   4.137  17.894  0.00  0.00    +0.000 A 
ATOM     10  N   UNL     1       3.915   5.317  17.447  0.00  0.00    +0.000 N 
ENDROOT
BRANCH  10  11
ATOM     11  C   UNL     1       5.048   5.558  16.547  0.00  0.00    +0.000 C 
BRANCH  11  12
ATOM     12  C   UNL     1       6.332   5.813  17.341  0.00  0.00    +0.000 C 
BRANCH  12  13
ATOM     13  C   UNL     1       7.391   4.797  17.001  0.00  0.00    +0.000 C 
ATOM     14  O   UNL     1       7.744   4.657  15.840  0.00  0.00    +0.000 OA
BRANCH  13  15
ATOM     15  O   UNL     1       7.963   4.034  17.958  0.00  0.00    +0.000 OA
ATOM     16  H   UNL     1       7.439   3.505  18.574  0.00  0.00    +0.000 HD
ENDBRANCH  13  15
ENDBRANCH  12  13
ENDBRANCH  11  12
ENDBRANCH  10  11
TORSDOF 4
ENDMDL
MODEL 6
REMARK VINA RESULT:      -6.2      1.763      2.509
REMARK  Name = 
REMARK  5 active torsions:
REMARK  status: ('A' for Active; 'I' for Inactive)
REMARK    1  A    between atoms: C_1  and  C_2
REMARK    2  A    between atoms: N_10  and  C_11
REMARK    3  A    between atoms: C_11  and  C_12
REMARK    4  A    between atoms: C_12  and  C_13
REMARK    5  A    between atoms: C_13  and  O_15
REMARK                            x       y       z     vdW  Elec       q    Type
REMARK                         _______ _______ _______ _____ _____    ______ ____
ROOT
ATOM      1  C   UNL     1       2.909   7.900  17.894  0.00  0.00    +0.000 C 
ATOM      2  C   UNL     1       3.039   6.570  18.569  0.00  0.00    +0.000 A 
ATOM      3  N   UNL     1       2.300   6.227  19.655  0.00  0.00    +0.000 NA
ATOM      4  C   UNL     1       2.708   4.977  19.938  0.00  0.00    +0.000 A 
ATOM      5  C   UNL     1       2.265   4.154  20.969  0.00  0.00    +0.000 A 
ATOM      6  C   UNL     1       2.845   2.877  21.082  0.00  0.00    +0.000 A 
ATOM      7  C   UNL     1       3.843   2.463  20.169  0.00  0.00    +0.000 A 
ATOM      8  C   UNL     1       4.264   3.318  19.131  0.00  0.00    +0.000 A 
ATOM      9  C   UNL     1       3.664   4.577  19.048  0.00  0.00    +0.000 A 
ATOM     10  N   UNL     1       3.880   5.577  18.169  0.00  0.00    +0.000 N 
ENDROOT
BRANCH  10  11
ATOM     11  C   UNL     1       4.788   5.592  17.018  0.00  0.00    +0.000 C 
BRANCH  11  12
ATOM     12  C   UNL     1       6.215   5.938  17.451  0.00  0.00    +0.000 C 
BRANCH  12  13
ATOM     13  C   UNL     1       7.189   4.876  17.012  0.00  0.00    +0.000 C 
ATOM     14  O   UNL     1       7.470   4.766  15.828  0.00  0.00    +0.000 OA
BRANCH  13  15
ATOM     15  O   UNL     1       7.762   4.040  17.904  0.00  0.00    +0.000 OA
ATOM     16  H   UNL     1       7.397   3.166  18.096  0.00  0.00    +0.000 HD
ENDBRANCH  13  15
ENDBRANCH  12  13
ENDBRANCH  11  12
ENDBRANCH  10  11
TORSDOF 4
ENDMDL
MODEL 7
REMARK VINA RESULT:      -6.2      3.174      4.781
REMARK  Name = 
REMARK  5 active torsions:
REMARK  status: ('A' for Active; 'I' for Inactive)
REMARK    1  A    between atoms: C_1  and  C_2
REMARK    2  A    between atoms: N_10  and  C_11
REMARK    3  A    between atoms: C_11  and  C_12
REMARK    4  A    between atoms: C_12  and  C_13
REMARK    5  A    between atoms: C_13  and  O_15
REMARK                            x       y       z     vdW  Elec       q    Type
REMARK                         _______ _______ _______ _____ _____    ______ ____
ROOT
ATOM      1  C   UNL     1       3.003   1.558  18.332  0.00  0.00    +0.000 C 
ATOM      2  C   UNL     1       3.247   3.009  18.056  0.00  0.00    +0.000 A 
ATOM      3  N   UNL     1       4.239   3.440  17.235  0.00  0.00    +0.000 NA
ATOM      4  C   UNL     1       4.111   4.778  17.254  0.00  0.00    +0.000 A 
ATOM      5  C   UNL     1       4.887   5.713  16.575  0.00  0.00    +0.000 A 
ATOM      6  C   UNL     1       4.575   7.074  16.751  0.00  0.00    +0.000 A 
ATOM      7  C   UNL     1       3.506   7.458  17.594  0.00  0.00    +0.000 A 
ATOM      8  C   UNL     1       2.734   6.486  18.260  0.00  0.00    +0.000 A 
ATOM      9  C   UNL     1       3.071   5.144  18.060  0.00  0.00    +0.000 A 
ATOM     10  N   UNL     1       2.509   4.031  18.572  0.00  0.00    +0.000 N 
ENDROOT
BRANCH  10  11
ATOM     11  C   UNL     1       1.346   3.926  19.458  0.00  0.00    +0.000 C 
BRANCH  11  12
ATOM     12  C   UNL     1       1.731   4.238  20.906  0.00  0.00    +0.000 C 
BRANCH  12  13
ATOM     13  C   UNL     1       2.037   2.977  21.671  0.00  0.00    +0.000 C 
ATOM     14  O   UNL     1       1.149   2.422  22.301  0.00  0.00    +0.000 OA
BRANCH  13  15
ATOM     15  O   UNL     1       3.277   2.442  21.674  0.00  0.00    +0.000 OA
ATOM     16  H   UNL     1       3.964   2.744  22.282  0.00  0.00    +0.000 HD
ENDBRANCH  13  15
ENDBRANCH  12  13
ENDBRANCH  11  12
ENDBRANCH  10  11
TORSDOF 4
ENDMDL
MODEL 8
REMARK VINA RESULT:      -6.1      3.298      5.429
REMARK  Name = 
REMARK  5 active torsions:
REMARK  status: ('A' for Active; 'I' for Inactive)
REMARK    1  A    between atoms: C_1  and  C_2
REMARK    2  A    between atoms: N_10  and  C_11
REMARK    3  A    between atoms: C_11  and  C_12
REMARK    4  A    between atoms: C_12  and  C_13
REMARK    5  A    between atoms: C_13  and  O_15
REMARK                            x       y       z     vdW  Elec       q    Type
REMARK                         _______ _______ _______ _____ _____    ______ ____
ROOT
ATOM      1  C   UNL     1       4.203   2.350  20.019  0.00  0.00    +0.000 C 
ATOM      2  C   UNL     1       4.726   3.479  19.186  0.00  0.00    +0.000 A 
ATOM      3  N   UNL     1       5.899   4.105  19.458  0.00  0.00    +0.000 NA
ATOM      4  C   UNL     1       6.001   5.031  18.488  0.00  0.00    +0.000 A 
ATOM      5  C   UNL     1       7.027   5.952  18.301  0.00  0.00    +0.000 A 
ATOM      6  C   UNL     1       6.917   6.840  17.214  0.00  0.00    +0.000 A 
ATOM      7  C   UNL     1       5.796   6.781  16.353  0.00  0.00    +0.000 A 
ATOM      8  C   UNL     1       4.779   5.830  16.566  0.00  0.00    +0.000 A 
ATOM      9  C   UNL     1       4.921   4.964  17.654  0.00  0.00    +0.000 A 
ATOM     10  N   UNL     1       4.106   3.979  18.081  0.00  0.00    +0.000 N 
ENDROOT
BRANCH  10  11
ATOM     11  C   UNL     1       2.850   3.517  17.483  0.00  0.00    +0.000 C 
BRANCH  11  12
ATOM     12  C   UNL     1       1.646   4.183  18.154  0.00  0.00    +0.000 C 
BRANCH  12  13
ATOM     13  C   UNL     1       0.910   3.211  19.038  0.00  0.00    +0.000 C 
ATOM     14  O   UNL     1       0.690   2.078  18.638  0.00  0.00    +0.000 OA
BRANCH  13  15
ATOM     15  O   UNL     1       0.486   3.567  20.271  0.00  0.00    +0.000 OA
ATOM     16  H   UNL     1      -0.407   3.369  20.583  0.00  0.00    +0.000 HD
ENDBRANCH  13  15
ENDBRANCH  12  13
ENDBRANCH  11  12
ENDBRANCH  10  11
TORSDOF 4
ENDMDL
MODEL 9
REMARK VINA RESULT:      -6.1      2.025      2.968
REMARK  Name = 
REMARK  5 active torsions:
REMARK  status: ('A' for Active; 'I' for Inactive)
REMARK    1  A    between atoms: C_1  and  C_2
REMARK    2  A    between atoms: N_10  and  C_11
REMARK    3  A    between atoms: C_11  and  C_12
REMARK    4  A    between atoms: C_12  and  C_13
REMARK    5  A    between atoms: C_13  and  O_15
REMARK                            x       y       z     vdW  Elec       q    Type
REMARK                         _______ _______ _______ _____ _____    ______ ____
ROOT
ATOM      1  C   UNL     1       3.368   7.900  17.723  0.00  0.00    +0.000 C 
ATOM      2  C   UNL     1       3.173   6.419  17.820  0.00  0.00    +0.000 A 
ATOM      3  N   UNL     1       2.016   5.862  18.260  0.00  0.00    +0.000 NA
ATOM      4  C   UNL     1       2.249   4.540  18.186  0.00  0.00    +0.000 A 
ATOM      5  C   UNL     1       1.380   3.506  18.523  0.00  0.00    +0.000 A 
ATOM      6  C   UNL     1       1.845   2.186  18.372  0.00  0.00    +0.000 A 
ATOM      7  C   UNL     1       3.153   1.939  17.893  0.00  0.00    +0.000 A 
ATOM      8  C   UNL     1       4.004   3.009  17.553  0.00  0.00    +0.000 A 
ATOM      9  C   UNL     1       3.509   4.306  17.714  0.00  0.00    +0.000 A 
ATOM     10  N   UNL     1       4.106   5.490  17.471  0.00  0.00    +0.000 N 
ENDROOT
BRANCH  10  11
ATOM     11  C   UNL     1       5.443   5.738  16.924  0.00  0.00    +0.000 C 
BRANCH  11  12
ATOM     12  C   UNL     1       5.419   5.730  15.394  0.00  0.00    +0.000 C 
BRANCH  12  13
ATOM     13  C   UNL     1       6.508   4.851  14.837  0.00  0.00    +0.000 C 
ATOM     14  O   UNL     1       6.312   3.652  14.713  0.00  0.00    +0.000 OA
BRANCH  13  15
ATOM     15  O   UNL     1       7.703   5.364  14.468  0.00  0.00    +0.000 OA
ATOM     16  H   UNL     1       7.967   5.433  13.542  0.00  0.00    +0.000 HD
ENDBRANCH  13  15
ENDBRANCH  12  13
ENDBRANCH  11  12
ENDBRANCH  10  11
TORSDOF 4
ENDMDL
