MODEL 1
REMARK VINA RESULT:      -8.4      0.000      0.000
REMARK  Name = 
REMARK  6 active torsions:
REMARK  status: ('A' for Active; 'I' for Inactive)
REMARK    1  A    between atoms: C_1  and  C_2
REMARK    2  A    between atoms: C_2  and  C_17
REMARK    3  A    between atoms: N_3  and  N_4
REMARK    4  A    between atoms: N_4  and  S_5
REMARK    5  A    between atoms: S_5  and  C_8
REMARK    6  A    between atoms: C_11  and  N_12
REMARK                            x       y       z     vdW  Elec       q    Type
REMARK                         _______ _______ _______ _____ _____    ______ ____
ROOT
ATOM      1  N   UNL     1       7.222   4.168  18.036  0.00  0.00    +0.000 N 
ATOM      2  H   UNL     1       7.309   3.276  18.519  0.00  0.00    +0.000 HD
ENDROOT
BRANCH   1   5
ATOM      3  C   UNL     1       5.082   3.679  16.108  0.00  0.00    +0.000 C 
ATOM      4  C   UNL     1       6.487   4.132  15.777  0.00  0.00    +0.000 C 
ATOM      5  N   UNL     1       7.439   4.350  16.637  0.00  0.00    +0.000 NA
BRANCH   4   6
ATOM      6  C   UNL     1       6.802   4.313  14.320  0.00  0.00    +0.000 A 
ATOM      7  C   UNL     1       6.142   3.548  13.366  0.00  0.00    +0.000 A 
ATOM      8  C   UNL     1       6.415   3.781  12.031  0.00  0.00    +0.000 A 
ATOM      9  C   UNL     1       7.343   4.765  11.722  0.00  0.00    +0.000 A 
ATOM     10  N   UNL     1       7.967   5.471  12.725  0.00  0.00    +0.000 N 
ATOM     11  O   UNL     1       8.816   6.363  12.468  0.00  0.00    +0.000 OA
ATOM     12  N   UNL     1       7.710   5.260  14.024  0.00  0.00    +0.000 NA
ENDBRANCH   4   6
ENDBRANCH   1   5
BRANCH   1  13
ATOM     13  S   UNL     1       6.537   5.461  18.916  0.00  0.00    +0.000 S 
ATOM     14  O   UNL     1       7.318   5.682  20.117  0.00  0.00    +0.000 OA
ATOM     15  O   UNL     1       6.226   6.534  18.000  0.00  0.00    +0.000 OA
BRANCH  13  16
ATOM     16  C   UNL     1       4.989   4.729  19.416  0.00  0.00    +0.000 A 
ATOM     17  C   UNL     1       4.909   3.345  19.614  0.00  0.00    +0.000 A 
ATOM     18  C   UNL     1       3.684   2.767  19.954  0.00  0.00    +0.000 A 
ATOM     19  C   UNL     1       2.551   3.582  20.102  0.00  0.00    +0.000 A 
ATOM     20  C   UNL     1       2.645   4.973  19.946  0.00  0.00    +0.000 A 
ATOM     21  C   UNL     1       3.872   5.549  19.609  0.00  0.00    +0.000 A 
BRANCH  19  22
ATOM     22  N   UNL     1       1.248   2.970  20.399  0.00  0.00    +0.000 N 
ATOM     23  O   UNL     1       0.476   2.770  19.452  0.00  0.00    +0.000 OA
ATOM     24  O   UNL     1       0.993   2.707  21.584  0.00  0.00    +0.000 OA
ENDBRANCH  19  22
ENDBRANCH  13  16
ENDBRANCH   1  13
TORSDOF 5
ENDMDL
MODEL 2
REMARK VINA RESULT:      -8.4      0.193      1.031
REMARK  Name = 
REMARK  6 active torsions:
REMARK  status: ('A' for Active; 'I' for Inactive)
REMARK    1  A    between atoms: C_1  and  C_2
REMARK    2  A    between atoms: C_2  and  C_17
REMARK    3  A    between atoms: N_3  and  N_4
REMARK    4  A    between atoms: N_4  and  S_5
REMARK    5  A    between atoms: S_5  and  C_8
REMARK    6  A    between atoms: C_11  and  N_12
REMARK                            x       y       z     vdW  Elec       q    Type
REMARK                         _______ _______ _______ _____ _____    ______ ____
ROOT
ATOM      1  N   UNL     1       7.220   4.173  18.010  0.00  0.00    +0.000 N 
ATOM      2  H   UNL     1       7.307   3.279  18.489  0.00  0.00    +0.000 HD
ENDROOT
BRANCH   1   5
ATOM      3  C   UNL     1       5.090   3.653  16.078  0.00  0.00    +0.000 C 
ATOM      4  C   UNL     1       6.489   4.129  15.751  0.00  0.00    +0.000 C 
ATOM      5  N   UNL     1       7.436   4.362  16.612  0.00  0.00    +0.000 NA
BRANCH   4   6
ATOM      6  C   UNL     1       6.802   4.318  14.294  0.00  0.00    +0.000 A 
ATOM      7  C   UNL     1       6.140   3.559  13.336  0.00  0.00    +0.000 A 
ATOM      8  C   UNL     1       6.412   3.799  12.002  0.00  0.00    +0.000 A 
ATOM      9  C   UNL     1       7.340   4.784  11.698  0.00  0.00    +0.000 A 
ATOM     10  N   UNL     1       7.966   5.484  12.704  0.00  0.00    +0.000 N 
ATOM     11  O   UNL     1       8.816   6.376  12.450  0.00  0.00    +0.000 OA
ATOM     12  N   UNL     1       7.711   5.266  14.002  0.00  0.00    +0.000 NA
ENDBRANCH   4   6
ENDBRANCH   1   5
BRANCH   1  13
ATOM     13  S   UNL     1       6.538   5.463  18.897  0.00  0.00    +0.000 S 
ATOM     14  O   UNL     1       7.319   5.676  20.099  0.00  0.00    +0.000 OA
ATOM     15  O   UNL     1       6.229   6.541  17.986  0.00  0.00    +0.000 OA
BRANCH  13  16
ATOM     16  C   UNL     1       4.988   4.731  19.392  0.00  0.00    +0.000 A 
ATOM     17  C   UNL     1       3.908   5.556  19.725  0.00  0.00    +0.000 A 
ATOM     18  C   UNL     1       2.711   4.983  20.163  0.00  0.00    +0.000 A 
ATOM     19  C   UNL     1       2.605   3.586  20.254  0.00  0.00    +0.000 A 
ATOM     20  C   UNL     1       3.676   2.762  19.877  0.00  0.00    +0.000 A 
ATOM     21  C   UNL     1       4.871   3.338  19.438  0.00  0.00    +0.000 A 
BRANCH  19  22
ATOM     22  N   UNL     1       1.370   2.983  20.772  0.00  0.00    +0.000 N 
ATOM     23  O   UNL     1       0.427   2.833  19.984  0.00  0.00    +0.000 OA
ATOM     24  O   UNL     1       1.339   2.678  21.973  0.00  0.00    +0.000 OA
ENDBRANCH  19  22
ENDBRANCH  13  16
ENDBRANCH   1  13
TORSDOF 5
ENDMDL
MODEL 3
REMARK VINA RESULT:      -7.9      2.699      3.414
REMARK  Name = 
REMARK  6 active torsions:
REMARK  status: ('A' for Active; 'I' for Inactive)
REMARK    1  A    between atoms: C_1  and  C_2
REMARK    2  A    between atoms: C_2  and  C_17
REMARK    3  A    between atoms: N_3  and  N_4
REMARK    4  A    between atoms: N_4  and  S_5
REMARK    5  A    between atoms: S_5  and  C_8
REMARK    6  A    between atoms: C_11  and  N_12
REMARK                            x       y       z     vdW  Elec       q    Type
REMARK                         _______ _______ _______ _____ _____    ______ ____
ROOT
ATOM      1  N   UNL     1       5.397   3.659  18.676  0.00  0.00    +0.000 N 
ATOM      2  H   UNL     1       6.085   3.815  19.410  0.00  0.00    +0.000 HD
ENDROOT
BRANCH   1   5
ATOM      3  C   UNL     1       7.170   5.678  17.527  0.00  0.00    +0.000 C 
ATOM      4  C   UNL     1       6.484   4.563  16.767  0.00  0.00    +0.000 C 
ATOM      5  N   UNL     1       5.695   3.664  17.280  0.00  0.00    +0.000 NA
BRANCH   4   6
ATOM      6  C   UNL     1       6.723   4.524  15.286  0.00  0.00    +0.000 A 
ATOM      7  C   UNL     1       5.922   3.733  14.472  0.00  0.00    +0.000 A 
ATOM      8  C   UNL     1       6.134   3.765  13.106  0.00  0.00    +0.000 A 
ATOM      9  C   UNL     1       7.145   4.585  12.627  0.00  0.00    +0.000 A 
ATOM     10  N   UNL     1       7.907   5.330  13.499  0.00  0.00    +0.000 N 
ATOM     11  O   UNL     1       8.833   6.076  13.086  0.00  0.00    +0.000 OA
ATOM     12  N   UNL     1       7.711   5.313  14.824  0.00  0.00    +0.000 NA
ENDBRANCH   4   6
ENDBRANCH   1   5
BRANCH   1  13
ATOM     13  S   UNL     1       3.853   3.119  19.165  0.00  0.00    +0.000 S 
ATOM     14  O   UNL     1       3.166   2.552  18.022  0.00  0.00    +0.000 OA
ATOM     15  O   UNL     1       3.985   2.400  20.412  0.00  0.00    +0.000 OA
BRANCH  13  16
ATOM     16  C   UNL     1       3.068   4.678  19.537  0.00  0.00    +0.000 A 
ATOM     17  C   UNL     1       3.257   5.770  18.682  0.00  0.00    +0.000 A 
ATOM     18  C   UNL     1       2.685   7.004  19.002  0.00  0.00    +0.000 A 
ATOM     19  C   UNL     1       1.920   7.129  20.172  0.00  0.00    +0.000 A 
ATOM     20  C   UNL     1       1.696   6.021  21.003  0.00  0.00    +0.000 A 
ATOM     21  C   UNL     1       2.267   4.788  20.679  0.00  0.00    +0.000 A 
BRANCH  19  22
ATOM     22  N   UNL     1       1.368   8.440  20.543  0.00  0.00    +0.000 N 
ATOM     23  O   UNL     1       1.212   8.679  21.748  0.00  0.00    +0.000 OA
ATOM     24  O   UNL     1       1.075   9.221  19.626  0.00  0.00    +0.000 OA
ENDBRANCH  19  22
ENDBRANCH  13  16
ENDBRANCH   1  13
TORSDOF 5
ENDMDL
MODEL 4
REMARK VINA RESULT:      -7.7      2.292      7.278
REMARK  Name = 
REMARK  6 active torsions:
REMARK  status: ('A' for Active; 'I' for Inactive)
REMARK    1  A    between atoms: C_1  and  C_2
REMARK    2  A    between atoms: C_2  and  C_17
REMARK    3  A    between atoms: N_3  and  N_4
REMARK    4  A    between atoms: N_4  and  S_5
REMARK    5  A    between atoms: S_5  and  C_8
REMARK    6  A    between atoms: C_11  and  N_12
REMARK                            x       y       z     vdW  Elec       q    Type
REMARK                         _______ _______ _______ _____ _____    ______ ____
ROOT
ATOM      1  N   UNL     1       5.496   6.370  17.742  0.00  0.00    +0.000 N 
ATOM      2  H   UNL     1       5.204   7.302  17.456  0.00  0.00    +0.000 HD
ENDROOT
BRANCH   1   5
ATOM      3  C   UNL     1       2.681   6.976  18.239  0.00  0.00    +0.000 C 
ATOM      4  C   UNL     1       3.373   5.664  18.539  0.00  0.00    +0.000 C 
ATOM      5  N   UNL     1       4.627   5.395  18.316  0.00  0.00    +0.000 NA
BRANCH   4   6
ATOM      6  C   UNL     1       2.529   4.599  19.176  0.00  0.00    +0.000 A 
ATOM      7  C   UNL     1       1.630   3.870  18.407  0.00  0.00    +0.000 A 
ATOM      8  C   UNL     1       0.910   2.858  19.017  0.00  0.00    +0.000 A 
ATOM      9  C   UNL     1       1.124   2.636  20.369  0.00  0.00    +0.000 A 
ATOM     10  N   UNL     1       2.022   3.411  21.067  0.00  0.00    +0.000 N 
ATOM     11  O   UNL     1       2.226   3.230  22.296  0.00  0.00    +0.000 OA
ATOM     12  N   UNL     1       2.730   4.392  20.491  0.00  0.00    +0.000 NA
ENDBRANCH   4   6
ENDBRANCH   1   5
BRANCH   1  13
ATOM     13  S   UNL     1       7.062   5.874  17.277  0.00  0.00    +0.000 S 
ATOM     14  O   UNL     1       7.846   7.042  16.930  0.00  0.00    +0.000 OA
ATOM     15  O   UNL     1       7.537   4.888  18.221  0.00  0.00    +0.000 OA
BRANCH  13  16
ATOM     16  C   UNL     1       6.691   5.013  15.758  0.00  0.00    +0.000 A 
ATOM     17  C   UNL     1       7.517   5.191  14.642  0.00  0.00    +0.000 A 
ATOM     18  C   UNL     1       7.195   4.557  13.439  0.00  0.00    +0.000 A 
ATOM     19  C   UNL     1       6.055   3.742  13.369  0.00  0.00    +0.000 A 
ATOM     20  C   UNL     1       5.255   3.532  14.502  0.00  0.00    +0.000 A 
ATOM     21  C   UNL     1       5.580   4.165  15.704  0.00  0.00    +0.000 A 
BRANCH  19  22
ATOM     22  N   UNL     1       5.680   3.124  12.089  0.00  0.00    +0.000 N 
ATOM     23  O   UNL     1       6.511   2.390  11.540  0.00  0.00    +0.000 OA
ATOM     24  O   UNL     1       4.561   3.391  11.628  0.00  0.00    +0.000 OA
ENDBRANCH  19  22
ENDBRANCH  13  16
ENDBRANCH   1  13
TORSDOF 5
ENDMDL
MODEL 5
REMARK VINA RESULT:      -7.7      1.364      1.892
REMARK  Name = 
REMARK  6 active torsions:
REMARK  status: ('A' for Active; 'I' for Inactive)
REMARK    1  A    between atoms: C_1  and  C_2
REMARK    2  A    between atoms: C_2  and  C_17
REMARK    3  A    between atoms: N_3  and  N_4
REMARK    4  A    between atoms: N_4  and  S_5
REMARK    5  A    between atoms: S_5  and  C_8
REMARK    6  A    between atoms: C_11  and  N_12
REMARK                            x       y       z     vdW  Elec       q    Type
REMARK                         _______ _______ _______ _____ _____    ______ ____
ROOT
ATOM      1  N   UNL     1       7.245   4.169  18.014  0.00  0.00    +0.000 N 
ATOM      2  H   UNL     1       7.364   3.288  18.510  0.00  0.00    +0.000 HD
ENDROOT
BRANCH   1   5
ATOM      3  C   UNL     1       5.012   3.683  16.193  0.00  0.00    +0.000 C 
ATOM      4  C   UNL     1       6.407   4.109  15.792  0.00  0.00    +0.000 C 
ATOM      5  N   UNL     1       7.401   4.326  16.604  0.00  0.00    +0.000 NA
BRANCH   4   6
ATOM      6  C   UNL     1       6.657   4.263  14.319  0.00  0.00    +0.000 A 
ATOM      7  C   UNL     1       7.574   5.202  13.863  0.00  0.00    +0.000 A 
ATOM      8  C   UNL     1       7.820   5.277  12.505  0.00  0.00    +0.000 A 
ATOM      9  C   UNL     1       7.129   4.409  11.673  0.00  0.00    +0.000 A 
ATOM     10  N   UNL     1       6.225   3.515  12.199  0.00  0.00    +0.000 N 
ATOM     11  O   UNL     1       5.582   2.723  11.461  0.00  0.00    +0.000 OA
ATOM     12  N   UNL     1       5.977   3.427  13.513  0.00  0.00    +0.000 NA
ENDBRANCH   4   6
ENDBRANCH   1   5
BRANCH   1  13
ATOM     13  S   UNL     1       6.581   5.470  18.898  0.00  0.00    +0.000 S 
ATOM     14  O   UNL     1       7.378   5.689  20.088  0.00  0.00    +0.000 OA
ATOM     15  O   UNL     1       6.267   6.543  17.981  0.00  0.00    +0.000 OA
BRANCH  13  16
ATOM     16  C   UNL     1       5.033   4.752  19.418  0.00  0.00    +0.000 A 
ATOM     17  C   UNL     1       3.917   5.575  19.608  0.00  0.00    +0.000 A 
ATOM     18  C   UNL     1       2.720   5.019  20.066  0.00  0.00    +0.000 A 
ATOM     19  C   UNL     1       2.649   3.640  20.319  0.00  0.00    +0.000 A 
ATOM     20  C   UNL     1       3.758   2.812  20.085  0.00  0.00    +0.000 A 
ATOM     21  C   UNL     1       4.953   3.371  19.625  0.00  0.00    +0.000 A 
BRANCH  19  22
ATOM     22  N   UNL     1       1.411   3.063  20.859  0.00  0.00    +0.000 N 
ATOM     23  O   UNL     1       1.459   2.543  21.982  0.00  0.00    +0.000 OA
ATOM     24  O   UNL     1       0.396   3.114  20.149  0.00  0.00    +0.000 OA
ENDBRANCH  19  22
ENDBRANCH  13  16
ENDBRANCH   1  13
TORSDOF 5
ENDMDL
MODEL 6
REMARK VINA RESULT:      -7.7      3.858      4.510
REMARK  Name = 
REMARK  6 active torsions:
REMARK  status: ('A' for Active; 'I' for Inactive)
REMARK    1  A    between atoms: C_1  and  C_2
REMARK    2  A    between atoms: C_2  and  C_17
REMARK    3  A    between atoms: N_3  and  N_4
REMARK    4  A    between atoms: N_4  and  S_5
REMARK    5  A    between atoms: S_5  and  C_8
REMARK    6  A    between atoms: C_11  and  N_12
REMARK                            x       y       z     vdW  Elec       q    Type
REMARK                         _______ _______ _______ _____ _____    ______ ____
ROOT
ATOM      1  N   UNL     1       4.767   6.246  18.145  0.00  0.00    +0.000 N 
ATOM      2  H   UNL     1       5.376   6.723  18.807  0.00  0.00    +0.000 HD
ENDROOT
BRANCH   1   5
ATOM      3  C   UNL     1       7.163   4.643  17.665  0.00  0.00    +0.000 C 
ATOM      4  C   UNL     1       6.217   5.165  16.605  0.00  0.00    +0.000 C 
ATOM      5  N   UNL     1       5.150   5.878  16.820  0.00  0.00    +0.000 NA
BRANCH   4   6
ATOM      6  C   UNL     1       6.573   4.846  15.182  0.00  0.00    +0.000 A 
ATOM      7  C   UNL     1       5.832   3.910  14.472  0.00  0.00    +0.000 A 
ATOM      8  C   UNL     1       6.153   3.683  13.146  0.00  0.00    +0.000 A 
ATOM      9  C   UNL     1       7.207   4.403  12.603  0.00  0.00    +0.000 A 
ATOM     10  N   UNL     1       7.904   5.304  13.375  0.00  0.00    +0.000 N 
ATOM     11  O   UNL     1       8.867   5.963  12.904  0.00  0.00    +0.000 OA
ATOM     12  N   UNL     1       7.603   5.538  14.660  0.00  0.00    +0.000 NA
ENDBRANCH   4   6
ENDBRANCH   1   5
BRANCH   1  13
ATOM     13  S   UNL     1       3.290   5.640  18.751  0.00  0.00    +0.000 S 
ATOM     14  O   UNL     1       2.616   4.903  17.702  0.00  0.00    +0.000 OA
ATOM     15  O   UNL     1       3.523   5.069  20.058  0.00  0.00    +0.000 OA
BRANCH  13  16
ATOM     16  C   UNL     1       2.392   7.163  18.994  0.00  0.00    +0.000 A 
ATOM     17  C   UNL     1       2.205   8.036  17.916  0.00  0.00    +0.000 A 
ATOM     18  C   UNL     1       1.546   9.251  18.120  0.00  0.00    +0.000 A 
ATOM     19  C   UNL     1       1.073   9.576  19.400  0.00  0.00    +0.000 A 
ATOM     20  C   UNL     1       1.223   8.678  20.468  0.00  0.00    +0.000 A 
ATOM     21  C   UNL     1       1.879   7.462  20.261  0.00  0.00    +0.000 A 
BRANCH  19  22
ATOM     22  N   UNL     1       0.435  10.880  19.631  0.00  0.00    +0.000 N 
ATOM     23  O   UNL     1       0.990  11.662  20.413  0.00  0.00    +0.000 OA
ATOM     24  O   UNL     1      -0.632  11.110  19.043  0.00  0.00    +0.000 OA
ENDBRANCH  19  22
ENDBRANCH  13  16
ENDBRANCH   1  13
TORSDOF 5
ENDMDL
MODEL 7
REMARK VINA RESULT:      -7.7      2.319      7.225
REMARK  Name = 
REMARK  6 active torsions:
REMARK  status: ('A' for Active; 'I' for Inactive)
REMARK    1  A    between atoms: C_1  and  C_2
REMARK    2  A    between atoms: C_2  and  C_17
REMARK    3  A    between atoms: N_3  and  N_4
REMARK    4  A    between atoms: N_4  and  S_5
REMARK    5  A    between atoms: S_5  and  C_8
REMARK    6  A    between atoms: C_11  and  N_12
REMARK                            x       y       z     vdW  Elec       q    Type
REMARK                         _______ _______ _______ _____ _____    ______ ____
ROOT
ATOM      1  N   UNL     1       5.610   6.363  17.783  0.00  0.00    +0.000 N 
ATOM      2  H   UNL     1       5.330   7.316  17.559  0.00  0.00    +0.000 HD
ENDROOT
BRANCH   1   5
ATOM      3  C   UNL     1       2.744   6.866  18.046  0.00  0.00    +0.000 C 
ATOM      4  C   UNL     1       3.465   5.604  18.466  0.00  0.00    +0.000 C 
ATOM      5  N   UNL     1       4.742   5.381  18.348  0.00  0.00    +0.000 NA
BRANCH   4   6
ATOM      6  C   UNL     1       2.621   4.537  19.101  0.00  0.00    +0.000 A 
ATOM      7  C   UNL     1       1.677   3.855  18.344  0.00  0.00    +0.000 A 
ATOM      8  C   UNL     1       0.957   2.840  18.948  0.00  0.00    +0.000 A 
ATOM      9  C   UNL     1       1.218   2.566  20.282  0.00  0.00    +0.000 A 
ATOM     10  N   UNL     1       2.160   3.296  20.970  0.00  0.00    +0.000 N 
ATOM     11  O   UNL     1       2.407   3.069  22.182  0.00  0.00    +0.000 OA
ATOM     12  N   UNL     1       2.868   4.281  20.399  0.00  0.00    +0.000 NA
ENDBRANCH   4   6
ENDBRANCH   1   5
BRANCH   1  13
ATOM     13  S   UNL     1       7.139   5.853  17.219  0.00  0.00    +0.000 S 
ATOM     14  O   UNL     1       7.933   7.018  16.886  0.00  0.00    +0.000 OA
ATOM     15  O   UNL     1       7.634   4.814  18.094  0.00  0.00    +0.000 OA
BRANCH  13  16
ATOM     16  C   UNL     1       6.672   5.070  15.685  0.00  0.00    +0.000 A 
ATOM     17  C   UNL     1       5.595   4.176  15.663  0.00  0.00    +0.000 A 
ATOM     18  C   UNL     1       5.264   3.525  14.472  0.00  0.00    +0.000 A 
ATOM     19  C   UNL     1       6.011   3.782  13.312  0.00  0.00    +0.000 A 
ATOM     20  C   UNL     1       7.061   4.711  13.328  0.00  0.00    +0.000 A 
ATOM     21  C   UNL     1       7.389   5.363  14.519  0.00  0.00    +0.000 A 
BRANCH  19  22
ATOM     22  N   UNL     1       5.704   3.052  12.073  0.00  0.00    +0.000 N 
ATOM     23  O   UNL     1       4.568   3.177  11.597  0.00  0.00    +0.000 OA
ATOM     24  O   UNL     1       6.596   2.340  11.590  0.00  0.00    +0.000 OA
ENDBRANCH  19  22
ENDBRANCH  13  16
ENDBRANCH   1  13
TORSDOF 5
ENDMDL
MODEL 8
REMARK VINA RESULT:      -7.6      4.798      8.901
REMARK  Name = 
REMARK  6 active torsions:
REMARK  status: ('A' for Active; 'I' for Inactive)
REMARK    1  A    between atoms: C_1  and  C_2
REMARK    2  A    between atoms: C_2  and  C_17
REMARK    3  A    between atoms: N_3  and  N_4
REMARK    4  A    between atoms: N_4  and  S_5
REMARK    5  A    between atoms: S_5  and  C_8
REMARK    6  A    between atoms: C_11  and  N_12
REMARK                            x       y       z     vdW  Elec       q    Type
REMARK                         _______ _______ _______ _____ _____    ______ ____
ROOT
ATOM      1  N   UNL     1       2.694   7.203  18.808  0.00  0.00    +0.000 N 
ATOM      2  H   UNL     1       2.982   7.690  17.962  0.00  0.00    +0.000 HD
ENDROOT
BRANCH   1   5
ATOM      3  C   UNL     1       1.194   9.671  18.364  0.00  0.00    +0.000 C 
ATOM      4  C   UNL     1       1.264   8.897  19.663  0.00  0.00    +0.000 C 
ATOM      5  N   UNL     1       1.932   7.797  19.859  0.00  0.00    +0.000 NA
BRANCH   4   6
ATOM      6  C   UNL     1       0.514   9.480  20.825  0.00  0.00    +0.000 A 
ATOM      7  C   UNL     1       0.660   8.931  22.093  0.00  0.00    +0.000 A 
ATOM      8  C   UNL     1      -0.002   9.529  23.150  0.00  0.00    +0.000 A 
ATOM      9  C   UNL     1      -0.782  10.643  22.879  0.00  0.00    +0.000 A 
ATOM     10  N   UNL     1      -0.889  11.119  21.592  0.00  0.00    +0.000 N 
ATOM     11  O   UNL     1      -1.596  12.124  21.323  0.00  0.00    +0.000 OA
ATOM     12  N   UNL     1      -0.251  10.554  20.558  0.00  0.00    +0.000 NA
ENDBRANCH   4   6
ENDBRANCH   1   5
BRANCH   1  13
ATOM     13  S   UNL     1       2.932   5.513  18.847  0.00  0.00    +0.000 S 
ATOM     14  O   UNL     1       3.681   5.168  20.038  0.00  0.00    +0.000 OA
ATOM     15  O   UNL     1       1.686   4.860  18.511  0.00  0.00    +0.000 OA
BRANCH  13  16
ATOM     16  C   UNL     1       4.026   5.308  17.452  0.00  0.00    +0.000 A 
ATOM     17  C   UNL     1       4.383   4.021  17.035  0.00  0.00    +0.000 A 
ATOM     18  C   UNL     1       5.280   3.863  15.976  0.00  0.00    +0.000 A 
ATOM     19  C   UNL     1       5.804   4.997  15.338  0.00  0.00    +0.000 A 
ATOM     20  C   UNL     1       5.409   6.285  15.730  0.00  0.00    +0.000 A 
ATOM     21  C   UNL     1       4.510   6.440  16.788  0.00  0.00    +0.000 A 
BRANCH  19  22
ATOM     22  N   UNL     1       6.795   4.835  14.265  0.00  0.00    +0.000 N 
ATOM     23  O   UNL     1       6.554   4.005  13.379  0.00  0.00    +0.000 OA
ATOM     24  O   UNL     1       7.822   5.527  14.322  0.00  0.00    +0.000 OA
ENDBRANCH  19  22
ENDBRANCH  13  16
ENDBRANCH   1  13
TORSDOF 5
ENDMDL
MODEL 9
REMARK VINA RESULT:      -7.6      4.767      8.937
REMARK  Name = 
REMARK  6 active torsions:
REMARK  status: ('A' for Active; 'I' for Inactive)
REMARK    1  A    between atoms: C_1  and  C_2
REMARK    2  A    between atoms: C_2  and  C_17
REMARK    3  A    between atoms: N_3  and  N_4
REMARK    4  A    between atoms: N_4  and  S_5
REMARK    5  A    between atoms: S_5  and  C_8
REMARK    6  A    between atoms: C_11  and  N_12
REMARK                            x       y       z     vdW  Elec       q    Type
REMARK                         _______ _______ _______ _____ _____    ______ ____
ROOT
ATOM      1  N   UNL     1       2.750   7.169  18.791  0.00  0.00    +0.000 N 
ATOM      2  H   UNL     1       3.096   7.676  17.979  0.00  0.00    +0.000 HD
ENDROOT
BRANCH   1   5
ATOM      3  C   UNL     1       1.180   9.591  18.333  0.00  0.00    +0.000 C 
ATOM      4  C   UNL     1       1.291   8.840  19.642  0.00  0.00    +0.000 C 
ATOM      5  N   UNL     1       1.990   7.762  19.845  0.00  0.00    +0.000 NA
BRANCH   4   6
ATOM      6  C   UNL     1       0.545   9.424  20.807  0.00  0.00    +0.000 A 
ATOM      7  C   UNL     1       0.714   8.889  22.079  0.00  0.00    +0.000 A 
ATOM      8  C   UNL     1       0.055   9.488  23.137  0.00  0.00    +0.000 A 
ATOM      9  C   UNL     1      -0.745  10.587  22.864  0.00  0.00    +0.000 A 
ATOM     10  N   UNL     1      -0.873  11.049  21.574  0.00  0.00    +0.000 N 
ATOM     11  O   UNL     1      -1.599  12.041  21.303  0.00  0.00    +0.000 OA
ATOM     12  N   UNL     1      -0.239  10.483  20.538  0.00  0.00    +0.000 NA
ENDBRANCH   4   6
ENDBRANCH   1   5
BRANCH   1  13
ATOM     13  S   UNL     1       2.882   5.468  18.757  0.00  0.00    +0.000 S 
ATOM     14  O   UNL     1       3.496   5.016  19.989  0.00  0.00    +0.000 OA
ATOM     15  O   UNL     1       1.637   4.914  18.275  0.00  0.00    +0.000 OA
BRANCH  13  16
ATOM     16  C   UNL     1       4.087   5.263  17.457  0.00  0.00    +0.000 A 
ATOM     17  C   UNL     1       4.598   6.391  16.803  0.00  0.00    +0.000 A 
ATOM     18  C   UNL     1       5.502   6.226  15.750  0.00  0.00    +0.000 A 
ATOM     19  C   UNL     1       5.893   4.934  15.369  0.00  0.00    +0.000 A 
ATOM     20  C   UNL     1       5.413   3.809  16.056  0.00  0.00    +0.000 A 
ATOM     21  C   UNL     1       4.511   3.976  17.110  0.00  0.00    +0.000 A 
BRANCH  19  22
ATOM     22  N   UNL     1       6.795   4.756  14.223  0.00  0.00    +0.000 N 
ATOM     23  O   UNL     1       7.794   5.485  14.157  0.00  0.00    +0.000 OA
ATOM     24  O   UNL     1       6.492   3.899  13.380  0.00  0.00    +0.000 OA
ENDBRANCH  19  22
ENDBRANCH  13  16
ENDBRANCH   1  13
TORSDOF 5
ENDMDL
