MODEL 1
REMARK VINA RESULT:      -6.9      0.000      0.000
REMARK  Name = 
REMARK  3 active torsions:
REMARK  status: ('A' for Active; 'I' for Inactive)
REMARK    1  A    between atoms: C_1  and  N_2
REMARK    2  A    between atoms: C_6  and  C_8
REMARK    3  A    between atoms: C_11  and  C_12
REMARK                            x       y       z     vdW  Elec       q    Type
REMARK                         _______ _______ _______ _____ _____    ______ ____
ROOT
ATOM      1  C   UNL     1       5.837   4.904  16.180  0.00  0.00    +0.000 A 
ATOM      2  C   UNL     1       4.797   4.412  15.388  0.00  0.00    +0.000 A 
ATOM      3  C   UNL     1       5.041   4.003  14.074  0.00  0.00    +0.000 A 
ATOM      4  C   UNL     1       6.316   4.146  13.510  0.00  0.00    +0.000 A 
ATOM      5  C   UNL     1       7.341   4.712  14.286  0.00  0.00    +0.000 A 
ATOM      6  C   UNL     1       7.105   5.085  15.613  0.00  0.00    +0.000 A 
ENDROOT
BRANCH   1  12
ATOM      7  C   UNL     1       0.920   3.616  20.126  0.00  0.00    +0.000 C 
ATOM      8  N   UNL     1       2.350   3.670  19.835  0.00  0.00    +0.000 NA
ATOM      9  C   UNL     1       2.888   5.028  20.081  0.00  0.00    +0.000 C 
ATOM     10  C   UNL     1       4.383   5.163  19.718  0.00  0.00    +0.000 C 
ATOM     11  N   UNL     1       4.656   4.662  18.367  0.00  0.00    +0.000 N 
ATOM     12  C   UNL     1       5.617   5.315  17.593  0.00  0.00    +0.000 C 
ATOM     13  O   UNL     1       6.283   6.257  18.019  0.00  0.00    +0.000 OA
ATOM     14  C   UNL     1       4.133   3.309  18.145  0.00  0.00    +0.000 C 
ATOM     15  C   UNL     1       2.622   3.266  18.441  0.00  0.00    +0.000 C 
ENDBRANCH   1  12
BRANCH   4  16
ATOM     16  C   UNL     1       6.582   3.726  12.084  0.00  0.00    +0.000 C 
ATOM     17  F   UNL     1       7.386   4.595  11.406  0.00  0.00    +0.000 F 
ATOM     18  F   UNL     1       7.193   2.513  12.002  0.00  0.00    +0.000 F 
ATOM     19  F   UNL     1       5.442   3.625  11.347  0.00  0.00    +0.000 F 
ENDBRANCH   4  16
TORSDOF 2
ENDMDL
MODEL 2
REMARK VINA RESULT:      -6.9      0.111      1.113
REMARK  Name = 
REMARK  3 active torsions:
REMARK  status: ('A' for Active; 'I' for Inactive)
REMARK    1  A    between atoms: C_1  and  N_2
REMARK    2  A    between atoms: C_6  and  C_8
REMARK    3  A    between atoms: C_11  and  C_12
REMARK                            x       y       z     vdW  Elec       q    Type
REMARK                         _______ _______ _______ _____ _____    ______ ____
ROOT
ATOM      1  C   UNL     1       5.835   4.981  16.210  0.00  0.00    +0.000 A 
ATOM      2  C   UNL     1       7.125   4.989  15.675  0.00  0.00    +0.000 A 
ATOM      3  C   UNL     1       7.345   4.600  14.352  0.00  0.00    +0.000 A 
ATOM      4  C   UNL     1       6.284   4.131  13.563  0.00  0.00    +0.000 A 
ATOM      5  C   UNL     1       5.001   4.053  14.129  0.00  0.00    +0.000 A 
ATOM      6  C   UNL     1       4.776   4.479  15.442  0.00  0.00    +0.000 A 
ENDROOT
BRANCH   1  12
ATOM      7  C   UNL     1       0.958   3.477  20.129  0.00  0.00    +0.000 C 
ATOM      8  N   UNL     1       2.385   3.624  19.856  0.00  0.00    +0.000 NA
ATOM      9  C   UNL     1       2.821   5.024  20.063  0.00  0.00    +0.000 C 
ATOM     10  C   UNL     1       4.309   5.253  19.717  0.00  0.00    +0.000 C 
ATOM     11  N   UNL     1       4.639   4.728  18.387  0.00  0.00    +0.000 N 
ATOM     12  C   UNL     1       5.563   5.422  17.605  0.00  0.00    +0.000 C 
ATOM     13  O   UNL     1       6.155   6.422  18.008  0.00  0.00    +0.000 OA
ATOM     14  C   UNL     1       4.217   3.334  18.205  0.00  0.00    +0.000 C 
ATOM     15  C   UNL     1       2.708   3.194  18.481  0.00  0.00    +0.000 C 
ENDBRANCH   1  12
BRANCH   4  16
ATOM     16  C   UNL     1       6.517   3.688  12.138  0.00  0.00    +0.000 C 
ATOM     17  F   UNL     1       7.335   4.525  11.438  0.00  0.00    +0.000 F 
ATOM     18  F   UNL     1       7.092   2.457  12.061  0.00  0.00    +0.000 F 
ATOM     19  F   UNL     1       5.364   3.611  11.419  0.00  0.00    +0.000 F 
ENDBRANCH   4  16
TORSDOF 2
ENDMDL
MODEL 3
REMARK VINA RESULT:      -6.8      3.751      4.649
REMARK  Name = 
REMARK  3 active torsions:
REMARK  status: ('A' for Active; 'I' for Inactive)
REMARK    1  A    between atoms: C_1  and  N_2
REMARK    2  A    between atoms: C_6  and  C_8
REMARK    3  A    between atoms: C_11  and  C_12
REMARK                            x       y       z     vdW  Elec       q    Type
REMARK                         _______ _______ _______ _____ _____    ______ ____
ROOT
ATOM      1  C   UNL     1       3.531   6.038  18.063  0.00  0.00    +0.000 A 
ATOM      2  C   UNL     1       4.441   6.850  17.382  0.00  0.00    +0.000 A 
ATOM      3  C   UNL     1       5.170   6.346  16.302  0.00  0.00    +0.000 A 
ATOM      4  C   UNL     1       5.050   4.999  15.931  0.00  0.00    +0.000 A 
ATOM      5  C   UNL     1       4.190   4.167  16.666  0.00  0.00    +0.000 A 
ATOM      6  C   UNL     1       3.432   4.683  17.722  0.00  0.00    +0.000 A 
ENDROOT
BRANCH   1  12
ATOM      7  C   UNL     1       1.310  11.977  19.161  0.00  0.00    +0.000 C 
ATOM      8  N   UNL     1       1.114  10.533  19.058  0.00  0.00    +0.000 NA
ATOM      9  C   UNL     1       1.478   9.859  20.325  0.00  0.00    +0.000 C 
ATOM     10  C   UNL     1       1.361   8.321  20.249  0.00  0.00    +0.000 C 
ATOM     11  N   UNL     1       2.063   7.785  19.078  0.00  0.00    +0.000 N 
ATOM     12  C   UNL     1       2.715   6.555  19.194  0.00  0.00    +0.000 C 
ATOM     13  O   UNL     1       2.675   5.878  20.219  0.00  0.00    +0.000 OA
ATOM     14  C   UNL     1       1.678   8.451  17.829  0.00  0.00    +0.000 C 
ATOM     15  C   UNL     1       1.902   9.971  17.943  0.00  0.00    +0.000 C 
ENDBRANCH   1  12
BRANCH   4  16
ATOM     16  C   UNL     1       5.850   4.440  14.779  0.00  0.00    +0.000 C 
ATOM     17  F   UNL     1       5.112   4.250  13.648  0.00  0.00    +0.000 F 
ATOM     18  F   UNL     1       6.881   5.252  14.417  0.00  0.00    +0.000 F 
ATOM     19  F   UNL     1       6.406   3.231  15.065  0.00  0.00    +0.000 F 
ENDBRANCH   4  16
TORSDOF 2
ENDMDL
MODEL 4
REMARK VINA RESULT:      -6.8      3.894      4.762
REMARK  Name = 
REMARK  3 active torsions:
REMARK  status: ('A' for Active; 'I' for Inactive)
REMARK    1  A    between atoms: C_1  and  N_2
REMARK    2  A    between atoms: C_6  and  C_8
REMARK    3  A    between atoms: C_11  and  C_12
REMARK                            x       y       z     vdW  Elec       q    Type
REMARK                         _______ _______ _______ _____ _____    ______ ____
ROOT
ATOM      1  C   UNL     1       5.387   5.120  17.499  0.00  0.00    +0.000 A 
ATOM      2  C   UNL     1       6.524   5.013  18.303  0.00  0.00    +0.000 A 
ATOM      3  C   UNL     1       7.389   6.099  18.453  0.00  0.00    +0.000 A 
ATOM      4  C   UNL     1       7.167   7.288  17.744  0.00  0.00    +0.000 A 
ATOM      5  C   UNL     1       6.065   7.366  16.878  0.00  0.00    +0.000 A 
ATOM      6  C   UNL     1       5.178   6.291  16.758  0.00  0.00    +0.000 A 
ENDROOT
BRANCH   1  12
ATOM      7  C   UNL     1       1.277   2.604  21.763  0.00  0.00    +0.000 C 
ATOM      8  N   UNL     1       1.581   3.149  20.442  0.00  0.00    +0.000 NA
ATOM      9  C   UNL     1       2.132   2.100  19.553  0.00  0.00    +0.000 C 
ATOM     10  C   UNL     1       2.541   2.638  18.164  0.00  0.00    +0.000 C 
ATOM     11  N   UNL     1       3.401   3.822  18.277  0.00  0.00    +0.000 N 
ATOM     12  C   UNL     1       4.427   3.994  17.346  0.00  0.00    +0.000 C 
ATOM     13  O   UNL     1       4.603   3.225  16.402  0.00  0.00    +0.000 OA
ATOM     14  C   UNL     1       2.832   4.857  19.146  0.00  0.00    +0.000 C 
ATOM     15  C   UNL     1       2.529   4.276  20.540  0.00  0.00    +0.000 C 
ENDBRANCH   1  12
BRANCH   4  16
ATOM     16  C   UNL     1       8.110   8.459  17.884  0.00  0.00    +0.000 C 
ATOM     17  F   UNL     1       8.942   8.359  18.961  0.00  0.00    +0.000 F 
ATOM     18  F   UNL     1       8.921   8.610  16.802  0.00  0.00    +0.000 F 
ATOM     19  F   UNL     1       7.455   9.644  18.032  0.00  0.00    +0.000 F 
ENDBRANCH   4  16
TORSDOF 2
ENDMDL
MODEL 5
REMARK VINA RESULT:      -6.8      6.077      7.790
REMARK  Name = 
REMARK  3 active torsions:
REMARK  status: ('A' for Active; 'I' for Inactive)
REMARK    1  A    between atoms: C_1  and  N_2
REMARK    2  A    between atoms: C_6  and  C_8
REMARK    3  A    between atoms: C_11  and  C_12
REMARK                            x       y       z     vdW  Elec       q    Type
REMARK                         _______ _______ _______ _____ _____    ______ ____
ROOT
ATOM      1  C   UNL     1       2.524   7.727  18.466  0.00  0.00    +0.000 A 
ATOM      2  C   UNL     1       2.240   7.496  19.814  0.00  0.00    +0.000 A 
ATOM      3  C   UNL     1       1.331   8.310  20.495  0.00  0.00    +0.000 A 
ATOM      4  C   UNL     1       0.745   9.412  19.855  0.00  0.00    +0.000 A 
ATOM      5  C   UNL     1       1.092   9.685  18.522  0.00  0.00    +0.000 A 
ATOM      6  C   UNL     1       1.972   8.846  17.830  0.00  0.00    +0.000 A 
ENDROOT
BRANCH   1  12
ATOM      7  C   UNL     1       3.304   1.343  18.672  0.00  0.00    +0.000 C 
ATOM      8  N   UNL     1       3.108   2.588  17.933  0.00  0.00    +0.000 NA
ATOM      9  C   UNL     1       4.400   3.274  17.703  0.00  0.00    +0.000 C 
ATOM     10  C   UNL     1       4.244   4.635  16.990  0.00  0.00    +0.000 C 
ATOM     11  N   UNL     1       3.244   5.479  17.652  0.00  0.00    +0.000 N 
ATOM     12  C   UNL     1       3.460   6.857  17.704  0.00  0.00    +0.000 C 
ATOM     13  O   UNL     1       4.425   7.398  17.167  0.00  0.00    +0.000 OA
ATOM     14  C   UNL     1       1.964   4.790  17.856  0.00  0.00    +0.000 C 
ATOM     15  C   UNL     1       2.181   3.486  18.648  0.00  0.00    +0.000 C 
ENDBRANCH   1  12
BRANCH   4  16
ATOM     16  C   UNL     1      -0.221  10.309  20.591  0.00  0.00    +0.000 C 
ATOM     17  F   UNL     1       0.334  11.489  20.992  0.00  0.00    +0.000 F 
ATOM     18  F   UNL     1      -1.301  10.645  19.835  0.00  0.00    +0.000 F 
ATOM     19  F   UNL     1      -0.716   9.731  21.719  0.00  0.00    +0.000 F 
ENDBRANCH   4  16
TORSDOF 2
ENDMDL
MODEL 6
REMARK VINA RESULT:      -6.7      6.074      7.813
REMARK  Name = 
REMARK  3 active torsions:
REMARK  status: ('A' for Active; 'I' for Inactive)
REMARK    1  A    between atoms: C_1  and  N_2
REMARK    2  A    between atoms: C_6  and  C_8
REMARK    3  A    between atoms: C_11  and  C_12
REMARK                            x       y       z     vdW  Elec       q    Type
REMARK                         _______ _______ _______ _____ _____    ______ ____
ROOT
ATOM      1  C   UNL     1       2.562   7.724  18.488  0.00  0.00    +0.000 A 
ATOM      2  C   UNL     1       1.901   8.803  17.897  0.00  0.00    +0.000 A 
ATOM      3  C   UNL     1       1.053   9.615  18.655  0.00  0.00    +0.000 A 
ATOM      4  C   UNL     1       0.800   9.318  20.001  0.00  0.00    +0.000 A 
ATOM      5  C   UNL     1       1.408   8.187  20.571  0.00  0.00    +0.000 A 
ATOM      6  C   UNL     1       2.286   7.398  19.822  0.00  0.00    +0.000 A 
ENDROOT
BRANCH   1  12
ATOM      7  C   UNL     1       3.348   1.339  18.638  0.00  0.00    +0.000 C 
ATOM      8  N   UNL     1       3.149   2.590  17.910  0.00  0.00    +0.000 NA
ATOM      9  C   UNL     1       4.440   3.280  17.683  0.00  0.00    +0.000 C 
ATOM     10  C   UNL     1       4.282   4.646  16.982  0.00  0.00    +0.000 C 
ATOM     11  N   UNL     1       3.282   5.484  17.653  0.00  0.00    +0.000 N 
ATOM     12  C   UNL     1       3.497   6.862  17.717  0.00  0.00    +0.000 C 
ATOM     13  O   UNL     1       4.460   7.408  17.182  0.00  0.00    +0.000 OA
ATOM     14  C   UNL     1       2.003   4.792  17.854  0.00  0.00    +0.000 C 
ATOM     15  C   UNL     1       2.222   3.482  18.635  0.00  0.00    +0.000 C 
ENDBRANCH   1  12
BRANCH   4  16
ATOM     16  C   UNL     1      -0.131  10.178  20.821  0.00  0.00    +0.000 C 
ATOM     17  F   UNL     1      -0.676   9.523  21.886  0.00  0.00    +0.000 F 
ATOM     18  F   UNL     1       0.488  11.275  21.337  0.00  0.00    +0.000 F 
ATOM     19  F   UNL     1      -1.184  10.646  20.097  0.00  0.00    +0.000 F 
ENDBRANCH   4  16
TORSDOF 2
ENDMDL
MODEL 7
REMARK VINA RESULT:      -6.7      3.942      4.764
REMARK  Name = 
REMARK  3 active torsions:
REMARK  status: ('A' for Active; 'I' for Inactive)
REMARK    1  A    between atoms: C_1  and  N_2
REMARK    2  A    between atoms: C_6  and  C_8
REMARK    3  A    between atoms: C_11  and  C_12
REMARK                            x       y       z     vdW  Elec       q    Type
REMARK                         _______ _______ _______ _____ _____    ______ ____
ROOT
ATOM      1  C   UNL     1       5.564   5.259  17.443  0.00  0.00    +0.000 A 
ATOM      2  C   UNL     1       5.222   6.495  16.891  0.00  0.00    +0.000 A 
ATOM      3  C   UNL     1       6.081   7.590  17.019  0.00  0.00    +0.000 A 
ATOM      4  C   UNL     1       7.264   7.481  17.762  0.00  0.00    +0.000 A 
ATOM      5  C   UNL     1       7.567   6.256  18.380  0.00  0.00    +0.000 A 
ATOM      6  C   UNL     1       6.726   5.151  18.218  0.00  0.00    +0.000 A 
ENDROOT
BRANCH   1  12
ATOM      7  C   UNL     1       1.389   2.672  21.600  0.00  0.00    +0.000 C 
ATOM      8  N   UNL     1       1.731   3.176  20.272  0.00  0.00    +0.000 NA
ATOM      9  C   UNL     1       2.396   2.127  19.465  0.00  0.00    +0.000 C 
ATOM     10  C   UNL     1       2.848   2.628  18.075  0.00  0.00    +0.000 C 
ATOM     11  N   UNL     1       3.623   3.869  18.176  0.00  0.00    +0.000 N 
ATOM     12  C   UNL     1       4.687   4.066  17.294  0.00  0.00    +0.000 C 
ATOM     13  O   UNL     1       4.963   3.269  16.399  0.00  0.00    +0.000 OA
ATOM     14  C   UNL     1       2.943   4.903  18.963  0.00  0.00    +0.000 C 
ATOM     15  C   UNL     1       2.599   4.366  20.366  0.00  0.00    +0.000 C 
ENDBRANCH   1  12
BRANCH   4  16
ATOM     16  C   UNL     1       8.188   8.665  17.924  0.00  0.00    +0.000 C 
ATOM     17  F   UNL     1       8.975   8.590  19.035  0.00  0.00    +0.000 F 
ATOM     18  F   UNL     1       9.040   8.810  16.874  0.00  0.00    +0.000 F 
ATOM     19  F   UNL     1       7.513   9.843  18.028  0.00  0.00    +0.000 F 
ENDBRANCH   4  16
TORSDOF 2
ENDMDL
MODEL 8
REMARK VINA RESULT:      -6.7      5.666      7.751
REMARK  Name = 
REMARK  3 active torsions:
REMARK  status: ('A' for Active; 'I' for Inactive)
REMARK    1  A    between atoms: C_1  and  N_2
REMARK    2  A    between atoms: C_6  and  C_8
REMARK    3  A    between atoms: C_11  and  C_12
REMARK                            x       y       z     vdW  Elec       q    Type
REMARK                         _______ _______ _______ _____ _____    ______ ____
ROOT
ATOM      1  C   UNL     1       2.430   6.790  18.858  0.00  0.00    +0.000 A 
ATOM      2  C   UNL     1       2.223   7.680  17.801  0.00  0.00    +0.000 A 
ATOM      3  C   UNL     1       1.709   8.957  18.042  0.00  0.00    +0.000 A 
ATOM      4  C   UNL     1       1.327   9.337  19.337  0.00  0.00    +0.000 A 
ATOM      5  C   UNL     1       1.465   8.411  20.384  0.00  0.00    +0.000 A 
ATOM      6  C   UNL     1       2.016   7.148  20.148  0.00  0.00    +0.000 A 
ENDROOT
BRANCH   1  12
ATOM      7  C   UNL     1       6.914   4.858  14.666  0.00  0.00    +0.000 C 
ATOM      8  N   UNL     1       6.367   4.925  16.020  0.00  0.00    +0.000 NA
ATOM      9  C   UNL     1       5.346   3.872  16.229  0.00  0.00    +0.000 C 
ATOM     10  C   UNL     1       4.680   3.943  17.620  0.00  0.00    +0.000 C 
ATOM     11  N   UNL     1       4.195   5.295  17.917  0.00  0.00    +0.000 N 
ATOM     12  C   UNL     1       3.008   5.437  18.639  0.00  0.00    +0.000 C 
ATOM     13  O   UNL     1       2.385   4.475  19.085  0.00  0.00    +0.000 OA
ATOM     14  C   UNL     1       5.223   6.324  17.722  0.00  0.00    +0.000 C 
ATOM     15  C   UNL     1       5.783   6.254  16.289  0.00  0.00    +0.000 C 
ENDBRANCH   1  12
BRANCH   4  16
ATOM     16  C   UNL     1       0.749  10.707  19.602  0.00  0.00    +0.000 C 
ATOM     17  F   UNL     1       0.958  11.589  18.582  0.00  0.00    +0.000 F 
ATOM     18  F   UNL     1      -0.597  10.677  19.798  0.00  0.00    +0.000 F 
ATOM     19  F   UNL     1       1.279  11.292  20.711  0.00  0.00    +0.000 F 
ENDBRANCH   4  16
TORSDOF 2
ENDMDL
MODEL 9
REMARK VINA RESULT:      -6.6      5.623      7.691
REMARK  Name = 
REMARK  3 active torsions:
REMARK  status: ('A' for Active; 'I' for Inactive)
REMARK    1  A    between atoms: C_1  and  N_2
REMARK    2  A    between atoms: C_6  and  C_8
REMARK    3  A    between atoms: C_11  and  C_12
REMARK                            x       y       z     vdW  Elec       q    Type
REMARK                         _______ _______ _______ _____ _____    ______ ____
ROOT
ATOM      1  C   UNL     1       2.361   6.675  18.788  0.00  0.00    +0.000 A 
ATOM      2  C   UNL     1       2.050   7.065  20.093  0.00  0.00    +0.000 A 
ATOM      3  C   UNL     1       1.525   8.335  20.346  0.00  0.00    +0.000 A 
ATOM      4  C   UNL     1       1.368   9.260  19.304  0.00  0.00    +0.000 A 
ATOM      5  C   UNL     1       1.754   8.890  18.005  0.00  0.00    +0.000 A 
ATOM      6  C   UNL     1       2.243   7.606  17.747  0.00  0.00    +0.000 A 
ENDROOT
BRANCH   1  12
ATOM      7  C   UNL     1       7.056   4.895  14.764  0.00  0.00    +0.000 C 
ATOM      8  N   UNL     1       6.410   4.866  16.074  0.00  0.00    +0.000 NA
ATOM      9  C   UNL     1       5.327   3.857  16.107  0.00  0.00    +0.000 C 
ATOM     10  C   UNL     1       4.560   3.835  17.447  0.00  0.00    +0.000 C 
ATOM     11  N   UNL     1       4.119   5.179  17.837  0.00  0.00    +0.000 N 
ATOM     12  C   UNL     1       2.889   5.319  18.482  0.00  0.00    +0.000 C 
ATOM     13  O   UNL     1       2.187   4.356  18.788  0.00  0.00    +0.000 OA
ATOM     14  C   UNL     1       5.208   6.163  17.817  0.00  0.00    +0.000 C 
ATOM     15  C   UNL     1       5.872   6.195  16.427  0.00  0.00    +0.000 C 
ENDBRANCH   1  12
BRANCH   4  16
ATOM     16  C   UNL     1       0.822  10.642  19.572  0.00  0.00    +0.000 C 
ATOM     17  F   UNL     1       1.316  11.208  20.711  0.00  0.00    +0.000 F 
ATOM     18  F   UNL     1       1.102  11.519  18.570  0.00  0.00    +0.000 F 
ATOM     19  F   UNL     1      -0.532  10.651  19.713  0.00  0.00    +0.000 F 
ENDBRANCH   4  16
TORSDOF 2
ENDMDL
