MODEL 1
REMARK VINA RESULT:      -7.1      0.000      0.000
REMARK  Name = 
REMARK  5 active torsions:
REMARK  status: ('A' for Active; 'I' for Inactive)
REMARK    1  A    between atoms: C_4  and  C_5
REMARK    2  A    between atoms: C_5  and  N_6
REMARK    3  A    between atoms: C_10  and  C_11
REMARK    4  A    between atoms: C_13  and  C_14
REMARK    5  A    between atoms: C_14  and  N_15
REMARK                            x       y       z     vdW  Elec       q    Type
REMARK                         _______ _______ _______ _____ _____    ______ ____
ROOT
ATOM      1  N   UNL     1       3.543   3.428  19.182  0.00  0.00    +0.000 N 
ATOM      2  C   UNL     1       3.229   2.091  19.083  0.00  0.00    +0.000 A 
ATOM      3  C   UNL     1       1.861   2.043  18.985  0.00  0.00    +0.000 A 
ATOM      4  N   UNL     1       1.338   3.305  19.003  0.00  0.00    +0.000 NA
ATOM      5  C   UNL     1       2.354   4.135  19.169  0.00  0.00    +0.000 A 
ENDROOT
BRANCH   5   6
ATOM      6  C   UNL     1       2.142   5.552  19.313  0.00  0.00    +0.000 A 
ATOM      7  C   UNL     1       1.604   6.160  20.434  0.00  0.00    +0.000 A 
ATOM      8  C   UNL     1       1.744   7.589  20.430  0.00  0.00    +0.000 A 
ATOM      9  C   UNL     1       2.201   8.016  19.198  0.00  0.00    +0.000 A 
ATOM     10  S   UNL     1       2.642   6.726  18.178  0.00  0.00    +0.000 S 
BRANCH   8  11
ATOM     11  C   UNL     1       1.439   8.493  21.591  0.00  0.00    +0.000 C 
BRANCH  11  12
ATOM     12  N   UNL     1       0.037   8.920  21.652  0.00  0.00    +0.000 NA
ATOM     13  C   UNL     1      -0.376   9.925  20.673  0.00  0.00    +0.000 C 
ATOM     14  C   UNL     1      -0.469  11.238  21.430  0.00  0.00    +0.000 C 
ATOM     15  C   UNL     1      -0.833  10.829  22.843  0.00  0.00    +0.000 C 
ATOM     16  C   UNL     1      -0.427   9.366  22.967  0.00  0.00    +0.000 C 
ENDBRANCH  11  12
ENDBRANCH   8  11
ENDBRANCH   5   6
BRANCH   1  17
ATOM     17  C   UNL     1       4.906   3.929  19.268  0.00  0.00    +0.000 C 
BRANCH  17  21
ATOM     18  N   UNL     1       7.582   6.811  16.522  0.00  0.00    +0.000 N 
ATOM     19  C   UNL     1       6.706   5.832  16.783  0.00  0.00    +0.000 A 
ATOM     20  N   UNL     1       6.370   5.471  17.999  0.00  0.00    +0.000 NA
ATOM     21  C   UNL     1       5.424   4.454  17.965  0.00  0.00    +0.000 A 
ATOM     22  C   UNL     1       5.085   4.040  16.688  0.00  0.00    +0.000 A 
ATOM     23  S   UNL     1       5.922   4.974  15.523  0.00  0.00    +0.000 S 
ATOM     24  H   UNL     1       7.777   7.444  17.290  0.00  0.00    +0.000 HD
ATOM     25  H   UNL     1       7.521   7.260  15.616  0.00  0.00    +0.000 HD
ENDBRANCH  17  21
ENDBRANCH   1  17
TORSDOF 5
ENDMDL
MODEL 2
REMARK VINA RESULT:      -7.1      4.283      7.004
REMARK  Name = 
REMARK  5 active torsions:
REMARK  status: ('A' for Active; 'I' for Inactive)
REMARK    1  A    between atoms: C_4  and  C_5
REMARK    2  A    between atoms: C_5  and  N_6
REMARK    3  A    between atoms: C_10  and  C_11
REMARK    4  A    between atoms: C_13  and  C_14
REMARK    5  A    between atoms: C_14  and  N_15
REMARK                            x       y       z     vdW  Elec       q    Type
REMARK                         _______ _______ _______ _____ _____    ______ ____
ROOT
ATOM      1  N   UNL     1       5.287   5.131  16.411  0.00  0.00    +0.000 N 
ATOM      2  C   UNL     1       5.055   4.272  15.360  0.00  0.00    +0.000 A 
ATOM      3  C   UNL     1       6.281   4.066  14.779  0.00  0.00    +0.000 A 
ATOM      4  N   UNL     1       7.249   4.757  15.451  0.00  0.00    +0.000 NA
ATOM      5  C   UNL     1       6.636   5.435  16.408  0.00  0.00    +0.000 A 
ENDROOT
BRANCH   5   6
ATOM      6  C   UNL     1       7.363   6.339  17.262  0.00  0.00    +0.000 A 
ATOM      7  C   UNL     1       7.622   7.666  16.968  0.00  0.00    +0.000 A 
ATOM      8  C   UNL     1       8.126   8.410  18.088  0.00  0.00    +0.000 A 
ATOM      9  C   UNL     1       8.422   7.552  19.131  0.00  0.00    +0.000 A 
ATOM     10  S   UNL     1       7.908   5.957  18.834  0.00  0.00    +0.000 S 
BRANCH   8  11
ATOM     11  C   UNL     1       8.307   9.900  18.128  0.00  0.00    +0.000 C 
BRANCH  11  12
ATOM     12  N   UNL     1       9.528  10.327  18.822  0.00  0.00    +0.000 NA
ATOM     13  C   UNL     1       9.354  10.840  20.180  0.00  0.00    +0.000 C 
ATOM     14  C   UNL     1       9.488  12.350  20.080  0.00  0.00    +0.000 C 
ATOM     15  C   UNL     1      10.425  12.565  18.908  0.00  0.00    +0.000 C 
ATOM     16  C   UNL     1      10.366  11.280  18.091  0.00  0.00    +0.000 C 
ENDBRANCH  11  12
ENDBRANCH   8  11
ENDBRANCH   5   6
BRANCH   1  17
ATOM     17  C   UNL     1       4.249   5.583  17.324  0.00  0.00    +0.000 C 
BRANCH  17  21
ATOM     18  N   UNL     1       5.049   1.883  20.271  0.00  0.00    +0.000 N 
ATOM     19  C   UNL     1       4.326   2.833  19.662  0.00  0.00    +0.000 A 
ATOM     20  N   UNL     1       4.837   3.697  18.818  0.00  0.00    +0.000 NA
ATOM     21  C   UNL     1       3.849   4.541  18.323  0.00  0.00    +0.000 A 
ATOM     22  C   UNL     1       2.590   4.306  18.848  0.00  0.00    +0.000 A 
ATOM     23  S   UNL     1       2.639   2.979  19.928  0.00  0.00    +0.000 S 
ATOM     24  H   UNL     1       5.952   1.683  19.855  0.00  0.00    +0.000 HD
ATOM     25  H   UNL     1       4.554   1.066  20.606  0.00  0.00    +0.000 HD
ENDBRANCH  17  21
ENDBRANCH   1  17
TORSDOF 5
ENDMDL
MODEL 3
REMARK VINA RESULT:      -7.0      1.945      2.370
REMARK  Name = 
REMARK  5 active torsions:
REMARK  status: ('A' for Active; 'I' for Inactive)
REMARK    1  A    between atoms: C_4  and  C_5
REMARK    2  A    between atoms: C_5  and  N_6
REMARK    3  A    between atoms: C_10  and  C_11
REMARK    4  A    between atoms: C_13  and  C_14
REMARK    5  A    between atoms: C_14  and  N_15
REMARK                            x       y       z     vdW  Elec       q    Type
REMARK                         _______ _______ _______ _____ _____    ______ ____
ROOT
ATOM      1  N   UNL     1       3.810   3.522  18.491  0.00  0.00    +0.000 N 
ATOM      2  C   UNL     1       3.500   2.321  17.896  0.00  0.00    +0.000 A 
ATOM      3  C   UNL     1       2.222   2.467  17.420  0.00  0.00    +0.000 A 
ATOM      4  N   UNL     1       1.753   3.722  17.692  0.00  0.00    +0.000 NA
ATOM      5  C   UNL     1       2.699   4.339  18.380  0.00  0.00    +0.000 A 
ENDROOT
BRANCH   5   6
ATOM      6  C   UNL     1       2.495   5.667  18.899  0.00  0.00    +0.000 A 
ATOM      7  C   UNL     1       2.483   6.820  18.134  0.00  0.00    +0.000 A 
ATOM      8  C   UNL     1       2.000   7.970  18.845  0.00  0.00    +0.000 A 
ATOM      9  C   UNL     1       1.865   7.673  20.188  0.00  0.00    +0.000 A 
ATOM     10  S   UNL     1       2.105   6.022  20.523  0.00  0.00    +0.000 S 
BRANCH   8  11
ATOM     11  C   UNL     1       1.687   9.303  18.227  0.00  0.00    +0.000 C 
BRANCH  11  12
ATOM     12  N   UNL     1       1.016  10.234  19.142  0.00  0.00    +0.000 NA
ATOM     13  C   UNL     1      -0.446  10.206  19.135  0.00  0.00    +0.000 C 
ATOM     14  C   UNL     1      -0.887  11.438  18.365  0.00  0.00    +0.000 C 
ATOM     15  C   UNL     1       0.218  12.448  18.610  0.00  0.00    +0.000 C 
ATOM     16  C   UNL     1       1.434  11.633  19.033  0.00  0.00    +0.000 C 
ENDBRANCH  11  12
ENDBRANCH   8  11
ENDBRANCH   5   6
BRANCH   1  17
ATOM     17  C   UNL     1       5.101   3.810  19.098  0.00  0.00    +0.000 C 
BRANCH  17  21
ATOM     18  N   UNL     1       7.365   5.310  15.144  0.00  0.00    +0.000 N 
ATOM     19  C   UNL     1       6.938   5.374  16.413  0.00  0.00    +0.000 A 
ATOM     20  N   UNL     1       6.190   4.451  16.969  0.00  0.00    +0.000 NA
ATOM     21  C   UNL     1       5.927   4.767  18.296  0.00  0.00    +0.000 A 
ATOM     22  C   UNL     1       6.472   5.971  18.710  0.00  0.00    +0.000 A 
ATOM     23  S   UNL     1       7.367   6.682  17.435  0.00  0.00    +0.000 S 
ATOM     24  H   UNL     1       7.313   4.396  14.708  0.00  0.00    +0.000 HD
ATOM     25  H   UNL     1       8.194   5.841  14.906  0.00  0.00    +0.000 HD
ENDBRANCH  17  21
ENDBRANCH   1  17
TORSDOF 5
ENDMDL
MODEL 4
REMARK VINA RESULT:      -7.0      2.952      7.851
REMARK  Name = 
REMARK  5 active torsions:
REMARK  status: ('A' for Active; 'I' for Inactive)
REMARK    1  A    between atoms: C_4  and  C_5
REMARK    2  A    between atoms: C_5  and  N_6
REMARK    3  A    between atoms: C_10  and  C_11
REMARK    4  A    between atoms: C_13  and  C_14
REMARK    5  A    between atoms: C_14  and  N_15
REMARK                            x       y       z     vdW  Elec       q    Type
REMARK                         _______ _______ _______ _____ _____    ______ ____
ROOT
ATOM      1  N   UNL     1       3.112   6.501  19.163  0.00  0.00    +0.000 N 
ATOM      2  C   UNL     1       2.123   7.435  19.374  0.00  0.00    +0.000 A 
ATOM      3  C   UNL     1       2.179   8.278  18.293  0.00  0.00    +0.000 A 
ATOM      4  N   UNL     1       3.157   7.877  17.427  0.00  0.00    +0.000 NA
ATOM      5  C   UNL     1       3.748   6.831  17.980  0.00  0.00    +0.000 A 
ENDROOT
BRANCH   5   6
ATOM      6  C   UNL     1       4.887   6.205  17.358  0.00  0.00    +0.000 A 
ATOM      7  C   UNL     1       4.839   5.034  16.621  0.00  0.00    +0.000 A 
ATOM      8  C   UNL     1       6.049   4.769  15.895  0.00  0.00    +0.000 A 
ATOM      9  C   UNL     1       7.038   5.653  16.285  0.00  0.00    +0.000 A 
ATOM     10  S   UNL     1       6.456   6.874  17.318  0.00  0.00    +0.000 S 
BRANCH   8  11
ATOM     11  C   UNL     1       6.222   3.691  14.864  0.00  0.00    +0.000 C 
BRANCH  11  12
ATOM     12  N   UNL     1       6.035   4.158  13.485  0.00  0.00    +0.000 NA
ATOM     13  C   UNL     1       4.918   3.569  12.749  0.00  0.00    +0.000 C 
ATOM     14  C   UNL     1       5.530   2.564  11.789  0.00  0.00    +0.000 C 
ATOM     15  C   UNL     1       6.905   3.125  11.486  0.00  0.00    +0.000 C 
ATOM     16  C   UNL     1       7.220   4.082  12.630  0.00  0.00    +0.000 C 
ENDBRANCH  11  12
ENDBRANCH   8  11
ENDBRANCH   5   6
BRANCH   1  17
ATOM     17  C   UNL     1       3.372   5.388  20.063  0.00  0.00    +0.000 C 
BRANCH  17  21
ATOM     18  N   UNL     1       3.796   0.929  18.346  0.00  0.00    +0.000 N 
ATOM     19  C   UNL     1       3.151   2.025  18.767  0.00  0.00    +0.000 A 
ATOM     20  N   UNL     1       3.765   3.095  19.214  0.00  0.00    +0.000 NA
ATOM     21  C   UNL     1       2.847   4.082  19.551  0.00  0.00    +0.000 A 
ATOM     22  C   UNL     1       1.525   3.709  19.377  0.00  0.00    +0.000 A 
ATOM     23  S   UNL     1       1.441   2.126  18.731  0.00  0.00    +0.000 S 
ATOM     24  H   UNL     1       4.780   1.052  18.132  0.00  0.00    +0.000 HD
ATOM     25  H   UNL     1       3.303   0.317  17.706  0.00  0.00    +0.000 HD
ENDBRANCH  17  21
ENDBRANCH   1  17
TORSDOF 5
ENDMDL
MODEL 5
REMARK VINA RESULT:      -6.8      2.426      7.481
REMARK  Name = 
REMARK  5 active torsions:
REMARK  status: ('A' for Active; 'I' for Inactive)
REMARK    1  A    between atoms: C_4  and  C_5
REMARK    2  A    between atoms: C_5  and  N_6
REMARK    3  A    between atoms: C_10  and  C_11
REMARK    4  A    between atoms: C_13  and  C_14
REMARK    5  A    between atoms: C_14  and  N_15
REMARK                            x       y       z     vdW  Elec       q    Type
REMARK                         _______ _______ _______ _____ _____    ______ ____
ROOT
ATOM      1  N   UNL     1       2.087   4.361  19.744  0.00  0.00    +0.000 N 
ATOM      2  C   UNL     1       0.891   3.732  20.006  0.00  0.00    +0.000 A 
ATOM      3  C   UNL     1       0.843   2.665  19.145  0.00  0.00    +0.000 A 
ATOM      4  N   UNL     1       1.975   2.617  18.383  0.00  0.00    +0.000 NA
ATOM      5  C   UNL     1       2.703   3.670  18.716  0.00  0.00    +0.000 A 
ENDROOT
BRANCH   5   6
ATOM      6  C   UNL     1       3.938   3.966  18.037  0.00  0.00    +0.000 A 
ATOM      7  C   UNL     1       4.062   4.156  16.672  0.00  0.00    +0.000 A 
ATOM      8  C   UNL     1       5.335   4.696  16.286  0.00  0.00    +0.000 A 
ATOM      9  C   UNL     1       6.197   4.694  17.366  0.00  0.00    +0.000 A 
ATOM     10  S   UNL     1       5.426   4.262  18.821  0.00  0.00    +0.000 S 
BRANCH   8  11
ATOM     11  C   UNL     1       5.686   5.190  14.911  0.00  0.00    +0.000 C 
BRANCH  11  12
ATOM     12  N   UNL     1       6.693   4.370  14.229  0.00  0.00    +0.000 NA
ATOM     13  C   UNL     1       7.764   5.094  13.547  0.00  0.00    +0.000 C 
ATOM     14  C   UNL     1       7.440   5.029  12.065  0.00  0.00    +0.000 C 
ATOM     15  C   UNL     1       6.687   3.723  11.905  0.00  0.00    +0.000 C 
ATOM     16  C   UNL     1       6.165   3.375  13.294  0.00  0.00    +0.000 C 
ENDBRANCH  11  12
ENDBRANCH   8  11
ENDBRANCH   5   6
BRANCH   1  17
ATOM     17  C   UNL     1       2.557   5.531  20.470  0.00  0.00    +0.000 C 
BRANCH  17  21
ATOM     18  N   UNL     1       0.756   9.966  20.160  0.00  0.00    +0.000 N 
ATOM     19  C   UNL     1       1.391   8.867  19.731  0.00  0.00    +0.000 A 
ATOM     20  N   UNL     1       1.600   7.815  20.487  0.00  0.00    +0.000 NA
ATOM     21  C   UNL     1       2.254   6.819  19.770  0.00  0.00    +0.000 A 
ATOM     22  C   UNL     1       2.559   7.169  18.466  0.00  0.00    +0.000 A 
ATOM     23  S   UNL     1       1.970   8.739  18.123  0.00  0.00    +0.000 S 
ATOM     24  H   UNL     1       0.206   9.855  21.006  0.00  0.00    +0.000 HD
ATOM     25  H   UNL     1       0.329  10.559  19.459  0.00  0.00    +0.000 HD
ENDBRANCH  17  21
ENDBRANCH   1  17
TORSDOF 5
ENDMDL
MODEL 6
REMARK VINA RESULT:      -6.8      1.518      1.706
REMARK  Name = 
REMARK  5 active torsions:
REMARK  status: ('A' for Active; 'I' for Inactive)
REMARK    1  A    between atoms: C_4  and  C_5
REMARK    2  A    between atoms: C_5  and  N_6
REMARK    3  A    between atoms: C_10  and  C_11
REMARK    4  A    between atoms: C_13  and  C_14
REMARK    5  A    between atoms: C_14  and  N_15
REMARK                            x       y       z     vdW  Elec       q    Type
REMARK                         _______ _______ _______ _____ _____    ______ ____
ROOT
ATOM      1  N   UNL     1       3.558   3.991  19.283  0.00  0.00    +0.000 N 
ATOM      2  C   UNL     1       3.694   2.817  19.989  0.00  0.00    +0.000 A 
ATOM      3  C   UNL     1       2.872   2.949  21.079  0.00  0.00    +0.000 A 
ATOM      4  N   UNL     1       2.231   4.155  21.049  0.00  0.00    +0.000 NA
ATOM      5  C   UNL     1       2.684   4.799  19.986  0.00  0.00    +0.000 A 
ENDROOT
BRANCH   5   6
ATOM      6  C   UNL     1       2.268   6.148  19.701  0.00  0.00    +0.000 A 
ATOM      7  C   UNL     1       1.735   7.023  20.631  0.00  0.00    +0.000 A 
ATOM      8  C   UNL     1       1.652   8.376  20.158  0.00  0.00    +0.000 A 
ATOM      9  C   UNL     1       1.937   8.423  18.807  0.00  0.00    +0.000 A 
ATOM     10  S   UNL     1       2.487   6.931  18.200  0.00  0.00    +0.000 S 
BRANCH   8  11
ATOM     11  C   UNL     1       1.306   9.570  21.002  0.00  0.00    +0.000 C 
BRANCH  11  12
ATOM     12  N   UNL     1      -0.131   9.708  21.267  0.00  0.00    +0.000 NA
ATOM     13  C   UNL     1      -0.740  10.980  20.883  0.00  0.00    +0.000 C 
ATOM     14  C   UNL     1      -0.941  11.757  22.173  0.00  0.00    +0.000 C 
ATOM     15  C   UNL     1      -1.144  10.686  23.226  0.00  0.00    +0.000 C 
ATOM     16  C   UNL     1      -0.547   9.412  22.639  0.00  0.00    +0.000 C 
ENDBRANCH  11  12
ENDBRANCH   8  11
ENDBRANCH   5   6
BRANCH   1  17
ATOM     17  C   UNL     1       4.236   4.254  18.022  0.00  0.00    +0.000 C 
BRANCH  17  21
ATOM     18  N   UNL     1       8.285   5.481  20.281  0.00  0.00    +0.000 N 
ATOM     19  C   UNL     1       7.363   5.517  19.310  0.00  0.00    +0.000 A 
ATOM     20  N   UNL     1       6.299   4.749  19.298  0.00  0.00    +0.000 NA
ATOM     21  C   UNL     1       5.509   5.025  18.189  0.00  0.00    +0.000 A 
ATOM     22  C   UNL     1       6.028   5.997  17.351  0.00  0.00    +0.000 A 
ATOM     23  S   UNL     1       7.493   6.607  17.994  0.00  0.00    +0.000 S 
ATOM     24  H   UNL     1       8.000   5.030  21.144  0.00  0.00    +0.000 HD
ATOM     25  H   UNL     1       8.855   6.308  20.411  0.00  0.00    +0.000 HD
ENDBRANCH  17  21
ENDBRANCH   1  17
TORSDOF 5
ENDMDL
MODEL 7
REMARK VINA RESULT:      -6.8      1.651      2.121
REMARK  Name = 
REMARK  5 active torsions:
REMARK  status: ('A' for Active; 'I' for Inactive)
REMARK    1  A    between atoms: C_4  and  C_5
REMARK    2  A    between atoms: C_5  and  N_6
REMARK    3  A    between atoms: C_10  and  C_11
REMARK    4  A    between atoms: C_13  and  C_14
REMARK    5  A    between atoms: C_14  and  N_15
REMARK                            x       y       z     vdW  Elec       q    Type
REMARK                         _______ _______ _______ _____ _____    ______ ____
ROOT
ATOM      1  N   UNL     1       3.688   3.518  18.585  0.00  0.00    +0.000 N 
ATOM      2  C   UNL     1       3.321   2.266  18.146  0.00  0.00    +0.000 A 
ATOM      3  C   UNL     1       1.971   2.338  17.920  0.00  0.00    +0.000 A 
ATOM      4  N   UNL     1       1.509   3.595  18.190  0.00  0.00    +0.000 NA
ATOM      5  C   UNL     1       2.542   4.291  18.636  0.00  0.00    +0.000 A 
ENDROOT
BRANCH   5   6
ATOM      6  C   UNL     1       2.384   5.648  19.092  0.00  0.00    +0.000 A 
ATOM      7  C   UNL     1       2.400   6.763  18.271  0.00  0.00    +0.000 A 
ATOM      8  C   UNL     1       1.960   7.960  18.929  0.00  0.00    +0.000 A 
ATOM      9  C   UNL     1       1.828   7.734  20.286  0.00  0.00    +0.000 A 
ATOM     10  S   UNL     1       2.019   6.093  20.699  0.00  0.00    +0.000 S 
BRANCH   8  11
ATOM     11  C   UNL     1       1.683   9.271  18.250  0.00  0.00    +0.000 C 
BRANCH  11  12
ATOM     12  N   UNL     1       1.100  10.284  19.137  0.00  0.00    +0.000 NA
ATOM     13  C   UNL     1      -0.353  10.244  19.297  0.00  0.00    +0.000 C 
ATOM     14  C   UNL     1      -0.900  11.389  18.463  0.00  0.00    +0.000 C 
ATOM     15  C   UNL     1       0.206  12.427  18.482  0.00  0.00    +0.000 C 
ATOM     16  C   UNL     1       1.477  11.668  18.845  0.00  0.00    +0.000 C 
ENDBRANCH  11  12
ENDBRANCH   8  11
ENDBRANCH   5   6
BRANCH   1  17
ATOM     17  C   UNL     1       5.057   3.889  18.906  0.00  0.00    +0.000 C 
BRANCH  17  21
ATOM     18  N   UNL     1       7.743   7.266  16.811  0.00  0.00    +0.000 N 
ATOM     19  C   UNL     1       7.036   6.130  16.882  0.00  0.00    +0.000 A 
ATOM     20  N   UNL     1       6.473   5.700  17.987  0.00  0.00    +0.000 NA
ATOM     21  C   UNL     1       5.783   4.517  17.756  0.00  0.00    +0.000 A 
ATOM     22  C   UNL     1       5.872   4.054  16.454  0.00  0.00    +0.000 A 
ATOM     23  S   UNL     1       6.784   5.145  15.503  0.00  0.00    +0.000 S 
ATOM     24  H   UNL     1       7.607   7.919  17.575  0.00  0.00    +0.000 HD
ATOM     25  H   UNL     1       7.833   7.701  15.900  0.00  0.00    +0.000 HD
ENDBRANCH  17  21
ENDBRANCH   1  17
TORSDOF 5
ENDMDL
MODEL 8
REMARK VINA RESULT:      -6.7      1.087      1.237
REMARK  Name = 
REMARK  5 active torsions:
REMARK  status: ('A' for Active; 'I' for Inactive)
REMARK    1  A    between atoms: C_4  and  C_5
REMARK    2  A    between atoms: C_5  and  N_6
REMARK    3  A    between atoms: C_10  and  C_11
REMARK    4  A    between atoms: C_13  and  C_14
REMARK    5  A    between atoms: C_14  and  N_15
REMARK                            x       y       z     vdW  Elec       q    Type
REMARK                         _______ _______ _______ _____ _____    ______ ____
ROOT
ATOM      1  N   UNL     1       3.055   3.507  18.254  0.00  0.00    +0.000 N 
ATOM      2  C   UNL     1       3.143   2.191  18.649  0.00  0.00    +0.000 A 
ATOM      3  C   UNL     1       2.561   2.142  19.890  0.00  0.00    +0.000 A 
ATOM      4  N   UNL     1       2.109   3.378  20.254  0.00  0.00    +0.000 NA
ATOM      5  C   UNL     1       2.451   4.208  19.282  0.00  0.00    +0.000 A 
ENDROOT
BRANCH   5   6
ATOM      6  C   UNL     1       2.192   5.621  19.385  0.00  0.00    +0.000 A 
ATOM      7  C   UNL     1       1.642   6.244  20.492  0.00  0.00    +0.000 A 
ATOM      8  C   UNL     1       1.734   7.676  20.443  0.00  0.00    +0.000 A 
ATOM      9  C   UNL     1       2.166   8.081  19.195  0.00  0.00    +0.000 A 
ATOM     10  S   UNL     1       2.642   6.776  18.211  0.00  0.00    +0.000 S 
BRANCH   8  11
ATOM     11  C   UNL     1       1.407   8.605  21.579  0.00  0.00    +0.000 C 
BRANCH  11  12
ATOM     12  N   UNL     1       0.002   9.024  21.611  0.00  0.00    +0.000 NA
ATOM     13  C   UNL     1      -0.372  10.104  20.699  0.00  0.00    +0.000 C 
ATOM     14  C   UNL     1      -0.505  11.352  21.556  0.00  0.00    +0.000 C 
ATOM     15  C   UNL     1      -0.930  10.829  22.914  0.00  0.00    +0.000 C 
ATOM     16  C   UNL     1      -0.523   9.360  22.936  0.00  0.00    +0.000 C 
ENDBRANCH  11  12
ENDBRANCH   8  11
ENDBRANCH   5   6
BRANCH   1  17
ATOM     17  C   UNL     1       3.524   3.994  16.966  0.00  0.00    +0.000 C 
BRANCH  17  21
ATOM     18  N   UNL     1       7.665   5.257  14.902  0.00  0.00    +0.000 N 
ATOM     19  C   UNL     1       6.846   4.936  15.912  0.00  0.00    +0.000 A 
ATOM     20  N   UNL     1       5.570   4.674  15.750  0.00  0.00    +0.000 NA
ATOM     21  C   UNL     1       4.979   4.344  16.964  0.00  0.00    +0.000 A 
ATOM     22  C   UNL     1       5.842   4.399  18.046  0.00  0.00    +0.000 A 
ATOM     23  S   UNL     1       7.418   4.814  17.523  0.00  0.00    +0.000 S 
ATOM     24  H   UNL     1       7.328   5.032  13.972  0.00  0.00    +0.000 HD
ATOM     25  H   UNL     1       8.656   5.095  15.037  0.00  0.00    +0.000 HD
ENDBRANCH  17  21
ENDBRANCH   1  17
TORSDOF 5
ENDMDL
MODEL 9
REMARK VINA RESULT:      -6.7      3.841      8.659
REMARK  Name = 
REMARK  5 active torsions:
REMARK  status: ('A' for Active; 'I' for Inactive)
REMARK    1  A    between atoms: C_4  and  C_5
REMARK    2  A    between atoms: C_5  and  N_6
REMARK    3  A    between atoms: C_10  and  C_11
REMARK    4  A    between atoms: C_13  and  C_14
REMARK    5  A    between atoms: C_14  and  N_15
REMARK                            x       y       z     vdW  Elec       q    Type
REMARK                         _______ _______ _______ _____ _____    ______ ____
ROOT
ATOM      1  N   UNL     1      -0.261  11.892  19.047  0.00  0.00    +0.000 N 
ATOM      2  C   UNL     1      -0.044  13.221  18.760  0.00  0.00    +0.000 A 
ATOM      3  C   UNL     1       1.280  13.309  18.413  0.00  0.00    +0.000 A 
ATOM      4  N   UNL     1       1.868  12.077  18.464  0.00  0.00    +0.000 NA
ATOM      5  C   UNL     1       0.944  11.233  18.892  0.00  0.00    +0.000 A 
ENDROOT
BRANCH   5   6
ATOM      6  C   UNL     1       1.257   9.848  19.136  0.00  0.00    +0.000 A 
ATOM      7  C   UNL     1       1.808   8.987  18.203  0.00  0.00    +0.000 A 
ATOM      8  C   UNL     1       2.265   7.749  18.770  0.00  0.00    +0.000 A 
ATOM      9  C   UNL     1       1.846   7.647  20.083  0.00  0.00    +0.000 A 
ATOM     10  S   UNL     1       1.124   9.079  20.655  0.00  0.00    +0.000 S 
BRANCH   8  11
ATOM     11  C   UNL     1       3.077   6.713  18.048  0.00  0.00    +0.000 C 
BRANCH  11  12
ATOM     12  N   UNL     1       2.888   5.352  18.562  0.00  0.00    +0.000 NA
ATOM     13  C   UNL     1       4.095   4.538  18.700  0.00  0.00    +0.000 C 
ATOM     14  C   UNL     1       4.078   3.559  17.539  0.00  0.00    +0.000 C 
ATOM     15  C   UNL     1       2.605   3.346  17.252  0.00  0.00    +0.000 C 
ATOM     16  C   UNL     1       1.888   4.547  17.857  0.00  0.00    +0.000 C 
ENDBRANCH  11  12
ENDBRANCH   8  11
ENDBRANCH   5   6
BRANCH   1  17
ATOM     17  C   UNL     1      -1.558  11.353  19.427  0.00  0.00    +0.000 C 
BRANCH  17  21
ATOM     18  N   UNL     1      -2.863  10.423  14.906  0.00  0.00    +0.000 N 
ATOM     19  C   UNL     1      -3.031  10.821  16.174  0.00  0.00    +0.000 A 
ATOM     20  N   UNL     1      -2.074  10.792  17.071  0.00  0.00    +0.000 NA
ATOM     21  C   UNL     1      -2.527  11.291  18.287  0.00  0.00    +0.000 A 
ATOM     22  C   UNL     1      -3.860  11.664  18.284  0.00  0.00    +0.000 A 
ATOM     23  S   UNL     1      -4.532  11.436  16.727  0.00  0.00    +0.000 S 
ATOM     24  H   UNL     1      -1.902  10.347  14.591  0.00  0.00    +0.000 HD
ATOM     25  H   UNL     1      -3.501  10.796  14.213  0.00  0.00    +0.000 HD
ENDBRANCH  17  21
ENDBRANCH   1  17
TORSDOF 5
ENDMDL
