MODEL 1
REMARK VINA RESULT:      -9.1      0.000      0.000
REMARK  Name = 
REMARK  4 active torsions:
REMARK  status: ('A' for Active; 'I' for Inactive)
REMARK    1  A    between atoms: C_2  and  C_3
REMARK    2  A    between atoms: C_3  and  C_4
REMARK    3  A    between atoms: C_4  and  C_5
REMARK    4  A    between atoms: C_14  and  C_15
REMARK                            x       y       z     vdW  Elec       q    Type
REMARK                         _______ _______ _______ _____ _____    ______ ____
ROOT
ATOM      1  C   UNL     1       2.171   6.963  18.657  0.00  0.00    +0.000 C 
ATOM      2  C   UNL     1       2.108   6.698  20.170  0.00  0.00    +0.000 C 
ATOM      3  C   UNL     1       1.515   5.323  20.509  0.00  0.00    +0.000 C 
ATOM      4  C   UNL     1       1.883   4.196  19.579  0.00  0.00    +0.000 A 
ATOM      5  C   UNL     1       1.615   2.873  19.965  0.00  0.00    +0.000 A 
ATOM      6  C   UNL     1       1.901   1.804  19.112  0.00  0.00    +0.000 A 
ATOM      7  C   UNL     1       2.427   2.042  17.848  0.00  0.00    +0.000 A 
ATOM      8  C   UNL     1       2.694   3.349  17.449  0.00  0.00    +0.000 A 
ATOM      9  C   UNL     1       2.442   4.432  18.312  0.00  0.00    +0.000 A 
ATOM     10  C   UNL     1       2.910   5.817  17.897  0.00  0.00    +0.000 C 
ENDROOT
BRANCH  10  11
ATOM     11  C   UNL     1       4.439   5.888  17.946  0.00  0.00    +0.000 A 
ATOM     12  C   UNL     1       5.149   6.368  16.834  0.00  0.00    +0.000 A 
ATOM     13  C   UNL     1       6.544   6.432  16.855  0.00  0.00    +0.000 A 
ATOM     14  C   UNL     1       7.245   6.029  17.990  0.00  0.00    +0.000 A 
ATOM     15  C   UNL     1       6.559   5.532  19.092  0.00  0.00    +0.000 A 
ATOM     16  C   UNL     1       5.167   5.446  19.062  0.00  0.00    +0.000 A 
ENDBRANCH  10  11
BRANCH   1  17
ATOM     17  C   UNL     1       2.760   8.348  18.291  0.00  0.00    +0.000 C 
BRANCH  17  18
ATOM     18  C   UNL     1       1.795   9.286  17.562  0.00  0.00    +0.000 C 
BRANCH  18  20
ATOM     19  O   UNL     1       2.693  11.481  17.985  0.00  0.00    +0.000 OA
ATOM     20  C   UNL     1       1.776  10.683  18.175  0.00  0.00    +0.000 C 
ATOM     21  N   UNL     1       0.661  11.007  18.937  0.00  0.00    +0.000 N 
ATOM     22  C   UNL     1      -0.453  10.118  19.258  0.00  0.00    +0.000 C 
ATOM     23  C   UNL     1      -1.749  10.639  18.636  0.00  0.00    +0.000 C 
ATOM     24  C   UNL     1      -2.003  12.098  19.026  0.00  0.00    +0.000 C 
ATOM     25  C   UNL     1      -0.785  12.976  18.744  0.00  0.00    +0.000 C 
ATOM     26  C   UNL     1       0.478  12.389  19.382  0.00  0.00    +0.000 C 
ENDBRANCH  18  20
ENDBRANCH  17  18
ENDBRANCH   1  17
TORSDOF 4
ENDMDL
MODEL 2
REMARK VINA RESULT:      -9.0      0.898      1.018
REMARK  Name = 
REMARK  4 active torsions:
REMARK  status: ('A' for Active; 'I' for Inactive)
REMARK    1  A    between atoms: C_2  and  C_3
REMARK    2  A    between atoms: C_3  and  C_4
REMARK    3  A    between atoms: C_4  and  C_5
REMARK    4  A    between atoms: C_14  and  C_15
REMARK                            x       y       z     vdW  Elec       q    Type
REMARK                         _______ _______ _______ _____ _____    ______ ____
ROOT
ATOM      1  C   UNL     1       2.048   7.142  18.661  0.00  0.00    +0.000 C 
ATOM      2  C   UNL     1       2.066   6.934  20.184  0.00  0.00    +0.000 C 
ATOM      3  C   UNL     1       1.465   5.586  20.607  0.00  0.00    +0.000 C 
ATOM      4  C   UNL     1       1.754   4.418  19.701  0.00  0.00    +0.000 A 
ATOM      5  C   UNL     1       1.481   3.116  20.150  0.00  0.00    +0.000 A 
ATOM      6  C   UNL     1       1.695   2.011  19.322  0.00  0.00    +0.000 A 
ATOM      7  C   UNL     1       2.153   2.191  18.022  0.00  0.00    +0.000 A 
ATOM      8  C   UNL     1       2.423   3.476  17.561  0.00  0.00    +0.000 A 
ATOM      9  C   UNL     1       2.245   4.595  18.396  0.00  0.00    +0.000 A 
ATOM     10  C   UNL     1       2.717   5.953  17.903  0.00  0.00    +0.000 C 
ENDROOT
BRANCH  10  11
ATOM     11  C   UNL     1       4.248   5.990  17.864  0.00  0.00    +0.000 A 
ATOM     12  C   UNL     1       4.902   6.466  16.716  0.00  0.00    +0.000 A 
ATOM     13  C   UNL     1       6.297   6.499  16.656  0.00  0.00    +0.000 A 
ATOM     14  C   UNL     1       7.055   6.070  17.743  0.00  0.00    +0.000 A 
ATOM     15  C   UNL     1       6.423   5.575  18.879  0.00  0.00    +0.000 A 
ATOM     16  C   UNL     1       5.030   5.520  18.931  0.00  0.00    +0.000 A 
ENDBRANCH  10  11
BRANCH   1  17
ATOM     17  C   UNL     1       2.645   8.499  18.211  0.00  0.00    +0.000 C 
BRANCH  17  18
ATOM     18  C   UNL     1       1.620   9.518  17.705  0.00  0.00    +0.000 C 
BRANCH  18  20
ATOM     19  O   UNL     1       1.458  10.695  19.800  0.00  0.00    +0.000 OA
ATOM     20  C   UNL     1       0.865  10.192  18.846  0.00  0.00    +0.000 C 
ATOM     21  N   UNL     1      -0.519  10.223  18.737  0.00  0.00    +0.000 N 
ATOM     22  C   UNL     1      -1.315   9.616  17.673  0.00  0.00    +0.000 C 
ATOM     23  C   UNL     1      -2.051  10.693  16.875  0.00  0.00    +0.000 C 
ATOM     24  C   UNL     1      -2.864  11.605  17.798  0.00  0.00    +0.000 C 
ATOM     25  C   UNL     1      -2.011  12.156  18.938  0.00  0.00    +0.000 C 
ATOM     26  C   UNL     1      -1.292  11.027  19.684  0.00  0.00    +0.000 C 
ENDBRANCH  18  20
ENDBRANCH  17  18
ENDBRANCH   1  17
TORSDOF 4
ENDMDL
MODEL 3
REMARK VINA RESULT:      -8.6      1.246      1.925
REMARK  Name = 
REMARK  4 active torsions:
REMARK  status: ('A' for Active; 'I' for Inactive)
REMARK    1  A    between atoms: C_2  and  C_3
REMARK    2  A    between atoms: C_3  and  C_4
REMARK    3  A    between atoms: C_4  and  C_5
REMARK    4  A    between atoms: C_14  and  C_15
REMARK                            x       y       z     vdW  Elec       q    Type
REMARK                         _______ _______ _______ _____ _____    ______ ____
ROOT
ATOM      1  C   UNL     1       2.123   7.067  18.693  0.00  0.00    +0.000 C 
ATOM      2  C   UNL     1       2.061   6.766  20.199  0.00  0.00    +0.000 C 
ATOM      3  C   UNL     1       1.467   5.384  20.506  0.00  0.00    +0.000 C 
ATOM      4  C   UNL     1       1.832   4.279  19.550  0.00  0.00    +0.000 A 
ATOM      5  C   UNL     1       1.563   2.947  19.904  0.00  0.00    +0.000 A 
ATOM      6  C   UNL     1       1.848   1.899  19.025  0.00  0.00    +0.000 A 
ATOM      7  C   UNL     1       2.372   2.167  17.766  0.00  0.00    +0.000 A 
ATOM      8  C   UNL     1       2.640   3.482  17.399  0.00  0.00    +0.000 A 
ATOM      9  C   UNL     1       2.390   4.544  18.288  0.00  0.00    +0.000 A 
ATOM     10  C   UNL     1       2.859   5.939  17.905  0.00  0.00    +0.000 C 
ENDROOT
BRANCH  10  11
ATOM     11  C   UNL     1       4.389   6.006  17.954  0.00  0.00    +0.000 A 
ATOM     12  C   UNL     1       5.094   6.582  16.885  0.00  0.00    +0.000 A 
ATOM     13  C   UNL     1       6.489   6.646  16.907  0.00  0.00    +0.000 A 
ATOM     14  C   UNL     1       7.195   6.146  17.999  0.00  0.00    +0.000 A 
ATOM     15  C   UNL     1       6.514   5.553  19.056  0.00  0.00    +0.000 A 
ATOM     16  C   UNL     1       5.121   5.469  19.024  0.00  0.00    +0.000 A 
ENDBRANCH  10  11
BRANCH   1  17
ATOM     17  C   UNL     1       2.714   8.459  18.359  0.00  0.00    +0.000 C 
BRANCH  17  18
ATOM     18  C   UNL     1       1.691   9.495  17.884  0.00  0.00    +0.000 C 
BRANCH  18  20
ATOM     19  O   UNL     1       0.535   9.722  19.985  0.00  0.00    +0.000 OA
ATOM     20  C   UNL     1       1.090  10.286  19.042  0.00  0.00    +0.000 C 
ATOM     21  N   UNL     1       1.224  11.666  18.982  0.00  0.00    +0.000 N 
ATOM     22  C   UNL     1       1.821  12.429  17.888  0.00  0.00    +0.000 C 
ATOM     23  C   UNL     1       3.080  13.153  18.367  0.00  0.00    +0.000 C 
ATOM     24  C   UNL     1       2.791  13.999  19.612  0.00  0.00    +0.000 C 
ATOM     25  C   UNL     1       2.098  13.180  20.699  0.00  0.00    +0.000 C 
ATOM     26  C   UNL     1       0.856  12.471  20.148  0.00  0.00    +0.000 C 
ENDBRANCH  18  20
ENDBRANCH  17  18
ENDBRANCH   1  17
TORSDOF 4
ENDMDL
MODEL 4
REMARK VINA RESULT:      -8.4      1.635      4.170
REMARK  Name = 
REMARK  4 active torsions:
REMARK  status: ('A' for Active; 'I' for Inactive)
REMARK    1  A    between atoms: C_2  and  C_3
REMARK    2  A    between atoms: C_3  and  C_4
REMARK    3  A    between atoms: C_4  and  C_5
REMARK    4  A    between atoms: C_14  and  C_15
REMARK                            x       y       z     vdW  Elec       q    Type
REMARK                         _______ _______ _______ _____ _____    ______ ____
ROOT
ATOM      1  C   UNL     1       2.371   7.363  19.953  0.00  0.00    +0.000 C 
ATOM      2  C   UNL     1       1.818   7.874  18.612  0.00  0.00    +0.000 C 
ATOM      3  C   UNL     1       2.899   7.992  17.529  0.00  0.00    +0.000 C 
ATOM      4  C   UNL     1       3.956   6.918  17.528  0.00  0.00    +0.000 A 
ATOM      5  C   UNL     1       4.809   6.795  16.420  0.00  0.00    +0.000 A 
ATOM      6  C   UNL     1       5.829   5.840  16.401  0.00  0.00    +0.000 A 
ATOM      7  C   UNL     1       6.034   5.017  17.501  0.00  0.00    +0.000 A 
ATOM      8  C   UNL     1       5.199   5.130  18.609  0.00  0.00    +0.000 A 
ATOM      9  C   UNL     1       4.147   6.064  18.627  0.00  0.00    +0.000 A 
ATOM     10  C   UNL     1       3.162   6.028  19.785  0.00  0.00    +0.000 C 
ENDROOT
BRANCH  10  11
ATOM     11  C   UNL     1       2.295   4.769  19.693  0.00  0.00    +0.000 A 
ATOM     12  C   UNL     1       2.030   4.022  20.852  0.00  0.00    +0.000 A 
ATOM     13  C   UNL     1       1.249   2.866  20.789  0.00  0.00    +0.000 A 
ATOM     14  C   UNL     1       0.715   2.448  19.572  0.00  0.00    +0.000 A 
ATOM     15  C   UNL     1       0.985   3.164  18.411  0.00  0.00    +0.000 A 
ATOM     16  C   UNL     1       1.784   4.307  18.470  0.00  0.00    +0.000 A 
ENDBRANCH  10  11
BRANCH   1  17
ATOM     17  C   UNL     1       1.299   7.242  21.064  0.00  0.00    +0.000 C 
BRANCH  17  18
ATOM     18  C   UNL     1       0.205   8.313  21.024  0.00  0.00    +0.000 C 
BRANCH  18  20
ATOM     19  O   UNL     1       1.511   9.752  22.447  0.00  0.00    +0.000 OA
ATOM     20  C   UNL     1       0.704   9.666  21.522  0.00  0.00    +0.000 C 
ATOM     21  N   UNL     1       0.215  10.785  20.862  0.00  0.00    +0.000 N 
ATOM     22  C   UNL     1      -0.778  10.790  19.789  0.00  0.00    +0.000 C 
ATOM     23  C   UNL     1      -0.159  11.313  18.493  0.00  0.00    +0.000 C 
ATOM     24  C   UNL     1       0.509  12.675  18.709  0.00  0.00    +0.000 C 
ATOM     25  C   UNL     1       1.480  12.643  19.887  0.00  0.00    +0.000 C 
ATOM     26  C   UNL     1       0.801  12.095  21.147  0.00  0.00    +0.000 C 
ENDBRANCH  18  20
ENDBRANCH  17  18
ENDBRANCH   1  17
TORSDOF 4
ENDMDL
MODEL 5
REMARK VINA RESULT:      -8.3      2.021      4.393
REMARK  Name = 
REMARK  4 active torsions:
REMARK  status: ('A' for Active; 'I' for Inactive)
REMARK    1  A    between atoms: C_2  and  C_3
REMARK    2  A    between atoms: C_3  and  C_4
REMARK    3  A    between atoms: C_4  and  C_5
REMARK    4  A    between atoms: C_14  and  C_15
REMARK                            x       y       z     vdW  Elec       q    Type
REMARK                         _______ _______ _______ _____ _____    ______ ____
ROOT
ATOM      1  C   UNL     1       2.525   7.413  19.643  0.00  0.00    +0.000 C 
ATOM      2  C   UNL     1       2.084   7.783  18.217  0.00  0.00    +0.000 C 
ATOM      3  C   UNL     1       3.238   7.734  17.206  0.00  0.00    +0.000 C 
ATOM      4  C   UNL     1       4.244   6.630  17.402  0.00  0.00    +0.000 A 
ATOM      5  C   UNL     1       5.163   6.348  16.379  0.00  0.00    +0.000 A 
ATOM      6  C   UNL     1       6.138   5.361  16.541  0.00  0.00    +0.000 A 
ATOM      7  C   UNL     1       6.234   4.665  17.740  0.00  0.00    +0.000 A 
ATOM      8  C   UNL     1       5.334   4.937  18.766  0.00  0.00    +0.000 A 
ATOM      9  C   UNL     1       4.325   5.905  18.603  0.00  0.00    +0.000 A 
ATOM     10  C   UNL     1       3.266   6.040  19.685  0.00  0.00    +0.000 C 
ENDROOT
BRANCH  10  11
ATOM     11  C   UNL     1       2.352   4.811  19.677  0.00  0.00    +0.000 A 
ATOM     12  C   UNL     1       2.065   4.151  20.883  0.00  0.00    +0.000 A 
ATOM     13  C   UNL     1       1.242   3.023  20.897  0.00  0.00    +0.000 A 
ATOM     14  C   UNL     1       0.686   2.548  19.711  0.00  0.00    +0.000 A 
ATOM     15  C   UNL     1       0.977   3.177  18.505  0.00  0.00    +0.000 A 
ATOM     16  C   UNL     1       1.818   4.291  18.488  0.00  0.00    +0.000 A 
ENDBRANCH  10  11
BRANCH   1  17
ATOM     17  C   UNL     1       1.378   7.462  20.682  0.00  0.00    +0.000 C 
BRANCH  17  18
ATOM     18  C   UNL     1       1.476   8.604  21.697  0.00  0.00    +0.000 C 
BRANCH  18  20
ATOM     19  O   UNL     1      -0.717   8.916  22.645  0.00  0.00    +0.000 OA
ATOM     20  C   UNL     1       0.148   9.333  21.875  0.00  0.00    +0.000 C 
ATOM     21  N   UNL     1      -0.019  10.499  21.139  0.00  0.00    +0.000 N 
ATOM     22  C   UNL     1       0.924  11.050  20.168  0.00  0.00    +0.000 C 
ATOM     23  C   UNL     1       1.452  12.403  20.645  0.00  0.00    +0.000 C 
ATOM     24  C   UNL     1       0.302  13.357  20.984  0.00  0.00    +0.000 C 
ATOM     25  C   UNL     1      -0.699  12.712  21.941  0.00  0.00    +0.000 C 
ATOM     26  C   UNL     1      -1.174  11.356  21.411  0.00  0.00    +0.000 C 
ENDBRANCH  18  20
ENDBRANCH  17  18
ENDBRANCH   1  17
TORSDOF 4
ENDMDL
MODEL 6
REMARK VINA RESULT:      -8.3      1.059      1.752
REMARK  Name = 
REMARK  4 active torsions:
REMARK  status: ('A' for Active; 'I' for Inactive)
REMARK    1  A    between atoms: C_2  and  C_3
REMARK    2  A    between atoms: C_3  and  C_4
REMARK    3  A    between atoms: C_4  and  C_5
REMARK    4  A    between atoms: C_14  and  C_15
REMARK                            x       y       z     vdW  Elec       q    Type
REMARK                         _______ _______ _______ _____ _____    ______ ____
ROOT
ATOM      1  C   UNL     1       2.030   7.132  18.470  0.00  0.00    +0.000 C 
ATOM      2  C   UNL     1       2.138   7.179  20.003  0.00  0.00    +0.000 C 
ATOM      3  C   UNL     1       1.527   5.944  20.680  0.00  0.00    +0.000 C 
ATOM      4  C   UNL     1       1.726   4.631  19.968  0.00  0.00    +0.000 A 
ATOM      5  C   UNL     1       1.445   3.434  20.644  0.00  0.00    +0.000 A 
ATOM      6  C   UNL     1       1.576   2.199  20.003  0.00  0.00    +0.000 A 
ATOM      7  C   UNL     1       1.956   2.143  18.668  0.00  0.00    +0.000 A 
ATOM      8  C   UNL     1       2.233   3.322  17.983  0.00  0.00    +0.000 A 
ATOM      9  C   UNL     1       2.139   4.570  18.626  0.00  0.00    +0.000 A 
ATOM     10  C   UNL     1       2.617   5.809  17.886  0.00  0.00    +0.000 C 
ENDROOT
BRANCH  10  11
ATOM     11  C   UNL     1       4.143   5.781  17.754  0.00  0.00    +0.000 A 
ATOM     12  C   UNL     1       4.934   5.536  18.888  0.00  0.00    +0.000 A 
ATOM     13  C   UNL     1       6.327   5.515  18.790  0.00  0.00    +0.000 A 
ATOM     14  C   UNL     1       6.946   5.725  17.560  0.00  0.00    +0.000 A 
ATOM     15  C   UNL     1       6.178   5.990  16.431  0.00  0.00    +0.000 A 
ATOM     16  C   UNL     1       4.787   6.034  16.532  0.00  0.00    +0.000 A 
ENDBRANCH  10  11
BRANCH   1  17
ATOM     17  C   UNL     1       2.635   8.371  17.765  0.00  0.00    +0.000 C 
BRANCH  17  18
ATOM     18  C   UNL     1       2.318   9.712  18.434  0.00  0.00    +0.000 C 
BRANCH  18  20
ATOM     19  O   UNL     1       0.078   9.431  17.593  0.00  0.00    +0.000 OA
ATOM     20  C   UNL     1       0.876  10.147  18.198  0.00  0.00    +0.000 C 
ATOM     21  N   UNL     1       0.511  11.381  18.721  0.00  0.00    +0.000 N 
ATOM     22  C   UNL     1       1.392  12.322  19.410  0.00  0.00    +0.000 C 
ATOM     23  C   UNL     1       0.951  12.499  20.863  0.00  0.00    +0.000 C 
ATOM     24  C   UNL     1      -0.530  12.879  20.950  0.00  0.00    +0.000 C 
ATOM     25  C   UNL     1      -1.405  11.913  20.153  0.00  0.00    +0.000 C 
ATOM     26  C   UNL     1      -0.900  11.771  18.713  0.00  0.00    +0.000 C 
ENDBRANCH  18  20
ENDBRANCH  17  18
ENDBRANCH   1  17
TORSDOF 4
ENDMDL
MODEL 7
REMARK VINA RESULT:      -8.3      1.008      1.334
REMARK  Name = 
REMARK  4 active torsions:
REMARK  status: ('A' for Active; 'I' for Inactive)
REMARK    1  A    between atoms: C_2  and  C_3
REMARK    2  A    between atoms: C_3  and  C_4
REMARK    3  A    between atoms: C_4  and  C_5
REMARK    4  A    between atoms: C_14  and  C_15
REMARK                            x       y       z     vdW  Elec       q    Type
REMARK                         _______ _______ _______ _____ _____    ______ ____
ROOT
ATOM      1  C   UNL     1       1.986   6.906  18.599  0.00  0.00    +0.000 C 
ATOM      2  C   UNL     1       1.972   6.671  20.118  0.00  0.00    +0.000 C 
ATOM      3  C   UNL     1       1.449   5.279  20.500  0.00  0.00    +0.000 C 
ATOM      4  C   UNL     1       1.842   4.149  19.584  0.00  0.00    +0.000 A 
ATOM      5  C   UNL     1       1.642   2.825  20.003  0.00  0.00    +0.000 A 
ATOM      6  C   UNL     1       1.954   1.752  19.164  0.00  0.00    +0.000 A 
ATOM      7  C   UNL     1       2.438   1.985  17.883  0.00  0.00    +0.000 A 
ATOM      8  C   UNL     1       2.636   3.293  17.451  0.00  0.00    +0.000 A 
ATOM      9  C   UNL     1       2.359   4.383  18.299  0.00  0.00    +0.000 A 
ATOM     10  C   UNL     1       2.755   5.778  17.843  0.00  0.00    +0.000 C 
ENDROOT
BRANCH  10  11
ATOM     11  C   UNL     1       4.281   5.916  17.852  0.00  0.00    +0.000 A 
ATOM     12  C   UNL     1       4.936   6.461  16.737  0.00  0.00    +0.000 A 
ATOM     13  C   UNL     1       6.326   6.587  16.721  0.00  0.00    +0.000 A 
ATOM     14  C   UNL     1       7.078   6.182  17.822  0.00  0.00    +0.000 A 
ATOM     15  C   UNL     1       6.447   5.620  18.926  0.00  0.00    +0.000 A 
ATOM     16  C   UNL     1       5.060   5.473  18.933  0.00  0.00    +0.000 A 
ENDBRANCH  10  11
BRANCH   1  17
ATOM     17  C   UNL     1       2.505   8.307  18.190  0.00  0.00    +0.000 C 
BRANCH  17  18
ATOM     18  C   UNL     1       1.970   9.465  19.038  0.00  0.00    +0.000 C 
BRANCH  18  20
ATOM     19  O   UNL     1       0.071   9.515  17.557  0.00  0.00    +0.000 OA
ATOM     20  C   UNL     1       0.713  10.086  18.438  0.00  0.00    +0.000 C 
ATOM     21  N   UNL     1       0.325  11.315  18.955  0.00  0.00    +0.000 N 
ATOM     22  C   UNL     1       1.042  12.093  19.964  0.00  0.00    +0.000 C 
ATOM     23  C   UNL     1       0.203  12.220  21.235  0.00  0.00    +0.000 C 
ATOM     24  C   UNL     1      -1.193  12.768  20.925  0.00  0.00    +0.000 C 
ATOM     25  C   UNL     1      -1.874  11.973  19.812  0.00  0.00    +0.000 C 
ATOM     26  C   UNL     1      -0.974  11.872  18.576  0.00  0.00    +0.000 C 
ENDBRANCH  18  20
ENDBRANCH  17  18
ENDBRANCH   1  17
TORSDOF 4
ENDMDL
MODEL 8
REMARK VINA RESULT:      -8.2      1.521      2.056
REMARK  Name = 
REMARK  4 active torsions:
REMARK  status: ('A' for Active; 'I' for Inactive)
REMARK    1  A    between atoms: C_2  and  C_3
REMARK    2  A    between atoms: C_3  and  C_4
REMARK    3  A    between atoms: C_4  and  C_5
REMARK    4  A    between atoms: C_14  and  C_15
REMARK                            x       y       z     vdW  Elec       q    Type
REMARK                         _______ _______ _______ _____ _____    ______ ____
ROOT
ATOM      1  C   UNL     1       2.210   7.160  18.402  0.00  0.00    +0.000 C 
ATOM      2  C   UNL     1       2.299   7.144  19.936  0.00  0.00    +0.000 C 
ATOM      3  C   UNL     1       1.613   5.918  20.558  0.00  0.00    +0.000 C 
ATOM      4  C   UNL     1       1.752   4.625  19.799  0.00  0.00    +0.000 A 
ATOM      5  C   UNL     1       1.399   3.419  20.425  0.00  0.00    +0.000 A 
ATOM      6  C   UNL     1       1.473   2.205  19.739  0.00  0.00    +0.000 A 
ATOM      7  C   UNL     1       1.868   2.179  18.407  0.00  0.00    +0.000 A 
ATOM      8  C   UNL     1       2.216   3.366  17.770  0.00  0.00    +0.000 A 
ATOM      9  C   UNL     1       2.179   4.593  18.461  0.00  0.00    +0.000 A 
ATOM     10  C   UNL     1       2.733   5.831  17.774  0.00  0.00    +0.000 C 
ENDROOT
BRANCH  10  11
ATOM     11  C   UNL     1       4.257   5.726  17.658  0.00  0.00    +0.000 A 
ATOM     12  C   UNL     1       4.864   5.798  16.394  0.00  0.00    +0.000 A 
ATOM     13  C   UNL     1       6.251   5.695  16.266  0.00  0.00    +0.000 A 
ATOM     14  C   UNL     1       7.048   5.530  17.397  0.00  0.00    +0.000 A 
ATOM     15  C   UNL     1       6.461   5.435  18.654  0.00  0.00    +0.000 A 
ATOM     16  C   UNL     1       5.074   5.515  18.780  0.00  0.00    +0.000 A 
ENDBRANCH  10  11
BRANCH   1  17
ATOM     17  C   UNL     1       2.889   8.391  17.752  0.00  0.00    +0.000 C 
BRANCH  17  18
ATOM     18  C   UNL     1       2.376   9.747  18.247  0.00  0.00    +0.000 C 
BRANCH  18  20
ATOM     19  O   UNL     1       0.055   9.380  17.718  0.00  0.00    +0.000 OA
ATOM     20  C   UNL     1       0.884   9.719  18.562  0.00  0.00    +0.000 C 
ATOM     21  N   UNL     1       0.520  10.076  19.853  0.00  0.00    +0.000 N 
ATOM     22  C   UNL     1       1.420  10.536  20.908  0.00  0.00    +0.000 C 
ATOM     23  C   UNL     1       1.436   9.541  22.069  0.00  0.00    +0.000 C 
ATOM     24  C   UNL     1       0.016   9.249  22.566  0.00  0.00    +0.000 C 
ATOM     25  C   UNL     1      -0.908   8.846  21.419  0.00  0.00    +0.000 C 
ATOM     26  C   UNL     1      -0.864   9.876  20.286  0.00  0.00    +0.000 C 
ENDBRANCH  18  20
ENDBRANCH  17  18
ENDBRANCH   1  17
TORSDOF 4
ENDMDL
MODEL 9
REMARK VINA RESULT:      -7.7      1.749      4.184
REMARK  Name = 
REMARK  4 active torsions:
REMARK  status: ('A' for Active; 'I' for Inactive)
REMARK    1  A    between atoms: C_2  and  C_3
REMARK    2  A    between atoms: C_3  and  C_4
REMARK    3  A    between atoms: C_4  and  C_5
REMARK    4  A    between atoms: C_14  and  C_15
REMARK                            x       y       z     vdW  Elec       q    Type
REMARK                         _______ _______ _______ _____ _____    ______ ____
ROOT
ATOM      1  C   UNL     1       2.491   7.524  19.363  0.00  0.00    +0.000 C 
ATOM      2  C   UNL     1       2.280   7.759  17.858  0.00  0.00    +0.000 C 
ATOM      3  C   UNL     1       3.581   7.647  17.050  0.00  0.00    +0.000 C 
ATOM      4  C   UNL     1       4.551   6.586  17.500  0.00  0.00    +0.000 A 
ATOM      5  C   UNL     1       5.622   6.235  16.664  0.00  0.00    +0.000 A 
ATOM      6  C   UNL     1       6.566   5.287  17.065  0.00  0.00    +0.000 A 
ATOM      7  C   UNL     1       6.475   4.700  18.321  0.00  0.00    +0.000 A 
ATOM      8  C   UNL     1       5.422   5.041  19.164  0.00  0.00    +0.000 A 
ATOM      9  C   UNL     1       4.444   5.969  18.758  0.00  0.00    +0.000 A 
ATOM     10  C   UNL     1       3.226   6.175  19.643  0.00  0.00    +0.000 C 
ENDROOT
BRANCH  10  11
ATOM     11  C   UNL     1       2.333   4.931  19.601  0.00  0.00    +0.000 A 
ATOM     12  C   UNL     1       1.959   4.303  20.800  0.00  0.00    +0.000 A 
ATOM     13  C   UNL     1       1.154   3.162  20.783  0.00  0.00    +0.000 A 
ATOM     14  C   UNL     1       0.704   2.642  19.571  0.00  0.00    +0.000 A 
ATOM     15  C   UNL     1       1.083   3.239  18.374  0.00  0.00    +0.000 A 
ATOM     16  C   UNL     1       1.906   4.365  18.390  0.00  0.00    +0.000 A 
ENDBRANCH  10  11
BRANCH   1  17
ATOM     17  C   UNL     1       1.193   7.638  20.199  0.00  0.00    +0.000 C 
BRANCH  17  18
ATOM     18  C   UNL     1       1.005   8.977  20.918  0.00  0.00    +0.000 C 
BRANCH  18  20
ATOM     19  O   UNL     1       0.099   9.812  18.848  0.00  0.00    +0.000 OA
ATOM     20  C   UNL     1       0.276   9.999  20.051  0.00  0.00    +0.000 C 
ATOM     21  N   UNL     1      -0.192  11.135  20.698  0.00  0.00    +0.000 N 
ATOM     22  C   UNL     1       0.008  11.470  22.107  0.00  0.00    +0.000 C 
ATOM     23  C   UNL     1      -1.331  11.502  22.843  0.00  0.00    +0.000 C 
ATOM     24  C   UNL     1      -2.331  12.422  22.135  0.00  0.00    +0.000 C 
ATOM     25  C   UNL     1      -2.450  12.085  20.650  0.00  0.00    +0.000 C 
ATOM     26  C   UNL     1      -1.073  12.055  19.979  0.00  0.00    +0.000 C 
ENDBRANCH  18  20
ENDBRANCH  17  18
ENDBRANCH   1  17
TORSDOF 4
ENDMDL
