MODEL 1
REMARK VINA RESULT:      -8.5      0.000      0.000
REMARK  Name = 
REMARK  12 active torsions:
REMARK  status: ('A' for Active; 'I' for Inactive)
REMARK    1  A    between atoms: C_1  and  O_2
REMARK    2  A    between atoms: O_2  and  C_3
REMARK    3  A    between atoms: C_3  and  C_5
REMARK    4  A    between atoms: C_5  and  C_6
REMARK    5  A    between atoms: C_5  and  N_15
REMARK    6  A    between atoms: C_6  and  N_7
REMARK    7  A    between atoms: N_7  and  C_8
REMARK    8  A    between atoms: C_8  and  C_9
REMARK    9  A    between atoms: C_22  and  C_23
REMARK   10  A    between atoms: N_25  and  C_26
REMARK   11  A    between atoms: C_26  and  C_27
REMARK   12  A    between atoms: C_30  and  N_31
REMARK                            x       y       z     vdW  Elec       q    Type
REMARK                         _______ _______ _______ _____ _____    ______ ____
ROOT
ATOM      1  N   UNL     1       5.663   5.753  18.286  0.00  0.00    +0.000 N 
ATOM      2  C   UNL     1       5.431   4.709  19.166  0.00  0.00    +0.000 A 
ATOM      3  O   UNL     1       6.230   3.865  19.535  0.00  0.00    +0.000 OA
ATOM      4  N   UNL     1       4.075   4.763  19.492  0.00  0.00    +0.000 N 
ATOM      5  N   UNL     1       3.511   5.839  18.828  0.00  0.00    +0.000 N 
ATOM      6  C   UNL     1       4.479   6.423  18.035  0.00  0.00    +0.000 A 
ATOM      7  O   UNL     1       4.276   7.312  17.234  0.00  0.00    +0.000 OA
ATOM      8  C   UNL     1       2.104   6.129  18.771  0.00  0.00    +0.000 C 
ATOM      9  C   UNL     1       1.338   5.281  19.748  0.00  0.00    +0.000 C 
ATOM     10  C   UNL     1       1.879   4.240  20.401  0.00  0.00    +0.000 C 
ATOM     11  C   UNL     1       3.299   3.798  20.222  0.00  0.00    +0.000 C 
ENDROOT
BRANCH   8  12
ATOM     12  C   UNL     1       1.967   7.630  19.142  0.00  0.00    +0.000 C 
ATOM     13  O   UNL     1       2.130   8.062  20.281  0.00  0.00    +0.000 OA
ATOM     14  N   UNL     1       1.672   8.462  18.072  0.00  0.00    +0.000 N 
ATOM     15  H   UNL     1       1.437   8.058  17.174  0.00  0.00    +0.000 HD
BRANCH  14  16
ATOM     16  C   UNL     1       1.525   9.890  18.242  0.00  0.00    +0.000 C 
BRANCH  16  17
ATOM     17  C   UNL     1       0.588  10.327  19.394  0.00  0.00    +0.000 C 
ATOM     18  C   UNL     1       0.842  11.754  19.911  0.00  0.00    +0.000 C 
ATOM     19  C   UNL     1       0.501  12.819  18.865  0.00  0.00    +0.000 C 
ATOM     20  C   UNL     1      -0.945  12.708  18.357  0.00  0.00    +0.000 C 
ATOM     21  C   UNL     1      -1.264  11.277  17.899  0.00  0.00    +0.000 C 
ATOM     22  C   UNL     1      -0.881  10.212  18.935  0.00  0.00    +0.000 C 
BRANCH  20  23
ATOM     23  N   UNL     1      -1.877  13.144  19.399  0.00  0.00    +0.000 NA
ATOM     24  H   UNL     1      -1.412  13.782  20.045  0.00  0.00    +0.000 HD
ATOM     25  H   UNL     1      -2.166  12.345  19.960  0.00  0.00    +0.000 HD
ENDBRANCH  20  23
ENDBRANCH  16  17
ENDBRANCH  14  16
ENDBRANCH   8  12
BRANCH   1  26
ATOM     26  C   UNL     1       6.972   6.172  17.804  0.00  0.00    +0.000 C 
BRANCH  26  27
ATOM     27  C   UNL     1       7.392   5.270  16.637  0.00  0.00    +0.000 C 
ATOM     28  O   UNL     1       8.061   4.257  16.734  0.00  0.00    +0.000 OA
BRANCH  27  30
ATOM     29  C   UNL     1       6.074   4.839  14.741  0.00  0.00    +0.000 C 
ATOM     30  O   UNL     1       6.878   5.766  15.465  0.00  0.00    +0.000 OA
ENDBRANCH  27  30
ENDBRANCH  26  27
BRANCH  26  31
ATOM     31  C   UNL     1       7.037   7.665  17.416  0.00  0.00    +0.000 C 
BRANCH  31  32
ATOM     32  N   UNL     1       8.140   8.376  18.078  0.00  0.00    +0.000 NA
ATOM     33  H   UNL     1       9.045   7.959  17.848  0.00  0.00    +0.000 HD
BRANCH  32  34
ATOM     34  C   UNL     1       8.168   9.799  17.739  0.00  0.00    +0.000 C 
BRANCH  34  35
ATOM     35  C   UNL     1       9.264  10.501  18.508  0.00  0.00    +0.000 A 
ATOM     36  C   UNL     1       9.223  10.580  19.907  0.00  0.00    +0.000 A 
ATOM     37  C   UNL     1      10.205  11.287  20.604  0.00  0.00    +0.000 A 
ATOM     38  C   UNL     1      11.244  11.908  19.911  0.00  0.00    +0.000 A 
ATOM     39  C   UNL     1      11.312  11.811  18.523  0.00  0.00    +0.000 A 
ATOM     40  C   UNL     1      10.330  11.108  17.826  0.00  0.00    +0.000 A 
ENDBRANCH  34  35
ENDBRANCH  32  34
ENDBRANCH  31  32
ENDBRANCH  26  31
ENDBRANCH   1  26
TORSDOF 11
ENDMDL
MODEL 2
REMARK VINA RESULT:      -8.2      0.629      1.407
REMARK  Name = 
REMARK  12 active torsions:
REMARK  status: ('A' for Active; 'I' for Inactive)
REMARK    1  A    between atoms: C_1  and  O_2
REMARK    2  A    between atoms: O_2  and  C_3
REMARK    3  A    between atoms: C_3  and  C_5
REMARK    4  A    between atoms: C_5  and  C_6
REMARK    5  A    between atoms: C_5  and  N_15
REMARK    6  A    between atoms: C_6  and  N_7
REMARK    7  A    between atoms: N_7  and  C_8
REMARK    8  A    between atoms: C_8  and  C_9
REMARK    9  A    between atoms: C_22  and  C_23
REMARK   10  A    between atoms: N_25  and  C_26
REMARK   11  A    between atoms: C_26  and  C_27
REMARK   12  A    between atoms: C_30  and  N_31
REMARK                            x       y       z     vdW  Elec       q    Type
REMARK                         _______ _______ _______ _____ _____    ______ ____
ROOT
ATOM      1  N   UNL     1       5.621   5.850  18.219  0.00  0.00    +0.000 N 
ATOM      2  C   UNL     1       5.427   4.790  19.089  0.00  0.00    +0.000 A 
ATOM      3  O   UNL     1       6.233   3.926  19.389  0.00  0.00    +0.000 OA
ATOM      4  N   UNL     1       4.096   4.858  19.500  0.00  0.00    +0.000 N 
ATOM      5  N   UNL     1       3.509   5.957  18.896  0.00  0.00    +0.000 N 
ATOM      6  C   UNL     1       4.436   6.544  18.057  0.00  0.00    +0.000 A 
ATOM      7  O   UNL     1       4.198   7.454  17.290  0.00  0.00    +0.000 OA
ATOM      8  C   UNL     1       2.106   6.271  18.934  0.00  0.00    +0.000 C 
ATOM      9  C   UNL     1       1.389   5.413  19.939  0.00  0.00    +0.000 C 
ATOM     10  C   UNL     1       1.952   4.349  20.535  0.00  0.00    +0.000 C 
ATOM     11  C   UNL     1       3.350   3.889  20.257  0.00  0.00    +0.000 C 
ENDROOT
BRANCH   8  12
ATOM     12  C   UNL     1       2.018   7.765  19.346  0.00  0.00    +0.000 C 
ATOM     13  O   UNL     1       2.205   8.162  20.494  0.00  0.00    +0.000 OA
ATOM     14  N   UNL     1       1.739   8.633  18.300  0.00  0.00    +0.000 N 
ATOM     15  H   UNL     1       1.484   8.260  17.395  0.00  0.00    +0.000 HD
BRANCH  14  16
ATOM     16  C   UNL     1       1.637  10.060  18.509  0.00  0.00    +0.000 C 
BRANCH  16  17
ATOM     17  C   UNL     1       0.197  10.629  18.502  0.00  0.00    +0.000 C 
ATOM     18  C   UNL     1      -0.734  10.011  19.559  0.00  0.00    +0.000 C 
ATOM     19  C   UNL     1      -0.308  10.365  20.986  0.00  0.00    +0.000 C 
ATOM     20  C   UNL     1      -0.210  11.882  21.215  0.00  0.00    +0.000 C 
ATOM     21  C   UNL     1       0.653  12.551  20.134  0.00  0.00    +0.000 C 
ATOM     22  C   UNL     1       0.248  12.158  18.708  0.00  0.00    +0.000 C 
BRANCH  20  23
ATOM     23  N   UNL     1      -1.550  12.471  21.253  0.00  0.00    +0.000 NA
ATOM     24  H   UNL     1      -1.948  12.507  20.314  0.00  0.00    +0.000 HD
ATOM     25  H   UNL     1      -1.493  13.438  21.566  0.00  0.00    +0.000 HD
ENDBRANCH  20  23
ENDBRANCH  16  17
ENDBRANCH  14  16
ENDBRANCH   8  12
BRANCH   1  26
ATOM     26  C   UNL     1       6.905   6.259  17.665  0.00  0.00    +0.000 C 
BRANCH  26  27
ATOM     27  C   UNL     1       7.237   5.376  16.456  0.00  0.00    +0.000 C 
ATOM     28  O   UNL     1       8.002   4.429  16.464  0.00  0.00    +0.000 OA
BRANCH  27  30
ATOM     29  C   UNL     1       5.826   4.765  14.680  0.00  0.00    +0.000 C 
ATOM     30  O   UNL     1       6.521   5.803  15.365  0.00  0.00    +0.000 OA
ENDBRANCH  27  30
ENDBRANCH  26  27
BRANCH  26  31
ATOM     31  C   UNL     1       6.970   7.759  17.304  0.00  0.00    +0.000 C 
BRANCH  31  32
ATOM     32  N   UNL     1       8.050   8.466  18.008  0.00  0.00    +0.000 NA
ATOM     33  H   UNL     1       8.970   8.118  17.727  0.00  0.00    +0.000 HD
BRANCH  32  34
ATOM     34  C   UNL     1       8.000   9.913  17.795  0.00  0.00    +0.000 C 
BRANCH  34  35
ATOM     35  C   UNL     1       9.178  10.583  18.462  0.00  0.00    +0.000 A 
ATOM     36  C   UNL     1      10.225  11.123  17.701  0.00  0.00    +0.000 A 
ATOM     37  C   UNL     1      11.340  11.682  18.329  0.00  0.00    +0.000 A 
ATOM     38  C   UNL     1      11.413  11.720  19.721  0.00  0.00    +0.000 A 
ATOM     39  C   UNL     1      10.366  11.215  20.487  0.00  0.00    +0.000 A 
ATOM     40  C   UNL     1       9.253  10.654  19.862  0.00  0.00    +0.000 A 
ENDBRANCH  34  35
ENDBRANCH  32  34
ENDBRANCH  31  32
ENDBRANCH  26  31
ENDBRANCH   1  26
TORSDOF 11
ENDMDL
MODEL 3
REMARK VINA RESULT:      -8.1      2.488      4.829
REMARK  Name = 
REMARK  12 active torsions:
REMARK  status: ('A' for Active; 'I' for Inactive)
REMARK    1  A    between atoms: C_1  and  O_2
REMARK    2  A    between atoms: O_2  and  C_3
REMARK    3  A    between atoms: C_3  and  C_5
REMARK    4  A    between atoms: C_5  and  C_6
REMARK    5  A    between atoms: C_5  and  N_15
REMARK    6  A    between atoms: C_6  and  N_7
REMARK    7  A    between atoms: N_7  and  C_8
REMARK    8  A    between atoms: C_8  and  C_9
REMARK    9  A    between atoms: C_22  and  C_23
REMARK   10  A    between atoms: N_25  and  C_26
REMARK   11  A    between atoms: C_26  and  C_27
REMARK   12  A    between atoms: C_30  and  N_31
REMARK                            x       y       z     vdW  Elec       q    Type
REMARK                         _______ _______ _______ _____ _____    ______ ____
ROOT
ATOM      1  N   UNL     1       5.066   5.031  18.609  0.00  0.00    +0.000 N 
ATOM      2  C   UNL     1       4.826   3.859  19.305  0.00  0.00    +0.000 A 
ATOM      3  O   UNL     1       5.559   2.889  19.391  0.00  0.00    +0.000 OA
ATOM      4  N   UNL     1       3.538   3.972  19.831  0.00  0.00    +0.000 N 
ATOM      5  N   UNL     1       3.026   5.205  19.467  0.00  0.00    +0.000 N 
ATOM      6  C   UNL     1       3.948   5.844  18.662  0.00  0.00    +0.000 A 
ATOM      7  O   UNL     1       3.752   6.889  18.077  0.00  0.00    +0.000 OA
ATOM      8  C   UNL     1       1.667   5.629  19.672  0.00  0.00    +0.000 C 
ATOM      9  C   UNL     1       0.936   4.678  20.577  0.00  0.00    +0.000 C 
ATOM     10  C   UNL     1       1.428   3.482  20.941  0.00  0.00    +0.000 C 
ATOM     11  C   UNL     1       2.752   2.956  20.477  0.00  0.00    +0.000 C 
ENDROOT
BRANCH   8  12
ATOM     12  C   UNL     1       1.757   7.032  20.329  0.00  0.00    +0.000 C 
ATOM     13  O   UNL     1       2.185   7.220  21.467  0.00  0.00    +0.000 OA
ATOM     14  N   UNL     1       1.341   8.076  19.516  0.00  0.00    +0.000 N 
ATOM     15  H   UNL     1       0.894   7.873  18.631  0.00  0.00    +0.000 HD
BRANCH  14  16
ATOM     16  C   UNL     1       1.374   9.449  19.969  0.00  0.00    +0.000 C 
BRANCH  16  17
ATOM     17  C   UNL     1       1.300  10.517  18.851  0.00  0.00    +0.000 C 
ATOM     18  C   UNL     1       0.411  10.127  17.658  0.00  0.00    +0.000 C 
ATOM     19  C   UNL     1      -1.068  10.033  18.043  0.00  0.00    +0.000 C 
ATOM     20  C   UNL     1      -1.598  11.330  18.674  0.00  0.00    +0.000 C 
ATOM     21  C   UNL     1      -0.694  11.798  19.825  0.00  0.00    +0.000 C 
ATOM     22  C   UNL     1       0.791  11.848  19.445  0.00  0.00    +0.000 C 
BRANCH  20  23
ATOM     23  N   UNL     1      -1.722  12.371  17.651  0.00  0.00    +0.000 NA
ATOM     24  H   UNL     1      -2.692  12.680  17.576  0.00  0.00    +0.000 HD
ATOM     25  H   UNL     1      -1.483  11.987  16.737  0.00  0.00    +0.000 HD
ENDBRANCH  20  23
ENDBRANCH  16  17
ENDBRANCH  14  16
ENDBRANCH   8  12
BRANCH   1  26
ATOM     26  C   UNL     1       6.345   5.416  18.026  0.00  0.00    +0.000 C 
BRANCH  26  27
ATOM     27  C   UNL     1       7.291   5.873  19.143  0.00  0.00    +0.000 C 
ATOM     28  O   UNL     1       7.307   5.432  20.278  0.00  0.00    +0.000 OA
BRANCH  27  30
ATOM     29  C   UNL     1       7.532   7.733  17.728  0.00  0.00    +0.000 C 
ATOM     30  O   UNL     1       8.136   6.842  18.662  0.00  0.00    +0.000 OA
ENDBRANCH  27  30
ENDBRANCH  26  27
BRANCH  26  31
ATOM     31  C   UNL     1       6.985   4.308  17.161  0.00  0.00    +0.000 C 
BRANCH  31  32
ATOM     32  N   UNL     1       5.994   3.555  16.378  0.00  0.00    +0.000 NA
ATOM     33  H   UNL     1       5.310   3.097  16.984  0.00  0.00    +0.000 HD
BRANCH  32  34
ATOM     34  C   UNL     1       5.291   4.398  15.411  0.00  0.00    +0.000 C 
BRANCH  34  35
ATOM     35  C   UNL     1       5.955   4.311  14.057  0.00  0.00    +0.000 A 
ATOM     36  C   UNL     1       5.473   3.435  13.074  0.00  0.00    +0.000 A 
ATOM     37  C   UNL     1       6.133   3.315  11.849  0.00  0.00    +0.000 A 
ATOM     38  C   UNL     1       7.271   4.078  11.590  0.00  0.00    +0.000 A 
ATOM     39  C   UNL     1       7.741   4.974  12.547  0.00  0.00    +0.000 A 
ATOM     40  C   UNL     1       7.085   5.093  13.772  0.00  0.00    +0.000 A 
ENDBRANCH  34  35
ENDBRANCH  32  34
ENDBRANCH  31  32
ENDBRANCH  26  31
ENDBRANCH   1  26
TORSDOF 11
ENDMDL
MODEL 4
REMARK VINA RESULT:      -8.0      1.795      5.228
REMARK  Name = 
REMARK  12 active torsions:
REMARK  status: ('A' for Active; 'I' for Inactive)
REMARK    1  A    between atoms: C_1  and  O_2
REMARK    2  A    between atoms: O_2  and  C_3
REMARK    3  A    between atoms: C_3  and  C_5
REMARK    4  A    between atoms: C_5  and  C_6
REMARK    5  A    between atoms: C_5  and  N_15
REMARK    6  A    between atoms: C_6  and  N_7
REMARK    7  A    between atoms: N_7  and  C_8
REMARK    8  A    between atoms: C_8  and  C_9
REMARK    9  A    between atoms: C_22  and  C_23
REMARK   10  A    between atoms: N_25  and  C_26
REMARK   11  A    between atoms: C_26  and  C_27
REMARK   12  A    between atoms: C_30  and  N_31
REMARK                            x       y       z     vdW  Elec       q    Type
REMARK                         _______ _______ _______ _____ _____    ______ ____
ROOT
ATOM      1  N   UNL     1       5.297   5.666  17.761  0.00  0.00    +0.000 N 
ATOM      2  C   UNL     1       5.282   4.672  18.724  0.00  0.00    +0.000 A 
ATOM      3  O   UNL     1       6.136   3.823  18.921  0.00  0.00    +0.000 OA
ATOM      4  N   UNL     1       4.057   4.781  19.383  0.00  0.00    +0.000 N 
ATOM      5  N   UNL     1       3.358   5.840  18.830  0.00  0.00    +0.000 N 
ATOM      6  C   UNL     1       4.099   6.358  17.786  0.00  0.00    +0.000 A 
ATOM      7  O   UNL     1       3.711   7.214  17.018  0.00  0.00    +0.000 OA
ATOM      8  C   UNL     1       1.988   6.168  19.120  0.00  0.00    +0.000 C 
ATOM      9  C   UNL     1       1.486   5.389  20.304  0.00  0.00    +0.000 C 
ATOM     10  C   UNL     1       2.160   4.364  20.851  0.00  0.00    +0.000 C 
ATOM     11  C   UNL     1       3.479   3.873  20.337  0.00  0.00    +0.000 C 
ENDROOT
BRANCH   8  12
ATOM     12  C   UNL     1       1.976   7.688  19.434  0.00  0.00    +0.000 C 
ATOM     13  O   UNL     1       2.282   8.154  20.530  0.00  0.00    +0.000 OA
ATOM     14  N   UNL     1       1.617   8.493  18.363  0.00  0.00    +0.000 N 
ATOM     15  H   UNL     1       1.266   8.069  17.514  0.00  0.00    +0.000 HD
BRANCH  14  16
ATOM     16  C   UNL     1       1.569   9.933  18.482  0.00  0.00    +0.000 C 
BRANCH  16  17
ATOM     17  C   UNL     1       0.646  10.475  19.601  0.00  0.00    +0.000 C 
ATOM     18  C   UNL     1       0.775  11.988  19.851  0.00  0.00    +0.000 C 
ATOM     19  C   UNL     1       0.278  12.817  18.664  0.00  0.00    +0.000 C 
ATOM     20  C   UNL     1      -1.171  12.483  18.275  0.00  0.00    +0.000 C 
ATOM     21  C   UNL     1      -1.362  10.970  18.088  0.00  0.00    +0.000 C 
ATOM     22  C   UNL     1      -0.823  10.144  19.263  0.00  0.00    +0.000 C 
BRANCH  20  23
ATOM     23  N   UNL     1      -2.094  13.006  19.285  0.00  0.00    +0.000 NA
ATOM     24  H   UNL     1      -2.801  13.596  18.847  0.00  0.00    +0.000 HD
ATOM     25  H   UNL     1      -1.591  13.611  19.933  0.00  0.00    +0.000 HD
ENDBRANCH  20  23
ENDBRANCH  16  17
ENDBRANCH  14  16
ENDBRANCH   8  12
BRANCH   1  26
ATOM     26  C   UNL     1       6.444   6.024  16.939  0.00  0.00    +0.000 C 
BRANCH  26  27
ATOM     27  C   UNL     1       7.425   6.855  17.776  0.00  0.00    +0.000 C 
ATOM     28  O   UNL     1       7.932   6.501  18.825  0.00  0.00    +0.000 OA
BRANCH  27  30
ATOM     29  C   UNL     1       8.195   9.063  18.004  0.00  0.00    +0.000 C 
ATOM     30  O   UNL     1       7.662   8.054  17.151  0.00  0.00    +0.000 OA
ENDBRANCH  27  30
ENDBRANCH  26  27
BRANCH  26  31
ATOM     31  C   UNL     1       7.143   4.808  16.294  0.00  0.00    +0.000 C 
BRANCH  31  32
ATOM     32  N   UNL     1       7.416   5.003  14.862  0.00  0.00    +0.000 NA
ATOM     33  H   UNL     1       7.996   4.250  14.486  0.00  0.00    +0.000 HD
BRANCH  32  34
ATOM     34  C   UNL     1       6.190   5.106  14.070  0.00  0.00    +0.000 C 
BRANCH  34  35
ATOM     35  C   UNL     1       6.145   4.012  13.028  0.00  0.00    +0.000 A 
ATOM     36  C   UNL     1       7.325   3.513  12.458  0.00  0.00    +0.000 A 
ATOM     37  C   UNL     1       7.268   2.549  11.448  0.00  0.00    +0.000 A 
ATOM     38  C   UNL     1       6.036   2.066  11.010  0.00  0.00    +0.000 A 
ATOM     39  C   UNL     1       4.859   2.533  11.590  0.00  0.00    +0.000 A 
ATOM     40  C   UNL     1       4.913   3.497  12.596  0.00  0.00    +0.000 A 
ENDBRANCH  34  35
ENDBRANCH  32  34
ENDBRANCH  31  32
ENDBRANCH  26  31
ENDBRANCH   1  26
TORSDOF 11
ENDMDL
MODEL 5
REMARK VINA RESULT:      -7.9      0.991      1.215
REMARK  Name = 
REMARK  12 active torsions:
REMARK  status: ('A' for Active; 'I' for Inactive)
REMARK    1  A    between atoms: C_1  and  O_2
REMARK    2  A    between atoms: O_2  and  C_3
REMARK    3  A    between atoms: C_3  and  C_5
REMARK    4  A    between atoms: C_5  and  C_6
REMARK    5  A    between atoms: C_5  and  N_15
REMARK    6  A    between atoms: C_6  and  N_7
REMARK    7  A    between atoms: N_7  and  C_8
REMARK    8  A    between atoms: C_8  and  C_9
REMARK    9  A    between atoms: C_22  and  C_23
REMARK   10  A    between atoms: N_25  and  C_26
REMARK   11  A    between atoms: C_26  and  C_27
REMARK   12  A    between atoms: C_30  and  N_31
REMARK                            x       y       z     vdW  Elec       q    Type
REMARK                         _______ _______ _______ _____ _____    ______ ____
ROOT
ATOM      1  N   UNL     1       5.159   5.870  18.154  0.00  0.00    +0.000 N 
ATOM      2  C   UNL     1       5.164   4.738  18.951  0.00  0.00    +0.000 A 
ATOM      3  O   UNL     1       6.042   3.895  19.028  0.00  0.00    +0.000 OA
ATOM      4  N   UNL     1       3.928   4.707  19.597  0.00  0.00    +0.000 N 
ATOM      5  N   UNL     1       3.203   5.818  19.203  0.00  0.00    +0.000 N 
ATOM      6  C   UNL     1       3.940   6.514  18.265  0.00  0.00    +0.000 A 
ATOM      7  O   UNL     1       3.534   7.467  17.633  0.00  0.00    +0.000 OA
ATOM      8  C   UNL     1       1.820   6.056  19.517  0.00  0.00    +0.000 C 
ATOM      9  C   UNL     1       1.328   5.088  20.557  0.00  0.00    +0.000 C 
ATOM     10  C   UNL     1       2.027   4.011  20.950  0.00  0.00    +0.000 C 
ATOM     11  C   UNL     1       3.368   3.645  20.389  0.00  0.00    +0.000 C 
ENDROOT
BRANCH   8  12
ATOM     12  C   UNL     1       1.755   7.508  20.063  0.00  0.00    +0.000 C 
ATOM     13  O   UNL     1       2.121   7.822  21.194  0.00  0.00    +0.000 OA
ATOM     14  N   UNL     1       1.274   8.441  19.157  0.00  0.00    +0.000 N 
ATOM     15  H   UNL     1       0.881   8.130  18.278  0.00  0.00    +0.000 HD
BRANCH  14  16
ATOM     16  C   UNL     1       1.162   9.842  19.500  0.00  0.00    +0.000 C 
BRANCH  16  17
ATOM     17  C   UNL     1      -0.178  10.260  20.151  0.00  0.00    +0.000 C 
ATOM     18  C   UNL     1      -0.091  11.520  21.029  0.00  0.00    +0.000 C 
ATOM     19  C   UNL     1       0.217  12.777  20.212  0.00  0.00    +0.000 C 
ATOM     20  C   UNL     1      -0.796  13.010  19.081  0.00  0.00    +0.000 C 
ATOM     21  C   UNL     1      -0.970  11.748  18.222  0.00  0.00    +0.000 C 
ATOM     22  C   UNL     1      -1.237  10.485  19.050  0.00  0.00    +0.000 C 
BRANCH  20  23
ATOM     23  N   UNL     1      -2.079  13.443  19.639  0.00  0.00    +0.000 NA
ATOM     24  H   UNL     1      -2.162  14.459  19.588  0.00  0.00    +0.000 HD
ATOM     25  H   UNL     1      -2.120  13.212  20.630  0.00  0.00    +0.000 HD
ENDBRANCH  20  23
ENDBRANCH  16  17
ENDBRANCH  14  16
ENDBRANCH   8  12
BRANCH   1  26
ATOM     26  C   UNL     1       6.305   6.385  17.417  0.00  0.00    +0.000 C 
BRANCH  26  27
ATOM     27  C   UNL     1       6.184   5.974  15.944  0.00  0.00    +0.000 C 
ATOM     28  O   UNL     1       5.430   6.477  15.132  0.00  0.00    +0.000 OA
BRANCH  27  30
ATOM     29  C   UNL     1       6.653   4.073  14.646  0.00  0.00    +0.000 C 
ATOM     30  O   UNL     1       7.074   4.964  15.674  0.00  0.00    +0.000 OA
ENDBRANCH  27  30
ENDBRANCH  26  27
BRANCH  26  31
ATOM     31  C   UNL     1       6.496   7.910  17.563  0.00  0.00    +0.000 C 
BRANCH  31  32
ATOM     32  N   UNL     1       7.886   8.333  17.332  0.00  0.00    +0.000 NA
ATOM     33  H   UNL     1       7.928   9.187  16.771  0.00  0.00    +0.000 HD
BRANCH  32  34
ATOM     34  C   UNL     1       8.619   8.543  18.580  0.00  0.00    +0.000 C 
BRANCH  34  35
ATOM     35  C   UNL     1       8.934  10.010  18.764  0.00  0.00    +0.000 A 
ATOM     36  C   UNL     1       9.465  10.486  19.972  0.00  0.00    +0.000 A 
ATOM     37  C   UNL     1       9.691  11.851  20.154  0.00  0.00    +0.000 A 
ATOM     38  C   UNL     1       9.403  12.752  19.129  0.00  0.00    +0.000 A 
ATOM     39  C   UNL     1       8.904  12.288  17.915  0.00  0.00    +0.000 A 
ATOM     40  C   UNL     1       8.674  10.924  17.731  0.00  0.00    +0.000 A 
ENDBRANCH  34  35
ENDBRANCH  32  34
ENDBRANCH  31  32
ENDBRANCH  26  31
ENDBRANCH   1  26
TORSDOF 11
ENDMDL
MODEL 6
REMARK VINA RESULT:      -7.9      1.337      1.606
REMARK  Name = 
REMARK  12 active torsions:
REMARK  status: ('A' for Active; 'I' for Inactive)
REMARK    1  A    between atoms: C_1  and  O_2
REMARK    2  A    between atoms: O_2  and  C_3
REMARK    3  A    between atoms: C_3  and  C_5
REMARK    4  A    between atoms: C_5  and  C_6
REMARK    5  A    between atoms: C_5  and  N_15
REMARK    6  A    between atoms: C_6  and  N_7
REMARK    7  A    between atoms: N_7  and  C_8
REMARK    8  A    between atoms: C_8  and  C_9
REMARK    9  A    between atoms: C_22  and  C_23
REMARK   10  A    between atoms: N_25  and  C_26
REMARK   11  A    between atoms: C_26  and  C_27
REMARK   12  A    between atoms: C_30  and  N_31
REMARK                            x       y       z     vdW  Elec       q    Type
REMARK                         _______ _______ _______ _____ _____    ______ ____
ROOT
ATOM      1  N   UNL     1       5.838   6.008  18.246  0.00  0.00    +0.000 N 
ATOM      2  C   UNL     1       5.499   5.256  19.358  0.00  0.00    +0.000 A 
ATOM      3  O   UNL     1       6.243   4.573  20.041  0.00  0.00    +0.000 OA
ATOM      4  N   UNL     1       4.115   5.369  19.501  0.00  0.00    +0.000 N 
ATOM      5  N   UNL     1       3.640   6.194  18.497  0.00  0.00    +0.000 N 
ATOM      6  C   UNL     1       4.697   6.549  17.682  0.00  0.00    +0.000 A 
ATOM      7  O   UNL     1       4.594   7.165  16.642  0.00  0.00    +0.000 OA
ATOM      8  C   UNL     1       2.251   6.422  18.202  0.00  0.00    +0.000 C 
ATOM      9  C   UNL     1       1.371   5.872  19.290  0.00  0.00    +0.000 C 
ATOM     10  C   UNL     1       1.825   5.075  20.272  0.00  0.00    +0.000 C 
ATOM     11  C   UNL     1       3.253   4.635  20.387  0.00  0.00    +0.000 C 
ENDROOT
BRANCH   8  12
ATOM     12  C   UNL     1       2.086   7.962  18.108  0.00  0.00    +0.000 C 
ATOM     13  O   UNL     1       2.485   8.628  17.154  0.00  0.00    +0.000 OA
ATOM     14  N   UNL     1       1.419   8.535  19.180  0.00  0.00    +0.000 N 
ATOM     15  H   UNL     1       1.204   7.974  19.994  0.00  0.00    +0.000 HD
BRANCH  14  16
ATOM     16  C   UNL     1       1.168   9.958  19.243  0.00  0.00    +0.000 C 
BRANCH  16  17
ATOM     17  C   UNL     1       1.525  10.635  20.589  0.00  0.00    +0.000 C 
ATOM     18  C   UNL     1       0.961  12.057  20.752  0.00  0.00    +0.000 C 
ATOM     19  C   UNL     1      -0.567  12.070  20.838  0.00  0.00    +0.000 C 
ATOM     20  C   UNL     1      -1.104  11.174  21.965  0.00  0.00    +0.000 C 
ATOM     21  C   UNL     1      -0.507   9.761  21.883  0.00  0.00    +0.000 C 
ATOM     22  C   UNL     1       1.022   9.757  21.755  0.00  0.00    +0.000 C 
BRANCH  20  23
ATOM     23  N   UNL     1      -0.825  11.785  23.267  0.00  0.00    +0.000 NA
ATOM     24  H   UNL     1      -0.355  12.682  23.143  0.00  0.00    +0.000 HD
ATOM     25  H   UNL     1      -0.173  11.202  23.789  0.00  0.00    +0.000 HD
ENDBRANCH  20  23
ENDBRANCH  16  17
ENDBRANCH  14  16
ENDBRANCH   8  12
BRANCH   1  26
ATOM     26  C   UNL     1       7.197   6.303  17.813  0.00  0.00    +0.000 C 
BRANCH  26  27
ATOM     27  C   UNL     1       7.616   5.288  16.742  0.00  0.00    +0.000 C 
ATOM     28  O   UNL     1       8.059   4.175  16.961  0.00  0.00    +0.000 OA
BRANCH  27  30
ATOM     29  C   UNL     1       6.572   5.012  14.656  0.00  0.00    +0.000 C 
ATOM     30  O   UNL     1       7.395   5.818  15.495  0.00  0.00    +0.000 OA
ENDBRANCH  27  30
ENDBRANCH  26  27
BRANCH  26  31
ATOM     31  C   UNL     1       7.386   7.754  17.320  0.00  0.00    +0.000 C 
BRANCH  31  32
ATOM     32  N   UNL     1       8.342   8.513  18.141  0.00  0.00    +0.000 NA
ATOM     33  H   UNL     1       9.305   8.230  17.950  0.00  0.00    +0.000 HD
BRANCH  32  34
ATOM     34  C   UNL     1       8.219   9.957  17.946  0.00  0.00    +0.000 C 
BRANCH  34  35
ATOM     35  C   UNL     1       9.361  10.678  18.626  0.00  0.00    +0.000 A 
ATOM     36  C   UNL     1       9.367  10.867  20.015  0.00  0.00    +0.000 A 
ATOM     37  C   UNL     1      10.394  11.591  20.625  0.00  0.00    +0.000 A 
ATOM     38  C   UNL     1      11.429  12.120  19.855  0.00  0.00    +0.000 A 
ATOM     39  C   UNL     1      11.449  11.914  18.478  0.00  0.00    +0.000 A 
ATOM     40  C   UNL     1      10.423  11.193  17.867  0.00  0.00    +0.000 A 
ENDBRANCH  34  35
ENDBRANCH  32  34
ENDBRANCH  31  32
ENDBRANCH  26  31
ENDBRANCH   1  26
TORSDOF 11
ENDMDL
MODEL 7
REMARK VINA RESULT:      -7.8      0.934      1.457
REMARK  Name = 
REMARK  12 active torsions:
REMARK  status: ('A' for Active; 'I' for Inactive)
REMARK    1  A    between atoms: C_1  and  O_2
REMARK    2  A    between atoms: O_2  and  C_3
REMARK    3  A    between atoms: C_3  and  C_5
REMARK    4  A    between atoms: C_5  and  C_6
REMARK    5  A    between atoms: C_5  and  N_15
REMARK    6  A    between atoms: C_6  and  N_7
REMARK    7  A    between atoms: N_7  and  C_8
REMARK    8  A    between atoms: C_8  and  C_9
REMARK    9  A    between atoms: C_22  and  C_23
REMARK   10  A    between atoms: N_25  and  C_26
REMARK   11  A    between atoms: C_26  and  C_27
REMARK   12  A    between atoms: C_30  and  N_31
REMARK                            x       y       z     vdW  Elec       q    Type
REMARK                         _______ _______ _______ _____ _____    ______ ____
ROOT
ATOM      1  N   UNL     1       5.426   5.704  18.352  0.00  0.00    +0.000 N 
ATOM      2  C   UNL     1       5.342   4.530  19.082  0.00  0.00    +0.000 A 
ATOM      3  O   UNL     1       6.212   3.688  19.227  0.00  0.00    +0.000 OA
ATOM      4  N   UNL     1       4.033   4.457  19.560  0.00  0.00    +0.000 N 
ATOM      5  N   UNL     1       3.351   5.585  19.135  0.00  0.00    +0.000 N 
ATOM      6  C   UNL     1       4.195   6.334  18.339  0.00  0.00    +0.000 A 
ATOM      7  O   UNL     1       3.864   7.319  17.712  0.00  0.00    +0.000 OA
ATOM      8  C   UNL     1       1.937   5.799  19.279  0.00  0.00    +0.000 C 
ATOM      9  C   UNL     1       1.326   4.773  20.193  0.00  0.00    +0.000 C 
ATOM     10  C   UNL     1       1.982   3.679  20.615  0.00  0.00    +0.000 C 
ATOM     11  C   UNL     1       3.388   3.351  20.214  0.00  0.00    +0.000 C 
ENDROOT
BRANCH   8  12
ATOM     12  C   UNL     1       1.784   7.218  19.889  0.00  0.00    +0.000 C 
ATOM     13  O   UNL     1       1.945   7.461  21.083  0.00  0.00    +0.000 OA
ATOM     14  N   UNL     1       1.478   8.209  18.968  0.00  0.00    +0.000 N 
ATOM     15  H   UNL     1       1.245   7.954  18.017  0.00  0.00    +0.000 HD
BRANCH  14  16
ATOM     16  C   UNL     1       1.316   9.589  19.367  0.00  0.00    +0.000 C 
BRANCH  16  17
ATOM     17  C   UNL     1       0.755  10.533  18.276  0.00  0.00    +0.000 C 
ATOM     18  C   UNL     1      -0.597  10.092  17.689  0.00  0.00    +0.000 C 
ATOM     19  C   UNL     1      -1.728  10.165  18.718  0.00  0.00    +0.000 C 
ATOM     20  C   UNL     1      -1.872  11.562  19.341  0.00  0.00    +0.000 C 
ATOM     21  C   UNL     1      -0.525  12.074  19.874  0.00  0.00    +0.000 C 
ATOM     22  C   UNL     1       0.613  11.958  18.852  0.00  0.00    +0.000 C 
BRANCH  20  23
ATOM     23  N   UNL     1      -2.433  12.493  18.360  0.00  0.00    +0.000 NA
ATOM     24  H   UNL     1      -2.318  13.455  18.678  0.00  0.00    +0.000 HD
ATOM     25  H   UNL     1      -3.438  12.346  18.280  0.00  0.00    +0.000 HD
ENDBRANCH  20  23
ENDBRANCH  16  17
ENDBRANCH  14  16
ENDBRANCH   8  12
BRANCH   1  26
ATOM     26  C   UNL     1       6.652   6.264  17.799  0.00  0.00    +0.000 C 
BRANCH  26  27
ATOM     27  C   UNL     1       7.037   5.485  16.535  0.00  0.00    +0.000 C 
ATOM     28  O   UNL     1       7.838   4.569  16.489  0.00  0.00    +0.000 OA
BRANCH  27  30
ATOM     29  C   UNL     1       5.540   4.976  14.798  0.00  0.00    +0.000 C 
ATOM     30  O   UNL     1       6.322   5.963  15.465  0.00  0.00    +0.000 OA
ENDBRANCH  27  30
ENDBRANCH  26  27
BRANCH  26  31
ATOM     31  C   UNL     1       6.566   7.781  17.523  0.00  0.00    +0.000 C 
BRANCH  31  32
ATOM     32  N   UNL     1       7.886   8.398  17.328  0.00  0.00    +0.000 NA
ATOM     33  H   UNL     1       7.821   9.251  16.768  0.00  0.00    +0.000 HD
BRANCH  32  34
ATOM     34  C   UNL     1       8.550   8.706  18.595  0.00  0.00    +0.000 C 
BRANCH  34  35
ATOM     35  C   UNL     1       8.962  10.159  18.632  0.00  0.00    +0.000 A 
ATOM     36  C   UNL     1       8.425  11.083  17.724  0.00  0.00    +0.000 A 
ATOM     37  C   UNL     1       8.861  12.410  17.724  0.00  0.00    +0.000 A 
ATOM     38  C   UNL     1       9.825  12.829  18.640  0.00  0.00    +0.000 A 
ATOM     39  C   UNL     1      10.344  11.928  19.566  0.00  0.00    +0.000 A 
ATOM     40  C   UNL     1       9.912  10.602  19.566  0.00  0.00    +0.000 A 
ENDBRANCH  34  35
ENDBRANCH  32  34
ENDBRANCH  31  32
ENDBRANCH  26  31
ENDBRANCH   1  26
TORSDOF 11
ENDMDL
MODEL 8
REMARK VINA RESULT:      -7.8      1.048      1.494
REMARK  Name = 
REMARK  12 active torsions:
REMARK  status: ('A' for Active; 'I' for Inactive)
REMARK    1  A    between atoms: C_1  and  O_2
REMARK    2  A    between atoms: O_2  and  C_3
REMARK    3  A    between atoms: C_3  and  C_5
REMARK    4  A    between atoms: C_5  and  C_6
REMARK    5  A    between atoms: C_5  and  N_15
REMARK    6  A    between atoms: C_6  and  N_7
REMARK    7  A    between atoms: N_7  and  C_8
REMARK    8  A    between atoms: C_8  and  C_9
REMARK    9  A    between atoms: C_22  and  C_23
REMARK   10  A    between atoms: N_25  and  C_26
REMARK   11  A    between atoms: C_26  and  C_27
REMARK   12  A    between atoms: C_30  and  N_31
REMARK                            x       y       z     vdW  Elec       q    Type
REMARK                         _______ _______ _______ _____ _____    ______ ____
ROOT
ATOM      1  N   UNL     1       5.215   5.895  18.172  0.00  0.00    +0.000 N 
ATOM      2  C   UNL     1       5.246   4.736  18.928  0.00  0.00    +0.000 A 
ATOM      3  O   UNL     1       6.139   3.906  18.969  0.00  0.00    +0.000 OA
ATOM      4  N   UNL     1       4.016   4.660  19.582  0.00  0.00    +0.000 N 
ATOM      5  N   UNL     1       3.268   5.772  19.233  0.00  0.00    +0.000 N 
ATOM      6  C   UNL     1       3.986   6.513  18.315  0.00  0.00    +0.000 A 
ATOM      7  O   UNL     1       3.560   7.481  17.719  0.00  0.00    +0.000 OA
ATOM      8  C   UNL     1       1.884   5.975  19.564  0.00  0.00    +0.000 C 
ATOM      9  C   UNL     1       1.417   4.962  20.573  0.00  0.00    +0.000 C 
ATOM     10  C   UNL     1       2.138   3.884  20.922  0.00  0.00    +0.000 C 
ATOM     11  C   UNL     1       3.480   3.562  20.340  0.00  0.00    +0.000 C 
ENDROOT
BRANCH   8  12
ATOM     12  C   UNL     1       1.798   7.405  20.162  0.00  0.00    +0.000 C 
ATOM     13  O   UNL     1       2.111   7.674  21.320  0.00  0.00    +0.000 OA
ATOM     14  N   UNL     1       1.365   8.375  19.270  0.00  0.00    +0.000 N 
ATOM     15  H   UNL     1       1.013   8.099  18.363  0.00  0.00    +0.000 HD
BRANCH  14  16
ATOM     16  C   UNL     1       1.242   9.762  19.661  0.00  0.00    +0.000 C 
BRANCH  16  17
ATOM     17  C   UNL     1       0.786  10.728  18.541  0.00  0.00    +0.000 C 
ATOM     18  C   UNL     1      -0.734  10.958  18.482  0.00  0.00    +0.000 C 
ATOM     19  C   UNL     1      -1.256  11.703  19.713  0.00  0.00    +0.000 C 
ATOM     20  C   UNL     1      -0.544  13.046  19.938  0.00  0.00    +0.000 C 
ATOM     21  C   UNL     1       0.983  12.873  19.929  0.00  0.00    +0.000 C 
ATOM     22  C   UNL     1       1.495  12.088  18.715  0.00  0.00    +0.000 C 
BRANCH  20  23
ATOM     23  N   UNL     1      -0.966  14.013  18.924  0.00  0.00    +0.000 NA
ATOM     24  H   UNL     1      -0.152  14.450  18.490  0.00  0.00    +0.000 HD
ATOM     25  H   UNL     1      -1.485  14.772  19.364  0.00  0.00    +0.000 HD
ENDBRANCH  20  23
ENDBRANCH  16  17
ENDBRANCH  14  16
ENDBRANCH   8  12
BRANCH   1  26
ATOM     26  C   UNL     1       6.347   6.456  17.445  0.00  0.00    +0.000 C 
BRANCH  26  27
ATOM     27  C   UNL     1       6.252   6.046  15.970  0.00  0.00    +0.000 C 
ATOM     28  O   UNL     1       5.520   6.558  15.142  0.00  0.00    +0.000 OA
BRANCH  27  30
ATOM     29  C   UNL     1       6.528   3.830  15.242  0.00  0.00    +0.000 C 
ATOM     30  O   UNL     1       7.136   5.027  15.719  0.00  0.00    +0.000 OA
ENDBRANCH  27  30
ENDBRANCH  26  27
BRANCH  26  31
ATOM     31  C   UNL     1       6.480   7.987  17.599  0.00  0.00    +0.000 C 
BRANCH  31  32
ATOM     32  N   UNL     1       7.853   8.463  17.374  0.00  0.00    +0.000 NA
ATOM     33  H   UNL     1       7.861   9.367  16.897  0.00  0.00    +0.000 HD
BRANCH  32  34
ATOM     34  C   UNL     1       8.616   8.569  18.617  0.00  0.00    +0.000 C 
BRANCH  34  35
ATOM     35  C   UNL     1       9.010  10.006  18.870  0.00  0.00    +0.000 A 
ATOM     36  C   UNL     1       9.326  10.448  20.164  0.00  0.00    +0.000 A 
ATOM     37  C   UNL     1       9.625  11.792  20.397  0.00  0.00    +0.000 A 
ATOM     38  C   UNL     1       9.626  12.702  19.341  0.00  0.00    +0.000 A 
ATOM     39  C   UNL     1       9.343  12.269  18.048  0.00  0.00    +0.000 A 
ATOM     40  C   UNL     1       9.041  10.928  17.813  0.00  0.00    +0.000 A 
ENDBRANCH  34  35
ENDBRANCH  32  34
ENDBRANCH  31  32
ENDBRANCH  26  31
ENDBRANCH   1  26
TORSDOF 11
ENDMDL
MODEL 9
REMARK VINA RESULT:      -7.7      1.254      1.587
REMARK  Name = 
REMARK  12 active torsions:
REMARK  status: ('A' for Active; 'I' for Inactive)
REMARK    1  A    between atoms: C_1  and  O_2
REMARK    2  A    between atoms: O_2  and  C_3
REMARK    3  A    between atoms: C_3  and  C_5
REMARK    4  A    between atoms: C_5  and  C_6
REMARK    5  A    between atoms: C_5  and  N_15
REMARK    6  A    between atoms: C_6  and  N_7
REMARK    7  A    between atoms: N_7  and  C_8
REMARK    8  A    between atoms: C_8  and  C_9
REMARK    9  A    between atoms: C_22  and  C_23
REMARK   10  A    between atoms: N_25  and  C_26
REMARK   11  A    between atoms: C_26  and  C_27
REMARK   12  A    between atoms: C_30  and  N_31
REMARK                            x       y       z     vdW  Elec       q    Type
REMARK                         _______ _______ _______ _____ _____    ______ ____
ROOT
ATOM      1  N   UNL     1       5.557   5.821  18.260  0.00  0.00    +0.000 N 
ATOM      2  C   UNL     1       5.493   4.766  19.155  0.00  0.00    +0.000 A 
ATOM      3  O   UNL     1       6.378   3.971  19.423  0.00  0.00    +0.000 OA
ATOM      4  N   UNL     1       4.184   4.741  19.639  0.00  0.00    +0.000 N 
ATOM      5  N   UNL     1       3.483   5.781  19.052  0.00  0.00    +0.000 N 
ATOM      6  C   UNL     1       4.315   6.420  18.154  0.00  0.00    +0.000 A 
ATOM      7  O   UNL     1       3.967   7.294  17.388  0.00  0.00    +0.000 OA
ATOM      8  C   UNL     1       2.065   5.988  19.163  0.00  0.00    +0.000 C 
ATOM      9  C   UNL     1       1.471   5.098  20.219  0.00  0.00    +0.000 C 
ATOM     10  C   UNL     1       2.145   4.091  20.798  0.00  0.00    +0.000 C 
ATOM     11  C   UNL     1       3.558   3.733  20.450  0.00  0.00    +0.000 C 
ENDROOT
BRANCH   8  12
ATOM     12  C   UNL     1       1.885   7.479  19.556  0.00  0.00    +0.000 C 
ATOM     13  O   UNL     1       2.021   8.409  18.764  0.00  0.00    +0.000 OA
ATOM     14  N   UNL     1       1.526   7.684  20.881  0.00  0.00    +0.000 N 
ATOM     15  H   UNL     1       1.532   6.906  21.527  0.00  0.00    +0.000 HD
BRANCH  14  16
ATOM     16  C   UNL     1       1.305   9.013  21.407  0.00  0.00    +0.000 C 
BRANCH  16  17
ATOM     17  C   UNL     1      -0.179   9.410  21.599  0.00  0.00    +0.000 C 
ATOM     18  C   UNL     1      -0.394  10.651  22.483  0.00  0.00    +0.000 C 
ATOM     19  C   UNL     1       0.147  11.927  21.833  0.00  0.00    +0.000 C 
ATOM     20  C   UNL     1      -0.450  12.181  20.441  0.00  0.00    +0.000 C 
ATOM     21  C   UNL     1      -0.323  10.938  19.547  0.00  0.00    +0.000 C 
ATOM     22  C   UNL     1      -0.828   9.656  20.220  0.00  0.00    +0.000 C 
BRANCH  20  23
ATOM     23  N   UNL     1      -1.849  12.596  20.564  0.00  0.00    +0.000 NA
ATOM     24  H   UNL     1      -2.360  12.378  19.707  0.00  0.00    +0.000 HD
ATOM     25  H   UNL     1      -1.901  13.608  20.666  0.00  0.00    +0.000 HD
ENDBRANCH  20  23
ENDBRANCH  16  17
ENDBRANCH  14  16
ENDBRANCH   8  12
BRANCH   1  26
ATOM     26  C   UNL     1       6.774   6.315  17.629  0.00  0.00    +0.000 C 
BRANCH  26  27
ATOM     27  C   UNL     1       7.101   5.442  16.411  0.00  0.00    +0.000 C 
ATOM     28  O   UNL     1       7.895   4.520  16.398  0.00  0.00    +0.000 OA
BRANCH  27  30
ATOM     29  C   UNL     1       5.575   4.805  14.743  0.00  0.00    +0.000 C 
ATOM     30  O   UNL     1       6.343   5.846  15.340  0.00  0.00    +0.000 OA
ENDBRANCH  27  30
ENDBRANCH  26  27
BRANCH  26  31
ATOM     31  C   UNL     1       6.708   7.811  17.251  0.00  0.00    +0.000 C 
BRANCH  31  32
ATOM     32  N   UNL     1       8.025   8.464  17.286  0.00  0.00    +0.000 NA
ATOM     33  H   UNL     1       8.008   9.364  16.800  0.00  0.00    +0.000 HD
BRANCH  32  34
ATOM     34  C   UNL     1       8.511   8.665  18.651  0.00  0.00    +0.000 C 
BRANCH  34  35
ATOM     35  C   UNL     1       9.008  10.081  18.829  0.00  0.00    +0.000 A 
ATOM     36  C   UNL     1       8.819  11.041  17.824  0.00  0.00    +0.000 A 
ATOM     37  C   UNL     1       9.339  12.328  17.970  0.00  0.00    +0.000 A 
ATOM     38  C   UNL     1      10.039  12.673  19.126  0.00  0.00    +0.000 A 
ATOM     39  C   UNL     1      10.206  11.738  20.144  0.00  0.00    +0.000 A 
ATOM     40  C   UNL     1       9.690  10.450  19.998  0.00  0.00    +0.000 A 
ENDBRANCH  34  35
ENDBRANCH  32  34
ENDBRANCH  31  32
ENDBRANCH  26  31
ENDBRANCH   1  26
TORSDOF 11
ENDMDL
