MODEL 1
REMARK VINA RESULT:      -8.8      0.000      0.000
REMARK  Name = 
REMARK  5 active torsions:
REMARK  status: ('A' for Active; 'I' for Inactive)
REMARK    1  A    between atoms: C_1  and  C_2
REMARK    2  A    between atoms: C_2  and  C_19
REMARK    3  A    between atoms: N_3  and  N_4
REMARK    4  A    between atoms: C_5  and  C_7
REMARK    5  A    between atoms: C_12  and  C_13
REMARK                            x       y       z     vdW  Elec       q    Type
REMARK                         _______ _______ _______ _____ _____    ______ ____
ROOT
ATOM      1  N   UNL     1       5.321   3.984  17.865  0.00  0.00    +0.000 N 
ATOM      2  C   UNL     1       4.145   3.363  18.291  0.00  0.00    +0.000 C 
ATOM      3  O   UNL     1       3.422   2.670  17.580  0.00  0.00    +0.000 OA
ATOM      4  H   UNL     1       5.969   4.320  18.573  0.00  0.00    +0.000 HD
ENDROOT
BRANCH   2   5
ATOM      5  C   UNL     1       3.788   3.716  19.724  0.00  0.00    +0.000 C 
ATOM      6  C   UNL     1       3.898   2.548  20.668  0.00  0.00    +0.000 C 
ATOM      7  O   UNL     1       4.820   1.750  20.711  0.00  0.00    +0.000 OA
ATOM      8  N   UNL     1       2.834   2.575  21.543  0.00  0.00    +0.000 N 
ATOM      9  C   UNL     1       2.007   3.729  21.357  0.00  0.00    +0.000 C 
ATOM     10  C   UNL     1       2.324   4.169  19.925  0.00  0.00    +0.000 C 
ATOM     11  H   UNL     1       2.777   1.923  22.319  0.00  0.00    +0.000 HD
BRANCH  10  12
ATOM     12  C   UNL     1       2.109   5.645  19.665  0.00  0.00    +0.000 A 
ATOM     13  C   UNL     1       1.694   6.528  20.675  0.00  0.00    +0.000 A 
ATOM     14  C   UNL     1       1.624   7.902  20.436  0.00  0.00    +0.000 A 
ATOM     15  C   UNL     1       1.953   8.410  19.182  0.00  0.00    +0.000 A 
ATOM     16  C   UNL     1       2.328   7.544  18.159  0.00  0.00    +0.000 A 
ATOM     17  C   UNL     1       2.402   6.171  18.398  0.00  0.00    +0.000 A 
ENDBRANCH  10  12
ENDBRANCH   2   5
BRANCH   1  20
ATOM     18  C   UNL     1       5.256   6.206  16.057  0.00  0.00    +0.000 C 
ATOM     19  C   UNL     1       5.776   4.810  15.756  0.00  0.00    +0.000 C 
ATOM     20  N   UNL     1       5.765   3.809  16.586  0.00  0.00    +0.000 NA
BRANCH  19  21
ATOM     21  C   UNL     1       6.320   4.589  14.374  0.00  0.00    +0.000 A 
ATOM     22  C   UNL     1       7.332   5.428  13.884  0.00  0.00    +0.000 A 
ATOM     23  C   UNL     1       7.865   5.225  12.611  0.00  0.00    +0.000 A 
ATOM     24  C   UNL     1       7.384   4.191  11.807  0.00  0.00    +0.000 A 
ATOM     25  C   UNL     1       6.366   3.366  12.287  0.00  0.00    +0.000 A 
ATOM     26 BR   UNL     1       5.699   1.975  11.193  0.00  0.00    +0.000 Br
ATOM     27  C   UNL     1       5.833   3.557  13.564  0.00  0.00    +0.000 A 
ENDBRANCH  19  21
ENDBRANCH   1  20
TORSDOF 4
ENDMDL
MODEL 2
REMARK VINA RESULT:      -8.6      4.647      8.386
REMARK  Name = 
REMARK  5 active torsions:
REMARK  status: ('A' for Active; 'I' for Inactive)
REMARK    1  A    between atoms: C_1  and  C_2
REMARK    2  A    between atoms: C_2  and  C_19
REMARK    3  A    between atoms: N_3  and  N_4
REMARK    4  A    between atoms: C_5  and  C_7
REMARK    5  A    between atoms: C_12  and  C_13
REMARK                            x       y       z     vdW  Elec       q    Type
REMARK                         _______ _______ _______ _____ _____    ______ ____
ROOT
ATOM      1  N   UNL     1       2.319   7.303  19.064  0.00  0.00    +0.000 N 
ATOM      2  C   UNL     1       2.365   5.919  19.245  0.00  0.00    +0.000 C 
ATOM      3  O   UNL     1       1.966   5.329  20.245  0.00  0.00    +0.000 OA
ATOM      4  H   UNL     1       2.437   7.669  18.123  0.00  0.00    +0.000 HD
ENDROOT
BRANCH   2   5
ATOM      5  C   UNL     1       3.062   5.208  18.098  0.00  0.00    +0.000 C 
ATOM      6  C   UNL     1       2.274   4.046  17.554  0.00  0.00    +0.000 C 
ATOM      7  O   UNL     1       1.080   4.049  17.304  0.00  0.00    +0.000 OA
ATOM      8  N   UNL     1       3.134   3.002  17.291  0.00  0.00    +0.000 N 
ATOM      9  C   UNL     1       4.503   3.355  17.524  0.00  0.00    +0.000 C 
ATOM     10  C   UNL     1       4.408   4.547  18.479  0.00  0.00    +0.000 C 
ATOM     11  H   UNL     1       2.810   2.159  16.829  0.00  0.00    +0.000 HD
BRANCH  10  12
ATOM     12  C   UNL     1       5.585   5.496  18.410  0.00  0.00    +0.000 A 
ATOM     13  C   UNL     1       6.717   5.341  19.226  0.00  0.00    +0.000 A 
ATOM     14  C   UNL     1       7.838   6.156  19.054  0.00  0.00    +0.000 A 
ATOM     15  C   UNL     1       7.837   7.146  18.075  0.00  0.00    +0.000 A 
ATOM     16  C   UNL     1       6.707   7.339  17.285  0.00  0.00    +0.000 A 
ATOM     17  C   UNL     1       5.588   6.522  17.454  0.00  0.00    +0.000 A 
ENDBRANCH  10  12
ENDBRANCH   2   5
BRANCH   1  20
ATOM     18  C   UNL     1       0.853   9.629  18.256  0.00  0.00    +0.000 C 
ATOM     19  C   UNL     1       1.065   9.144  19.681  0.00  0.00    +0.000 C 
ATOM     20  N   UNL     1       1.764   8.101  20.023  0.00  0.00    +0.000 NA
BRANCH  19  21
ATOM     21  C   UNL     1       0.428   9.966  20.763  0.00  0.00    +0.000 A 
ATOM     22  C   UNL     1      -0.120   9.329  21.887  0.00  0.00    +0.000 A 
ATOM     23  C   UNL     1      -0.697  10.078  22.914  0.00  0.00    +0.000 A 
ATOM     24  C   UNL     1      -0.745  11.469  22.824  0.00  0.00    +0.000 A 
ATOM     25  C   UNL     1      -0.216  12.102  21.699  0.00  0.00    +0.000 A 
ATOM     26 BR   UNL     1      -0.297  13.987  21.565  0.00  0.00    +0.000 Br
ATOM     27  C   UNL     1       0.372  11.362  20.671  0.00  0.00    +0.000 A 
ENDBRANCH  19  21
ENDBRANCH   1  20
TORSDOF 4
ENDMDL
MODEL 3
REMARK VINA RESULT:      -8.5      5.346      6.843
REMARK  Name = 
REMARK  5 active torsions:
REMARK  status: ('A' for Active; 'I' for Inactive)
REMARK    1  A    between atoms: C_1  and  C_2
REMARK    2  A    between atoms: C_2  and  C_19
REMARK    3  A    between atoms: N_3  and  N_4
REMARK    4  A    between atoms: C_5  and  C_7
REMARK    5  A    between atoms: C_12  and  C_13
REMARK                            x       y       z     vdW  Elec       q    Type
REMARK                         _______ _______ _______ _____ _____    ______ ____
ROOT
ATOM      1  N   UNL     1       7.658   6.794  18.147  0.00  0.00    +0.000 N 
ATOM      2  C   UNL     1       7.205   5.761  18.969  0.00  0.00    +0.000 C 
ATOM      3  O   UNL     1       7.490   5.634  20.157  0.00  0.00    +0.000 OA
ATOM      4  H   UNL     1       7.178   6.953  17.266  0.00  0.00    +0.000 HD
ENDROOT
BRANCH   2   5
ATOM      5  C   UNL     1       6.384   4.733  18.210  0.00  0.00    +0.000 C 
ATOM      6  C   UNL     1       6.877   4.499  16.807  0.00  0.00    +0.000 C 
ATOM      7  O   UNL     1       8.041   4.346  16.476  0.00  0.00    +0.000 OA
ATOM      8  N   UNL     1       5.794   4.388  15.962  0.00  0.00    +0.000 N 
ATOM      9  C   UNL     1       4.549   4.439  16.666  0.00  0.00    +0.000 C 
ATOM     10  C   UNL     1       4.909   5.136  17.981  0.00  0.00    +0.000 C 
ATOM     11  H   UNL     1       5.914   4.135  14.987  0.00  0.00    +0.000 HD
BRANCH  10  12
ATOM     12  C   UNL     1       4.002   4.785  19.141  0.00  0.00    +0.000 A 
ATOM     13  C   UNL     1       3.098   5.710  19.688  0.00  0.00    +0.000 A 
ATOM     14  C   UNL     1       2.188   5.321  20.673  0.00  0.00    +0.000 A 
ATOM     15  C   UNL     1       2.179   4.008  21.136  0.00  0.00    +0.000 A 
ATOM     16  C   UNL     1       3.096   3.089  20.633  0.00  0.00    +0.000 A 
ATOM     17  C   UNL     1       4.003   3.476  19.644  0.00  0.00    +0.000 A 
ENDBRANCH  10  12
ENDBRANCH   2   5
BRANCH   1  20
ATOM     18  C   UNL     1       7.290   9.484  17.230  0.00  0.00    +0.000 C 
ATOM     19  C   UNL     1       8.278   9.017  18.286  0.00  0.00    +0.000 C 
ATOM     20  N   UNL     1       8.448   7.783  18.662  0.00  0.00    +0.000 NA
BRANCH  19  21
ATOM     21  C   UNL     1       9.131  10.081  18.913  0.00  0.00    +0.000 A 
ATOM     22  C   UNL     1       9.067  10.294  20.298  0.00  0.00    +0.000 A 
ATOM     23  C   UNL     1       9.868  11.263  20.903  0.00  0.00    +0.000 A 
ATOM     24  C   UNL     1      10.732  12.039  20.130  0.00  0.00    +0.000 A 
ATOM     25  C   UNL     1      10.784  11.840  18.750  0.00  0.00    +0.000 A 
ATOM     26 BR   UNL     1      11.939  12.903  17.695  0.00  0.00    +0.000 Br
ATOM     27  C   UNL     1       9.992  10.865  18.138  0.00  0.00    +0.000 A 
ENDBRANCH  19  21
ENDBRANCH   1  20
TORSDOF 4
ENDMDL
MODEL 4
REMARK VINA RESULT:      -8.1      4.907      8.565
REMARK  Name = 
REMARK  5 active torsions:
REMARK  status: ('A' for Active; 'I' for Inactive)
REMARK    1  A    between atoms: C_1  and  C_2
REMARK    2  A    between atoms: C_2  and  C_19
REMARK    3  A    between atoms: N_3  and  N_4
REMARK    4  A    between atoms: C_5  and  C_7
REMARK    5  A    between atoms: C_12  and  C_13
REMARK                            x       y       z     vdW  Elec       q    Type
REMARK                         _______ _______ _______ _____ _____    ______ ____
ROOT
ATOM      1  N   UNL     1       2.320   7.852  19.198  0.00  0.00    +0.000 N 
ATOM      2  C   UNL     1       3.005   7.551  18.019  0.00  0.00    +0.000 C 
ATOM      3  O   UNL     1       2.854   8.138  16.951  0.00  0.00    +0.000 OA
ATOM      4  H   UNL     1       2.687   7.487  20.073  0.00  0.00    +0.000 HD
ENDROOT
BRANCH   2   5
ATOM      5  C   UNL     1       3.906   6.337  18.165  0.00  0.00    +0.000 C 
ATOM      6  C   UNL     1       5.130   6.396  17.291  0.00  0.00    +0.000 C 
ATOM      7  O   UNL     1       5.854   7.367  17.143  0.00  0.00    +0.000 OA
ATOM      8  N   UNL     1       5.360   5.149  16.753  0.00  0.00    +0.000 N 
ATOM      9  C   UNL     1       4.441   4.168  17.244  0.00  0.00    +0.000 C 
ATOM     10  C   UNL     1       3.254   5.002  17.734  0.00  0.00    +0.000 C 
ATOM     11  H   UNL     1       6.195   4.959  16.208  0.00  0.00    +0.000 HD
BRANCH  10  12
ATOM     12  C   UNL     1       2.441   4.347  18.830  0.00  0.00    +0.000 A 
ATOM     13  C   UNL     1       1.369   3.485  18.551  0.00  0.00    +0.000 A 
ATOM     14  C   UNL     1       0.718   2.800  19.578  0.00  0.00    +0.000 A 
ATOM     15  C   UNL     1       1.120   2.977  20.899  0.00  0.00    +0.000 A 
ATOM     16  C   UNL     1       2.155   3.858  21.197  0.00  0.00    +0.000 A 
ATOM     17  C   UNL     1       2.809   4.541  20.170  0.00  0.00    +0.000 A 
ENDBRANCH  10  12
ENDBRANCH   2   5
BRANCH   1  20
ATOM     18  C   UNL     1       0.962   8.443  21.650  0.00  0.00    +0.000 C 
ATOM     19  C   UNL     1       0.830   9.200  20.339  0.00  0.00    +0.000 C 
ATOM     20  N   UNL     1       1.434   8.891  19.229  0.00  0.00    +0.000 NA
BRANCH  19  21
ATOM     21  C   UNL     1      -0.097  10.380  20.345  0.00  0.00    +0.000 A 
ATOM     22  C   UNL     1      -0.912  10.629  19.230  0.00  0.00    +0.000 A 
ATOM     23  C   UNL     1      -1.796  11.708  19.225  0.00  0.00    +0.000 A 
ATOM     24  C   UNL     1      -1.868  12.559  20.328  0.00  0.00    +0.000 A 
ATOM     25  C   UNL     1      -1.047  12.323  21.431  0.00  0.00    +0.000 A 
ATOM     26 BR   UNL     1      -1.126  13.486  22.920  0.00  0.00    +0.000 Br
ATOM     27  C   UNL     1      -0.164  11.240  21.448  0.00  0.00    +0.000 A 
ENDBRANCH  19  21
ENDBRANCH   1  20
TORSDOF 4
ENDMDL
MODEL 5
REMARK VINA RESULT:      -8.1      4.811      8.400
REMARK  Name = 
REMARK  5 active torsions:
REMARK  status: ('A' for Active; 'I' for Inactive)
REMARK    1  A    between atoms: C_1  and  C_2
REMARK    2  A    between atoms: C_2  and  C_19
REMARK    3  A    between atoms: N_3  and  N_4
REMARK    4  A    between atoms: C_5  and  C_7
REMARK    5  A    between atoms: C_12  and  C_13
REMARK                            x       y       z     vdW  Elec       q    Type
REMARK                         _______ _______ _______ _____ _____    ______ ____
ROOT
ATOM      1  N   UNL     1       2.463   7.717  19.009  0.00  0.00    +0.000 N 
ATOM      2  C   UNL     1       3.171   7.459  17.833  0.00  0.00    +0.000 C 
ATOM      3  O   UNL     1       3.031   8.077  16.781  0.00  0.00    +0.000 OA
ATOM      4  H   UNL     1       2.819   7.330  19.879  0.00  0.00    +0.000 HD
ENDROOT
BRANCH   2   5
ATOM      5  C   UNL     1       4.082   6.251  17.959  0.00  0.00    +0.000 C 
ATOM      6  C   UNL     1       5.265   6.299  17.028  0.00  0.00    +0.000 C 
ATOM      7  O   UNL     1       5.977   7.269  16.831  0.00  0.00    +0.000 OA
ATOM      8  N   UNL     1       5.475   5.044  16.501  0.00  0.00    +0.000 N 
ATOM      9  C   UNL     1       4.583   4.068  17.051  0.00  0.00    +0.000 C 
ATOM     10  C   UNL     1       3.417   4.907  17.580  0.00  0.00    +0.000 C 
ATOM     11  H   UNL     1       6.285   4.847  15.922  0.00  0.00    +0.000 HD
BRANCH  10  12
ATOM     12  C   UNL     1       2.658   4.268  18.723  0.00  0.00    +0.000 A 
ATOM     13  C   UNL     1       3.007   4.486  20.066  0.00  0.00    +0.000 A 
ATOM     14  C   UNL     1       2.215   3.984  21.100  0.00  0.00    +0.000 A 
ATOM     15  C   UNL     1       1.072   3.245  20.808  0.00  0.00    +0.000 A 
ATOM     16  C   UNL     1       0.734   2.985  19.483  0.00  0.00    +0.000 A 
ATOM     17  C   UNL     1       1.523   3.490  18.448  0.00  0.00    +0.000 A 
ENDBRANCH  10  12
ENDBRANCH   2   5
BRANCH   1  20
ATOM     18  C   UNL     1       1.149   8.298  21.488  0.00  0.00    +0.000 C 
ATOM     19  C   UNL     1       0.980   9.050  20.178  0.00  0.00    +0.000 C 
ATOM     20  N   UNL     1       1.565   8.745  19.056  0.00  0.00    +0.000 NA
BRANCH  19  21
ATOM     21  C   UNL     1       0.039  10.219  20.200  0.00  0.00    +0.000 A 
ATOM     22  C   UNL     1      -0.619  10.602  19.022  0.00  0.00    +0.000 A 
ATOM     23  C   UNL     1      -1.515  11.673  19.028  0.00  0.00    +0.000 A 
ATOM     24  C   UNL     1      -1.753  12.380  20.206  0.00  0.00    +0.000 A 
ATOM     25  C   UNL     1      -1.086  12.010  21.375  0.00  0.00    +0.000 A 
ATOM     26 BR   UNL     1      -1.392  12.979  22.970  0.00  0.00    +0.000 Br
ATOM     27  C   UNL     1      -0.195  10.935  21.380  0.00  0.00    +0.000 A 
ENDBRANCH  19  21
ENDBRANCH   1  20
TORSDOF 4
ENDMDL
MODEL 6
REMARK VINA RESULT:      -8.0      4.467      8.159
REMARK  Name = 
REMARK  5 active torsions:
REMARK  status: ('A' for Active; 'I' for Inactive)
REMARK    1  A    between atoms: C_1  and  C_2
REMARK    2  A    between atoms: C_2  and  C_19
REMARK    3  A    between atoms: N_3  and  N_4
REMARK    4  A    between atoms: C_5  and  C_7
REMARK    5  A    between atoms: C_12  and  C_13
REMARK                            x       y       z     vdW  Elec       q    Type
REMARK                         _______ _______ _______ _____ _____    ______ ____
ROOT
ATOM      1  N   UNL     1       2.402   7.768  19.054  0.00  0.00    +0.000 N 
ATOM      2  C   UNL     1       3.162   7.445  17.928  0.00  0.00    +0.000 C 
ATOM      3  O   UNL     1       3.085   8.017  16.843  0.00  0.00    +0.000 OA
ATOM      4  H   UNL     1       2.708   7.415  19.957  0.00  0.00    +0.000 HD
ENDROOT
BRANCH   2   5
ATOM      5  C   UNL     1       4.043   6.229  18.152  0.00  0.00    +0.000 C 
ATOM      6  C   UNL     1       5.305   6.250  17.332  0.00  0.00    +0.000 C 
ATOM      7  O   UNL     1       6.045   7.210  17.188  0.00  0.00    +0.000 OA
ATOM      8  N   UNL     1       5.547   4.985  16.844  0.00  0.00    +0.000 N 
ATOM      9  C   UNL     1       4.597   4.028  17.323  0.00  0.00    +0.000 C 
ATOM     10  C   UNL     1       3.398   4.887  17.733  0.00  0.00    +0.000 C 
ATOM     11  H   UNL     1       6.404   4.771  16.344  0.00  0.00    +0.000 HD
BRANCH  10  12
ATOM     12  C   UNL     1       2.530   4.273  18.811  0.00  0.00    +0.000 A 
ATOM     13  C   UNL     1       1.432   3.452  18.508  0.00  0.00    +0.000 A 
ATOM     14  C   UNL     1       0.727   2.801  19.522  0.00  0.00    +0.000 A 
ATOM     15  C   UNL     1       1.100   2.973  20.853  0.00  0.00    +0.000 A 
ATOM     16  C   UNL     1       2.161   3.815  21.173  0.00  0.00    +0.000 A 
ATOM     17  C   UNL     1       2.869   4.464  20.159  0.00  0.00    +0.000 A 
ENDBRANCH  10  12
ENDBRANCH   2   5
BRANCH   1  20
ATOM     18  C   UNL     1       1.006   8.506  21.445  0.00  0.00    +0.000 C 
ATOM     19  C   UNL     1       0.901   9.188  20.090  0.00  0.00    +0.000 C 
ATOM     20  N   UNL     1       1.522   8.812  19.011  0.00  0.00    +0.000 NA
BRANCH  19  21
ATOM     21  C   UNL     1      -0.018  10.372  20.013  0.00  0.00    +0.000 A 
ATOM     22  C   UNL     1       0.231  11.497  20.812  0.00  0.00    +0.000 A 
ATOM     23  C   UNL     1      -0.599  12.616  20.738  0.00  0.00    +0.000 A 
ATOM     24  C   UNL     1      -1.695  12.618  19.876  0.00  0.00    +0.000 A 
ATOM     25  C   UNL     1      -1.954  11.494  19.093  0.00  0.00    +0.000 A 
ATOM     26 BR   UNL     1      -3.451  11.485  17.936  0.00  0.00    +0.000 Br
ATOM     27  C   UNL     1      -1.123  10.372  19.154  0.00  0.00    +0.000 A 
ENDBRANCH  19  21
ENDBRANCH   1  20
TORSDOF 4
ENDMDL
MODEL 7
REMARK VINA RESULT:      -8.0      5.703      7.105
REMARK  Name = 
REMARK  5 active torsions:
REMARK  status: ('A' for Active; 'I' for Inactive)
REMARK    1  A    between atoms: C_1  and  C_2
REMARK    2  A    between atoms: C_2  and  C_19
REMARK    3  A    between atoms: N_3  and  N_4
REMARK    4  A    between atoms: C_5  and  C_7
REMARK    5  A    between atoms: C_12  and  C_13
REMARK                            x       y       z     vdW  Elec       q    Type
REMARK                         _______ _______ _______ _____ _____    ______ ____
ROOT
ATOM      1  N   UNL     1       7.745   7.501  17.979  0.00  0.00    +0.000 N 
ATOM      2  C   UNL     1       7.479   6.303  18.645  0.00  0.00    +0.000 C 
ATOM      3  O   UNL     1       7.994   5.962  19.707  0.00  0.00    +0.000 OA
ATOM      4  H   UNL     1       7.098   7.802  17.255  0.00  0.00    +0.000 HD
ENDROOT
BRANCH   2   5
ATOM      5  C   UNL     1       6.542   5.400  17.862  0.00  0.00    +0.000 C 
ATOM      6  C   UNL     1       7.234   4.635  16.765  0.00  0.00    +0.000 C 
ATOM      7  O   UNL     1       8.299   4.049  16.867  0.00  0.00    +0.000 OA
ATOM      8  N   UNL     1       6.427   4.620  15.648  0.00  0.00    +0.000 N 
ATOM      9  C   UNL     1       5.161   5.245  15.885  0.00  0.00    +0.000 C 
ATOM     10  C   UNL     1       5.427   6.147  17.094  0.00  0.00    +0.000 C 
ATOM     11  H   UNL     1       6.674   4.073  14.830  0.00  0.00    +0.000 HD
BRANCH  10  12
ATOM     12  C   UNL     1       4.204   6.436  17.938  0.00  0.00    +0.000 A 
ATOM     13  C   UNL     1       3.846   5.633  19.032  0.00  0.00    +0.000 A 
ATOM     14  C   UNL     1       2.785   5.994  19.865  0.00  0.00    +0.000 A 
ATOM     15  C   UNL     1       2.059   7.154  19.608  0.00  0.00    +0.000 A 
ATOM     16  C   UNL     1       2.376   7.940  18.503  0.00  0.00    +0.000 A 
ATOM     17  C   UNL     1       3.439   7.581  17.672  0.00  0.00    +0.000 A 
ENDBRANCH  10  12
ENDBRANCH   2   5
BRANCH   1  20
ATOM     18  C   UNL     1       7.492  10.259  17.245  0.00  0.00    +0.000 C 
ATOM     19  C   UNL     1       8.488   9.674  18.233  0.00  0.00    +0.000 C 
ATOM     20  N   UNL     1       8.604   8.412  18.525  0.00  0.00    +0.000 NA
BRANCH  19  21
ATOM     21  C   UNL     1       9.418  10.650  18.893  0.00  0.00    +0.000 A 
ATOM     22  C   UNL     1       9.413  10.778  20.290  0.00  0.00    +0.000 A 
ATOM     23  C   UNL     1      10.285  11.664  20.924  0.00  0.00    +0.000 A 
ATOM     24  C   UNL     1      11.163  12.441  20.169  0.00  0.00    +0.000 A 
ATOM     25  C   UNL     1      11.158  12.328  18.779  0.00  0.00    +0.000 A 
ATOM     26 BR   UNL     1      12.333  13.395  17.750  0.00  0.00    +0.000 Br
ATOM     27  C   UNL     1      10.294  11.437  18.137  0.00  0.00    +0.000 A 
ENDBRANCH  19  21
ENDBRANCH   1  20
TORSDOF 4
ENDMDL
MODEL 8
REMARK VINA RESULT:      -7.9      4.266      7.734
REMARK  Name = 
REMARK  5 active torsions:
REMARK  status: ('A' for Active; 'I' for Inactive)
REMARK    1  A    between atoms: C_1  and  C_2
REMARK    2  A    between atoms: C_2  and  C_19
REMARK    3  A    between atoms: N_3  and  N_4
REMARK    4  A    between atoms: C_5  and  C_7
REMARK    5  A    between atoms: C_12  and  C_13
REMARK                            x       y       z     vdW  Elec       q    Type
REMARK                         _______ _______ _______ _____ _____    ______ ____
ROOT
ATOM      1  N   UNL     1       3.658   6.490  18.154  0.00  0.00    +0.000 N 
ATOM      2  C   UNL     1       4.877   6.664  17.495  0.00  0.00    +0.000 C 
ATOM      3  O   UNL     1       5.309   7.742  17.095  0.00  0.00    +0.000 OA
ATOM      4  H   UNL     1       3.506   5.621  18.659  0.00  0.00    +0.000 HD
ENDROOT
BRANCH   2   5
ATOM      5  C   UNL     1       5.587   5.349  17.231  0.00  0.00    +0.000 C 
ATOM      6  C   UNL     1       6.728   5.474  16.256  0.00  0.00    +0.000 C 
ATOM      7  O   UNL     1       7.578   6.348  16.263  0.00  0.00    +0.000 OA
ATOM      8  N   UNL     1       6.716   4.390  15.407  0.00  0.00    +0.000 N 
ATOM      9  C   UNL     1       5.700   3.441  15.752  0.00  0.00    +0.000 C 
ATOM     10  C   UNL     1       4.703   4.266  16.570  0.00  0.00    +0.000 C 
ATOM     11  H   UNL     1       7.462   4.241  14.736  0.00  0.00    +0.000 HD
BRANCH  10  12
ATOM     12  C   UNL     1       3.894   3.460  17.563  0.00  0.00    +0.000 A 
ATOM     13  C   UNL     1       4.408   3.085  18.815  0.00  0.00    +0.000 A 
ATOM     14  C   UNL     1       3.597   2.449  19.757  0.00  0.00    +0.000 A 
ATOM     15  C   UNL     1       2.267   2.166  19.457  0.00  0.00    +0.000 A 
ATOM     16  C   UNL     1       1.754   2.495  18.206  0.00  0.00    +0.000 A 
ATOM     17  C   UNL     1       2.562   3.134  17.264  0.00  0.00    +0.000 A 
ENDBRANCH  10  12
ENDBRANCH   2   5
BRANCH   1  20
ATOM     18  C   UNL     1       1.909   6.383  20.421  0.00  0.00    +0.000 C 
ATOM     19  C   UNL     1       2.090   7.558  19.474  0.00  0.00    +0.000 C 
ATOM     20  N   UNL     1       2.868   7.569  18.431  0.00  0.00    +0.000 NA
BRANCH  19  21
ATOM     21  C   UNL     1       1.277   8.783  19.774  0.00  0.00    +0.000 A 
ATOM     22  C   UNL     1       1.071   9.741  18.771  0.00  0.00    +0.000 A 
ATOM     23  C   UNL     1       0.299  10.876  19.024  0.00  0.00    +0.000 A 
ATOM     24  C   UNL     1      -0.264  11.073  20.285  0.00  0.00    +0.000 A 
ATOM     25  C   UNL     1      -0.046  10.128  21.288  0.00  0.00    +0.000 A 
ATOM     26 BR   UNL     1      -0.792  10.401  23.005  0.00  0.00    +0.000 Br
ATOM     27  C   UNL     1       0.718   8.985  21.041  0.00  0.00    +0.000 A 
ENDBRANCH  19  21
ENDBRANCH   1  20
TORSDOF 4
ENDMDL
MODEL 9
REMARK VINA RESULT:      -7.9      5.710      8.003
REMARK  Name = 
REMARK  5 active torsions:
REMARK  status: ('A' for Active; 'I' for Inactive)
REMARK    1  A    between atoms: C_1  and  C_2
REMARK    2  A    between atoms: C_2  and  C_19
REMARK    3  A    between atoms: N_3  and  N_4
REMARK    4  A    between atoms: C_5  and  C_7
REMARK    5  A    between atoms: C_12  and  C_13
REMARK                            x       y       z     vdW  Elec       q    Type
REMARK                         _______ _______ _______ _____ _____    ______ ____
ROOT
ATOM      1  N   UNL     1       1.370   9.238  19.609  0.00  0.00    +0.000 N 
ATOM      2  C   UNL     1       0.249   9.761  20.256  0.00  0.00    +0.000 C 
ATOM      3  O   UNL     1      -0.479   9.130  21.018  0.00  0.00    +0.000 OA
ATOM      4  H   UNL     1       2.039   9.889  19.206  0.00  0.00    +0.000 HD
ENDROOT
BRANCH   2   5
ATOM      5  C   UNL     1      -0.046  11.192  19.840  0.00  0.00    +0.000 C 
ATOM      6  C   UNL     1       0.515  12.215  20.792  0.00  0.00    +0.000 C 
ATOM      7  O   UNL     1       1.637  12.202  21.271  0.00  0.00    +0.000 OA
ATOM      8  N   UNL     1      -0.407  13.223  20.965  0.00  0.00    +0.000 N 
ATOM      9  C   UNL     1      -1.563  13.049  20.138  0.00  0.00    +0.000 C 
ATOM     10  C   UNL     1      -1.550  11.553  19.814  0.00  0.00    +0.000 C 
ATOM     11  H   UNL     1      -0.179  14.056  21.497  0.00  0.00    +0.000 HD
BRANCH  10  12
ATOM     12  C   UNL     1      -2.234  11.190  18.513  0.00  0.00    +0.000 A 
ATOM     13  C   UNL     1      -1.641  10.334  17.572  0.00  0.00    +0.000 A 
ATOM     14  C   UNL     1      -2.347   9.920  16.440  0.00  0.00    +0.000 A 
ATOM     15  C   UNL     1      -3.647  10.368  16.226  0.00  0.00    +0.000 A 
ATOM     16  C   UNL     1      -4.235  11.250  17.129  0.00  0.00    +0.000 A 
ATOM     17  C   UNL     1      -3.531  11.661  18.263  0.00  0.00    +0.000 A 
ENDBRANCH  10  12
ENDBRANCH   2   5
BRANCH   1  20
ATOM     18  C   UNL     1       3.023   7.920  17.675  0.00  0.00    +0.000 C 
ATOM     19  C   UNL     1       2.529   7.337  18.989  0.00  0.00    +0.000 C 
ATOM     20  N   UNL     1       1.751   7.947  19.835  0.00  0.00    +0.000 NA
BRANCH  19  21
ATOM     21  C   UNL     1       2.968   5.936  19.300  0.00  0.00    +0.000 A 
ATOM     22  C   UNL     1       4.168   5.449  18.760  0.00  0.00    +0.000 A 
ATOM     23  C   UNL     1       4.604   4.157  19.055  0.00  0.00    +0.000 A 
ATOM     24  C   UNL     1       3.840   3.332  19.881  0.00  0.00    +0.000 A 
ATOM     25  C   UNL     1       2.638   3.809  20.404  0.00  0.00    +0.000 A 
ATOM     26 BR   UNL     1       1.590   2.686  21.509  0.00  0.00    +0.000 Br
ATOM     27  C   UNL     1       2.199   5.104  20.122  0.00  0.00    +0.000 A 
ENDBRANCH  19  21
ENDBRANCH   1  20
TORSDOF 4
ENDMDL
