MODEL 1
REMARK VINA RESULT:      -7.0      0.000      0.000
REMARK  Name = 
REMARK  6 active torsions:
REMARK  status: ('A' for Active; 'I' for Inactive)
REMARK    1  A    between atoms: C_1  and  C_2
REMARK    2  A    between atoms: C_2  and  O_3
REMARK    3  A    between atoms: O_3  and  C_4
REMARK    4  A    between atoms: C_4  and  C_6
REMARK    5  A    between atoms: C_7  and  N_8
REMARK    6  A    between atoms: C_21  and  C_22
REMARK                            x       y       z     vdW  Elec       q    Type
REMARK                         _______ _______ _______ _____ _____    ______ ____
ROOT
ATOM      1  C   UNL     1       0.992  12.217  19.132  0.00  0.00    +0.000 C 
ATOM      2  C   UNL     1       1.895  11.780  18.228  0.00  0.00    +0.000 C 
ATOM      3  O   UNL     1       2.126  10.409  18.056  0.00  0.00    +0.000 OA
ATOM      4  C   UNL     1       1.652   9.515  19.010  0.00  0.00    +0.000 A 
ATOM      5  C   UNL     1       0.750   9.874  19.936  0.00  0.00    +0.000 A 
ATOM      6  C   UNL     1       0.360   8.943  21.021  0.00  0.00    +0.000 A 
ATOM      7  O   UNL     1      -0.405   9.275  21.921  0.00  0.00    +0.000 OA
ATOM      8  N   UNL     1       0.918   7.697  20.991  0.00  0.00    +0.000 N 
ATOM      9  C   UNL     1       1.790   7.258  19.990  0.00  0.00    +0.000 A 
ATOM     10  C   UNL     1       2.251   5.944  20.023  0.00  0.00    +0.000 A 
ATOM     11  C   UNL     1       3.085   5.487  19.010  0.00  0.00    +0.000 A 
ATOM     12  C   UNL     1       3.457   6.341  17.969  0.00  0.00    +0.000 A 
ATOM     13  C   UNL     1       3.007   7.666  17.950  0.00  0.00    +0.000 A 
ATOM     14  C   UNL     1       2.170   8.141  18.965  0.00  0.00    +0.000 A 
ATOM     15  C   UNL     1       0.158  11.252  19.952  0.00  0.00    +0.000 C 
ATOM     16  H   UNL     1       0.645   7.078  21.743  0.00  0.00    +0.000 HD
ENDROOT
BRANCH  15  17
ATOM     17  C   UNL     1      -1.289  11.257  19.437  0.00  0.00    +0.000 A 
ATOM     18  C   UNL     1      -1.682  10.485  18.326  0.00  0.00    +0.000 A 
ATOM     19  C   UNL     1      -2.980  10.573  17.817  0.00  0.00    +0.000 A 
ATOM     20  C   UNL     1      -3.903  11.433  18.407  0.00  0.00    +0.000 A 
ATOM     21  C   UNL     1      -3.531  12.190  19.514  0.00  0.00    +0.000 A 
ATOM     22 CL   UNL     1      -4.668  13.264  20.232  0.00  0.00    +0.000 Cl
ATOM     23  C   UNL     1      -2.238  12.103  20.032  0.00  0.00    +0.000 A 
ENDBRANCH  15  17
BRANCH   2  24
ATOM     24  N   UNL     1       2.642  12.569  17.384  0.00  0.00    +0.000 N 
ATOM     25  H   UNL     1       3.120  13.327  17.875  0.00  0.00    +0.000 HD
ATOM     26  H   UNL     1       2.095  12.899  16.595  0.00  0.00    +0.000 HD
ENDBRANCH   2  24
BRANCH   1  27
ATOM     27  C   UNL     1       0.672  13.638  19.411  0.00  0.00    +0.000 C 
ATOM     28  O   UNL     1       0.221  14.397  18.564  0.00  0.00    +0.000 OA
BRANCH  27  29
ATOM     29  O   UNL     1       1.118  14.003  20.639  0.00  0.00    +0.000 OA
BRANCH  29  31
ATOM     30  C   UNL     1      -0.340  14.053  22.515  0.00  0.00    +0.000 C 
ATOM     31  C   UNL     1       0.228  14.864  21.364  0.00  0.00    +0.000 C 
ENDBRANCH  29  31
ENDBRANCH  27  29
ENDBRANCH   1  27
TORSDOF 5
ENDMDL
MODEL 2
REMARK VINA RESULT:      -7.0      1.276      1.657
REMARK  Name = 
REMARK  6 active torsions:
REMARK  status: ('A' for Active; 'I' for Inactive)
REMARK    1  A    between atoms: C_1  and  C_2
REMARK    2  A    between atoms: C_2  and  O_3
REMARK    3  A    between atoms: O_3  and  C_4
REMARK    4  A    between atoms: C_4  and  C_6
REMARK    5  A    between atoms: C_7  and  N_8
REMARK    6  A    between atoms: C_21  and  C_22
REMARK                            x       y       z     vdW  Elec       q    Type
REMARK                         _______ _______ _______ _____ _____    ______ ____
ROOT
ATOM      1  C   UNL     1       1.402  12.594  19.647  0.00  0.00    +0.000 C 
ATOM      2  C   UNL     1       1.881  12.037  18.514  0.00  0.00    +0.000 C 
ATOM      3  O   UNL     1       1.846  10.649  18.332  0.00  0.00    +0.000 OA
ATOM      4  C   UNL     1       1.596   9.825  19.423  0.00  0.00    +0.000 A 
ATOM      5  C   UNL     1       1.113  10.305  20.581  0.00  0.00    +0.000 A 
ATOM      6  C   UNL     1       0.980   9.431  21.770  0.00  0.00    +0.000 A 
ATOM      7  O   UNL     1       0.613   9.864  22.858  0.00  0.00    +0.000 OA
ATOM      8  N   UNL     1       1.314   8.118  21.608  0.00  0.00    +0.000 N 
ATOM      9  C   UNL     1       1.732   7.565  20.394  0.00  0.00    +0.000 A 
ATOM     10  C   UNL     1       1.987   6.197  20.326  0.00  0.00    +0.000 A 
ATOM     11  C   UNL     1       2.363   5.632  19.113  0.00  0.00    +0.000 A 
ATOM     12  C   UNL     1       2.484   6.431  17.974  0.00  0.00    +0.000 A 
ATOM     13  C   UNL     1       2.245   7.808  18.051  0.00  0.00    +0.000 A 
ATOM     14  C   UNL     1       1.870   8.391  19.266  0.00  0.00    +0.000 A 
ATOM     15  C   UNL     1       0.761  11.754  20.735  0.00  0.00    +0.000 C 
ATOM     16  H   UNL     1       1.222   7.538  22.432  0.00  0.00    +0.000 HD
ENDROOT
BRANCH  15  17
ATOM     17  C   UNL     1      -0.759  11.976  20.728  0.00  0.00    +0.000 A 
ATOM     18  C   UNL     1      -1.515  11.885  19.542  0.00  0.00    +0.000 A 
ATOM     19  C   UNL     1      -2.880  12.179  19.540  0.00  0.00    +0.000 A 
ATOM     20  C   UNL     1      -3.511  12.571  20.718  0.00  0.00    +0.000 A 
ATOM     21  C   UNL     1      -2.777  12.651  21.899  0.00  0.00    +0.000 A 
ATOM     22 CL   UNL     1      -3.554  13.150  23.351  0.00  0.00    +0.000 Cl
ATOM     23  C   UNL     1      -1.414  12.352  21.911  0.00  0.00    +0.000 A 
ENDBRANCH  15  17
BRANCH   2  24
ATOM     24  N   UNL     1       2.408  12.716  17.440  0.00  0.00    +0.000 N 
ATOM     25  H   UNL     1       2.879  13.580  17.713  0.00  0.00    +0.000 HD
ATOM     26  H   UNL     1       1.717  12.862  16.710  0.00  0.00    +0.000 HD
ENDBRANCH   2  24
BRANCH   1  27
ATOM     27  C   UNL     1       1.397  14.044  19.959  0.00  0.00    +0.000 C 
ATOM     28  O   UNL     1       1.856  14.504  20.995  0.00  0.00    +0.000 OA
BRANCH  27  29
ATOM     29  O   UNL     1       0.661  14.732  19.050  0.00  0.00    +0.000 OA
BRANCH  29  31
ATOM     30  C   UNL     1      -1.252  15.661  20.110  0.00  0.00    +0.000 C 
ATOM     31  C   UNL     1       0.120  15.969  19.536  0.00  0.00    +0.000 C 
ENDBRANCH  29  31
ENDBRANCH  27  29
ENDBRANCH   1  27
TORSDOF 5
ENDMDL
MODEL 3
REMARK VINA RESULT:      -7.0      1.025      1.370
REMARK  Name = 
REMARK  6 active torsions:
REMARK  status: ('A' for Active; 'I' for Inactive)
REMARK    1  A    between atoms: C_1  and  C_2
REMARK    2  A    between atoms: C_2  and  O_3
REMARK    3  A    between atoms: O_3  and  C_4
REMARK    4  A    between atoms: C_4  and  C_6
REMARK    5  A    between atoms: C_7  and  N_8
REMARK    6  A    between atoms: C_21  and  C_22
REMARK                            x       y       z     vdW  Elec       q    Type
REMARK                         _______ _______ _______ _____ _____    ______ ____
ROOT
ATOM      1  C   UNL     1       1.068  12.450  19.209  0.00  0.00    +0.000 C 
ATOM      2  C   UNL     1       1.930  11.915  18.318  0.00  0.00    +0.000 C 
ATOM      3  O   UNL     1       2.064  10.525  18.201  0.00  0.00    +0.000 OA
ATOM      4  C   UNL     1       1.536   9.705  19.191  0.00  0.00    +0.000 A 
ATOM      5  C   UNL     1       0.668  10.163  20.108  0.00  0.00    +0.000 A 
ATOM      6  C   UNL     1       0.223   9.306  21.231  0.00  0.00    +0.000 A 
ATOM      7  O   UNL     1      -0.510   9.726  22.120  0.00  0.00    +0.000 OA
ATOM      8  N   UNL     1       0.692   8.024  21.248  0.00  0.00    +0.000 N 
ATOM      9  C   UNL     1       1.523   7.485  20.260  0.00  0.00    +0.000 A 
ATOM     10  C   UNL     1       1.892   6.144  20.344  0.00  0.00    +0.000 A 
ATOM     11  C   UNL     1       2.683   5.591  19.345  0.00  0.00    +0.000 A 
ATOM     12  C   UNL     1       3.106   6.374  18.269  0.00  0.00    +0.000 A 
ATOM     13  C   UNL     1       2.750   7.726  18.199  0.00  0.00    +0.000 A 
ATOM     14  C   UNL     1       1.956   8.298  19.199  0.00  0.00    +0.000 A 
ATOM     15  C   UNL     1       0.174  11.579  20.071  0.00  0.00    +0.000 C 
ATOM     16  H   UNL     1       0.383   7.455  22.025  0.00  0.00    +0.000 HD
ENDROOT
BRANCH  15  17
ATOM     17  C   UNL     1      -1.273  11.665  19.563  0.00  0.00    +0.000 A 
ATOM     18  C   UNL     1      -2.265  12.370  20.273  0.00  0.00    +0.000 A 
ATOM     19  C   UNL     1      -3.594  12.361  19.844  0.00  0.00    +0.000 A 
ATOM     20  C   UNL     1      -3.954  11.647  18.703  0.00  0.00    +0.000 A 
ATOM     21  C   UNL     1      -2.980  10.957  17.986  0.00  0.00    +0.000 A 
ATOM     22 CL   UNL     1      -3.428  10.063  16.586  0.00  0.00    +0.000 Cl
ATOM     23  C   UNL     1      -1.648  10.967  18.405  0.00  0.00    +0.000 A 
ENDBRANCH  15  17
BRANCH   2  24
ATOM     24  N   UNL     1       2.724  12.616  17.440  0.00  0.00    +0.000 N 
ATOM     25  H   UNL     1       2.272  13.462  17.091  0.00  0.00    +0.000 HD
ATOM     26  H   UNL     1       3.072  12.023  16.692  0.00  0.00    +0.000 HD
ENDBRANCH   2  24
BRANCH   1  27
ATOM     27  C   UNL     1       0.849  13.900  19.432  0.00  0.00    +0.000 C 
ATOM     28  O   UNL     1       0.364  14.638  18.586  0.00  0.00    +0.000 OA
BRANCH  27  29
ATOM     29  O   UNL     1       1.426  14.304  20.592  0.00  0.00    +0.000 OA
BRANCH  29  31
ATOM     30  C   UNL     1      -0.088  14.496  22.415  0.00  0.00    +0.000 C 
ATOM     31  C   UNL     1       0.659  15.261  21.336  0.00  0.00    +0.000 C 
ENDBRANCH  29  31
ENDBRANCH  27  29
ENDBRANCH   1  27
TORSDOF 5
ENDMDL
MODEL 4
REMARK VINA RESULT:      -6.9      1.342      1.907
REMARK  Name = 
REMARK  6 active torsions:
REMARK  status: ('A' for Active; 'I' for Inactive)
REMARK    1  A    between atoms: C_1  and  C_2
REMARK    2  A    between atoms: C_2  and  O_3
REMARK    3  A    between atoms: O_3  and  C_4
REMARK    4  A    between atoms: C_4  and  C_6
REMARK    5  A    between atoms: C_7  and  N_8
REMARK    6  A    between atoms: C_21  and  C_22
REMARK                            x       y       z     vdW  Elec       q    Type
REMARK                         _______ _______ _______ _____ _____    ______ ____
ROOT
ATOM      1  C   UNL     1       1.158  12.710  19.415  0.00  0.00    +0.000 C 
ATOM      2  C   UNL     1       1.868  12.131  18.424  0.00  0.00    +0.000 C 
ATOM      3  O   UNL     1       1.906  10.736  18.293  0.00  0.00    +0.000 OA
ATOM      4  C   UNL     1       1.462   9.943  19.344  0.00  0.00    +0.000 A 
ATOM      5  C   UNL     1       0.745  10.445  20.362  0.00  0.00    +0.000 A 
ATOM      6  C   UNL     1       0.398   9.608  21.535  0.00  0.00    +0.000 A 
ATOM      7  O   UNL     1      -0.191  10.065  22.509  0.00  0.00    +0.000 OA
ATOM      8  N   UNL     1       0.791   8.301  21.495  0.00  0.00    +0.000 N 
ATOM      9  C   UNL     1       1.458   7.722  20.411  0.00  0.00    +0.000 A 
ATOM     10  C   UNL     1       1.756   6.361  20.450  0.00  0.00    +0.000 A 
ATOM     11  C   UNL     1       2.382   5.768  19.360  0.00  0.00    +0.000 A 
ATOM     12  C   UNL     1       2.709   6.532  18.238  0.00  0.00    +0.000 A 
ATOM     13  C   UNL     1       2.425   7.902  18.211  0.00  0.00    +0.000 A 
ATOM     14  C   UNL     1       1.798   8.513  19.302  0.00  0.00    +0.000 A 
ATOM     15  C   UNL     1       0.333  11.887  20.385  0.00  0.00    +0.000 C 
ATOM     16  H   UNL     1       0.550   7.748  22.306  0.00  0.00    +0.000 HD
ENDROOT
BRANCH  15  17
ATOM     17  C   UNL     1      -1.160  12.058  20.066  0.00  0.00    +0.000 A 
ATOM     18  C   UNL     1      -2.047  12.667  20.975  0.00  0.00    +0.000 A 
ATOM     19  C   UNL     1      -3.415  12.733  20.705  0.00  0.00    +0.000 A 
ATOM     20  C   UNL     1      -3.920  12.188  19.527  0.00  0.00    +0.000 A 
ATOM     21  C   UNL     1      -3.052  11.595  18.614  0.00  0.00    +0.000 A 
ATOM     22 CL   UNL     1      -3.679  10.909  17.166  0.00  0.00    +0.000 Cl
ATOM     23  C   UNL     1      -1.682  11.532  18.873  0.00  0.00    +0.000 A 
ENDBRANCH  15  17
BRANCH   2  24
ATOM     24  N   UNL     1       2.583  12.789  17.450  0.00  0.00    +0.000 N 
ATOM     25  H   UNL     1       2.656  12.252  16.584  0.00  0.00    +0.000 HD
ATOM     26  H   UNL     1       3.488  13.100  17.792  0.00  0.00    +0.000 HD
ENDBRANCH   2  24
BRANCH   1  27
ATOM     27  C   UNL     1       1.053  14.168  19.662  0.00  0.00    +0.000 C 
ATOM     28  O   UNL     1       1.304  14.680  20.744  0.00  0.00    +0.000 OA
BRANCH  27  29
ATOM     29  O   UNL     1       0.473  14.797  18.608  0.00  0.00    +0.000 OA
BRANCH  29  31
ATOM     30  C   UNL     1      -0.137  17.053  18.176  0.00  0.00    +0.000 C 
ATOM     31  C   UNL     1      -0.482  15.805  18.969  0.00  0.00    +0.000 C 
ENDBRANCH  29  31
ENDBRANCH  27  29
ENDBRANCH   1  27
TORSDOF 5
ENDMDL
MODEL 5
REMARK VINA RESULT:      -6.8      2.027      2.725
REMARK  Name = 
REMARK  6 active torsions:
REMARK  status: ('A' for Active; 'I' for Inactive)
REMARK    1  A    between atoms: C_1  and  C_2
REMARK    2  A    between atoms: C_2  and  O_3
REMARK    3  A    between atoms: O_3  and  C_4
REMARK    4  A    between atoms: C_4  and  C_6
REMARK    5  A    between atoms: C_7  and  N_8
REMARK    6  A    between atoms: C_21  and  C_22
REMARK                            x       y       z     vdW  Elec       q    Type
REMARK                         _______ _______ _______ _____ _____    ______ ____
ROOT
ATOM      1  C   UNL     1       0.311  13.641  21.016  0.00  0.00    +0.000 C 
ATOM      2  C   UNL     1       0.846  13.470  19.788  0.00  0.00    +0.000 C 
ATOM      3  O   UNL     1       1.003  12.185  19.251  0.00  0.00    +0.000 OA
ATOM      4  C   UNL     1       0.886  11.080  20.085  0.00  0.00    +0.000 A 
ATOM      5  C   UNL     1       0.359  11.170  21.317  0.00  0.00    +0.000 A 
ATOM      6  C   UNL     1       0.366  10.007  22.235  0.00  0.00    +0.000 A 
ATOM      7  O   UNL     1      -0.042  10.087  23.389  0.00  0.00    +0.000 OA
ATOM      8  N   UNL     1       0.878   8.840  21.745  0.00  0.00    +0.000 N 
ATOM      9  C   UNL     1       1.351   8.686  20.438  0.00  0.00    +0.000 A 
ATOM     10  C   UNL     1       1.794   7.432  20.023  0.00  0.00    +0.000 A 
ATOM     11  C   UNL     1       2.227   7.260  18.714  0.00  0.00    +0.000 A 
ATOM     12  C   UNL     1       2.219   8.336  17.825  0.00  0.00    +0.000 A 
ATOM     13  C   UNL     1       1.791   9.599  18.251  0.00  0.00    +0.000 A 
ATOM     14  C   UNL     1       1.356   9.788  19.567  0.00  0.00    +0.000 A 
ATOM     15  C   UNL     1      -0.190  12.466  21.834  0.00  0.00    +0.000 C 
ATOM     16  H   UNL     1       0.880   8.060  22.388  0.00  0.00    +0.000 HD
ENDROOT
BRANCH  15  17
ATOM     17  C   UNL     1      -1.726  12.469  21.851  0.00  0.00    +0.000 A 
ATOM     18  C   UNL     1      -2.479  12.538  20.662  0.00  0.00    +0.000 A 
ATOM     19  C   UNL     1      -3.872  12.631  20.702  0.00  0.00    +0.000 A 
ATOM     20  C   UNL     1      -4.534  12.660  21.927  0.00  0.00    +0.000 A 
ATOM     21  C   UNL     1      -3.802  12.579  23.109  0.00  0.00    +0.000 A 
ATOM     22 CL   UNL     1      -4.619  12.631  24.622  0.00  0.00    +0.000 Cl
ATOM     23  C   UNL     1      -2.410  12.479  23.077  0.00  0.00    +0.000 A 
ENDBRANCH  15  17
BRANCH   2  24
ATOM     24  N   UNL     1       1.258  14.470  18.939  0.00  0.00    +0.000 N 
ATOM     25  H   UNL     1       1.429  15.353  19.425  0.00  0.00    +0.000 HD
ATOM     26  H   UNL     1       0.629  14.576  18.149  0.00  0.00    +0.000 HD
ENDBRANCH   2  24
BRANCH   1  27
ATOM     27  C   UNL     1       0.108  14.944  21.693  0.00  0.00    +0.000 C 
ATOM     28  O   UNL     1       0.505  15.174  22.827  0.00  0.00    +0.000 OA
BRANCH  27  29
ATOM     29  O   UNL     1      -0.722  15.740  20.973  0.00  0.00    +0.000 OA
BRANCH  29  31
ATOM     30  C   UNL     1      -2.904  16.075  21.851  0.00  0.00    +0.000 C 
ATOM     31  C   UNL     1      -1.503  16.652  21.758  0.00  0.00    +0.000 C 
ENDBRANCH  29  31
ENDBRANCH  27  29
ENDBRANCH   1  27
TORSDOF 5
ENDMDL
MODEL 6
REMARK VINA RESULT:      -6.7      3.035      6.191
REMARK  Name = 
REMARK  6 active torsions:
REMARK  status: ('A' for Active; 'I' for Inactive)
REMARK    1  A    between atoms: C_1  and  C_2
REMARK    2  A    between atoms: C_2  and  O_3
REMARK    3  A    between atoms: O_3  and  C_4
REMARK    4  A    between atoms: C_4  and  C_6
REMARK    5  A    between atoms: C_7  and  N_8
REMARK    6  A    between atoms: C_21  and  C_22
REMARK                            x       y       z     vdW  Elec       q    Type
REMARK                         _______ _______ _______ _____ _____    ______ ____
ROOT
ATOM      1  C   UNL     1      -0.071  12.833  19.308  0.00  0.00    +0.000 C 
ATOM      2  C   UNL     1      -0.920  13.506  20.114  0.00  0.00    +0.000 C 
ATOM      3  O   UNL     1      -2.254  13.100  20.244  0.00  0.00    +0.000 OA
ATOM      4  C   UNL     1      -2.782  12.195  19.331  0.00  0.00    +0.000 A 
ATOM      5  C   UNL     1      -2.002  11.483  18.501  0.00  0.00    +0.000 A 
ATOM      6  C   UNL     1      -2.593  10.626  17.448  0.00  0.00    +0.000 A 
ATOM      7  O   UNL     1      -1.901  10.026  16.631  0.00  0.00    +0.000 OA
ATOM      8  N   UNL     1      -3.956  10.554  17.407  0.00  0.00    +0.000 N 
ATOM      9  C   UNL     1      -4.797  11.208  18.313  0.00  0.00    +0.000 A 
ATOM     10  C   UNL     1      -6.173  11.014  18.217  0.00  0.00    +0.000 A 
ATOM     11  C   UNL     1      -7.014  11.627  19.139  0.00  0.00    +0.000 A 
ATOM     12  C   UNL     1      -6.481  12.431  20.149  0.00  0.00    +0.000 A 
ATOM     13  C   UNL     1      -5.099  12.638  20.229  0.00  0.00    +0.000 A 
ATOM     14  C   UNL     1      -4.241  12.030  19.307  0.00  0.00    +0.000 A 
ATOM     15  C   UNL     1      -0.507  11.586  18.561  0.00  0.00    +0.000 C 
ATOM     16  H   UNL     1      -4.341   9.969  16.678  0.00  0.00    +0.000 HD
ENDROOT
BRANCH  15  17
ATOM     17  C   UNL     1       0.125  10.348  19.215  0.00  0.00    +0.000 A 
ATOM     18  C   UNL     1      -0.142  10.001  20.554  0.00  0.00    +0.000 A 
ATOM     19  C   UNL     1       0.511   8.924  21.158  0.00  0.00    +0.000 A 
ATOM     20  C   UNL     1       1.442   8.180  20.436  0.00  0.00    +0.000 A 
ATOM     21  C   UNL     1       1.704   8.505  19.107  0.00  0.00    +0.000 A 
ATOM     22 CL   UNL     1       2.865   7.595  18.222  0.00  0.00    +0.000 Cl
ATOM     23  C   UNL     1       1.050   9.575  18.495  0.00  0.00    +0.000 A 
ENDBRANCH  15  17
BRANCH   2  24
ATOM     24  N   UNL     1      -0.603  14.597  20.891  0.00  0.00    +0.000 N 
ATOM     25  H   UNL     1      -1.274  14.750  21.646  0.00  0.00    +0.000 HD
ATOM     26  H   UNL     1      -0.453  15.429  20.328  0.00  0.00    +0.000 HD
ENDBRANCH   2  24
BRANCH   1  27
ATOM     27  C   UNL     1       1.354  13.174  19.080  0.00  0.00    +0.000 C 
ATOM     28  O   UNL     1       1.850  13.247  17.964  0.00  0.00    +0.000 OA
BRANCH  27  29
ATOM     29  O   UNL     1       2.040  13.198  20.250  0.00  0.00    +0.000 OA
BRANCH  29  31
ATOM     30  C   UNL     1       3.160  14.719  21.692  0.00  0.00    +0.000 C 
ATOM     31  C   UNL     1       3.119  14.142  20.288  0.00  0.00    +0.000 C 
ENDBRANCH  29  31
ENDBRANCH  27  29
ENDBRANCH   1  27
TORSDOF 5
ENDMDL
MODEL 7
REMARK VINA RESULT:      -6.7      1.561      1.867
REMARK  Name = 
REMARK  6 active torsions:
REMARK  status: ('A' for Active; 'I' for Inactive)
REMARK    1  A    between atoms: C_1  and  C_2
REMARK    2  A    between atoms: C_2  and  O_3
REMARK    3  A    between atoms: O_3  and  C_4
REMARK    4  A    between atoms: C_4  and  C_6
REMARK    5  A    between atoms: C_7  and  N_8
REMARK    6  A    between atoms: C_21  and  C_22
REMARK                            x       y       z     vdW  Elec       q    Type
REMARK                         _______ _______ _______ _____ _____    ______ ____
ROOT
ATOM      1  C   UNL     1       1.335  12.698  19.741  0.00  0.00    +0.000 C 
ATOM      2  C   UNL     1       1.807  12.140  18.606  0.00  0.00    +0.000 C 
ATOM      3  O   UNL     1       1.776  10.751  18.427  0.00  0.00    +0.000 OA
ATOM      4  C   UNL     1       1.537   9.930  19.522  0.00  0.00    +0.000 A 
ATOM      5  C   UNL     1       1.062  10.410  20.682  0.00  0.00    +0.000 A 
ATOM      6  C   UNL     1       0.941   9.539  21.875  0.00  0.00    +0.000 A 
ATOM      7  O   UNL     1       0.581   9.973  22.964  0.00  0.00    +0.000 OA
ATOM      8  N   UNL     1       1.280   8.226  21.714  0.00  0.00    +0.000 N 
ATOM      9  C   UNL     1       1.690   7.672  20.497  0.00  0.00    +0.000 A 
ATOM     10  C   UNL     1       1.951   6.305  20.431  0.00  0.00    +0.000 A 
ATOM     11  C   UNL     1       2.319   5.739  19.217  0.00  0.00    +0.000 A 
ATOM     12  C   UNL     1       2.428   6.535  18.075  0.00  0.00    +0.000 A 
ATOM     13  C   UNL     1       2.184   7.911  18.150  0.00  0.00    +0.000 A 
ATOM     14  C   UNL     1       1.816   8.496  19.367  0.00  0.00    +0.000 A 
ATOM     15  C   UNL     1       0.705  11.859  20.835  0.00  0.00    +0.000 C 
ATOM     16  H   UNL     1       1.196   7.649  22.540  0.00  0.00    +0.000 HD
ENDROOT
BRANCH  15  17
ATOM     17  C   UNL     1      -0.816  12.074  20.839  0.00  0.00    +0.000 A 
ATOM     18  C   UNL     1      -1.581  11.970  19.661  0.00  0.00    +0.000 A 
ATOM     19  C   UNL     1      -2.948  12.259  19.668  0.00  0.00    +0.000 A 
ATOM     20  C   UNL     1      -3.570  12.658  20.848  0.00  0.00    +0.000 A 
ATOM     21  C   UNL     1      -2.827  12.751  22.022  0.00  0.00    +0.000 A 
ATOM     22 CL   UNL     1      -3.593  13.259  23.476  0.00  0.00    +0.000 Cl
ATOM     23  C   UNL     1      -1.462  12.458  22.025  0.00  0.00    +0.000 A 
ENDBRANCH  15  17
BRANCH   2  24
ATOM     24  N   UNL     1       2.323  12.818  17.525  0.00  0.00    +0.000 N 
ATOM     25  H   UNL     1       3.345  12.829  17.520  0.00  0.00    +0.000 HD
ATOM     26  H   UNL     1       1.923  13.747  17.437  0.00  0.00    +0.000 HD
ENDBRANCH   2  24
BRANCH   1  27
ATOM     27  C   UNL     1       1.326  14.149  20.049  0.00  0.00    +0.000 C 
ATOM     28  O   UNL     1       0.888  14.990  19.276  0.00  0.00    +0.000 OA
BRANCH  27  29
ATOM     29  O   UNL     1       2.025  14.408  21.182  0.00  0.00    +0.000 OA
BRANCH  29  31
ATOM     30  C   UNL     1       4.075  15.246  20.319  0.00  0.00    +0.000 C 
ATOM     31  C   UNL     1       3.426  14.114  21.097  0.00  0.00    +0.000 C 
ENDBRANCH  29  31
ENDBRANCH  27  29
ENDBRANCH   1  27
TORSDOF 5
ENDMDL
MODEL 8
REMARK VINA RESULT:      -6.7      2.220      3.082
REMARK  Name = 
REMARK  6 active torsions:
REMARK  status: ('A' for Active; 'I' for Inactive)
REMARK    1  A    between atoms: C_1  and  C_2
REMARK    2  A    between atoms: C_2  and  O_3
REMARK    3  A    between atoms: O_3  and  C_4
REMARK    4  A    between atoms: C_4  and  C_6
REMARK    5  A    between atoms: C_7  and  N_8
REMARK    6  A    between atoms: C_21  and  C_22
REMARK                            x       y       z     vdW  Elec       q    Type
REMARK                         _______ _______ _______ _____ _____    ______ ____
ROOT
ATOM      1  C   UNL     1      -0.094  13.984  21.270  0.00  0.00    +0.000 C 
ATOM      2  C   UNL     1       0.434  13.905  20.030  0.00  0.00    +0.000 C 
ATOM      3  O   UNL     1       0.649  12.660  19.424  0.00  0.00    +0.000 OA
ATOM      4  C   UNL     1       0.599  11.508  20.201  0.00  0.00    +0.000 A 
ATOM      5  C   UNL     1       0.084  11.507  21.441  0.00  0.00    +0.000 A 
ATOM      6  C   UNL     1       0.162  10.301  22.298  0.00  0.00    +0.000 A 
ATOM      7  O   UNL     1      -0.234  10.300  23.458  0.00  0.00    +0.000 OA
ATOM      8  N   UNL     1       0.727   9.189  21.743  0.00  0.00    +0.000 N 
ATOM      9  C   UNL     1       1.191   9.127  20.425  0.00  0.00    +0.000 A 
ATOM     10  C   UNL     1       1.693   7.920  19.941  0.00  0.00    +0.000 A 
ATOM     11  C   UNL     1       2.117   7.838  18.620  0.00  0.00    +0.000 A 
ATOM     12  C   UNL     1       2.042   8.957  17.788  0.00  0.00    +0.000 A 
ATOM     13  C   UNL     1       1.556  10.172  18.284  0.00  0.00    +0.000 A 
ATOM     14  C   UNL     1       1.128  10.271  19.612  0.00  0.00    +0.000 A 
ATOM     15  C   UNL     1      -0.524  12.745  22.030  0.00  0.00    +0.000 C 
ATOM     16  H   UNL     1       0.778   8.378  22.344  0.00  0.00    +0.000 HD
ENDROOT
BRANCH  15  17
ATOM     17  C   UNL     1      -2.058  12.667  22.063  0.00  0.00    +0.000 A 
ATOM     18  C   UNL     1      -2.833  12.843  20.899  0.00  0.00    +0.000 A 
ATOM     19  C   UNL     1      -4.228  12.859  20.964  0.00  0.00    +0.000 A 
ATOM     20  C   UNL     1      -4.870  12.704  22.190  0.00  0.00    +0.000 A 
ATOM     21  C   UNL     1      -4.116  12.517  23.345  0.00  0.00    +0.000 A 
ATOM     22 CL   UNL     1      -4.910  12.341  24.861  0.00  0.00    +0.000 Cl
ATOM     23  C   UNL     1      -2.721  12.492  23.287  0.00  0.00    +0.000 A 
ENDBRANCH  15  17
BRANCH   2  24
ATOM     24  N   UNL     1       0.783  14.968  19.229  0.00  0.00    +0.000 N 
ATOM     25  H   UNL     1       1.289  14.679  18.390  0.00  0.00    +0.000 HD
ATOM     26  H   UNL     1       1.272  15.688  19.752  0.00  0.00    +0.000 HD
ENDBRANCH   2  24
BRANCH   1  27
ATOM     27  C   UNL     1      -0.355  15.239  22.016  0.00  0.00    +0.000 C 
ATOM     28  O   UNL     1      -0.631  16.296  21.465  0.00  0.00    +0.000 OA
BRANCH  27  29
ATOM     29  O   UNL     1      -0.062  15.090  23.332  0.00  0.00    +0.000 OA
BRANCH  29  31
ATOM     30  C   UNL     1      -1.505  15.345  25.204  0.00  0.00    +0.000 C 
ATOM     31  C   UNL     1      -0.648  16.081  24.188  0.00  0.00    +0.000 C 
ENDBRANCH  29  31
ENDBRANCH  27  29
ENDBRANCH   1  27
TORSDOF 5
ENDMDL
MODEL 9
REMARK VINA RESULT:      -6.6      3.058      6.259
REMARK  Name = 
REMARK  6 active torsions:
REMARK  status: ('A' for Active; 'I' for Inactive)
REMARK    1  A    between atoms: C_1  and  C_2
REMARK    2  A    between atoms: C_2  and  O_3
REMARK    3  A    between atoms: O_3  and  C_4
REMARK    4  A    between atoms: C_4  and  C_6
REMARK    5  A    between atoms: C_7  and  N_8
REMARK    6  A    between atoms: C_21  and  C_22
REMARK                            x       y       z     vdW  Elec       q    Type
REMARK                         _______ _______ _______ _____ _____    ______ ____
ROOT
ATOM      1  C   UNL     1      -0.068  12.789  19.930  0.00  0.00    +0.000 C 
ATOM      2  C   UNL     1      -1.001  13.507  20.590  0.00  0.00    +0.000 C 
ATOM      3  O   UNL     1      -2.354  13.150  20.526  0.00  0.00    +0.000 OA
ATOM      4  C   UNL     1      -2.773  12.244  19.558  0.00  0.00    +0.000 A 
ATOM      5  C   UNL     1      -1.906  11.490  18.865  0.00  0.00    +0.000 A 
ATOM      6  C   UNL     1      -2.365  10.631  17.749  0.00  0.00    +0.000 A 
ATOM      7  O   UNL     1      -1.582   9.992  17.054  0.00  0.00    +0.000 OA
ATOM      8  N   UNL     1      -3.708  10.606  17.506  0.00  0.00    +0.000 N 
ATOM      9  C   UNL     1      -4.650  11.306  18.267  0.00  0.00    +0.000 A 
ATOM     10  C   UNL     1      -6.003  11.158  17.970  0.00  0.00    +0.000 A 
ATOM     11  C   UNL     1      -6.948  11.818  18.746  0.00  0.00    +0.000 A 
ATOM     12  C   UNL     1      -6.542  12.623  19.812  0.00  0.00    +0.000 A 
ATOM     13  C   UNL     1      -5.181  12.785  20.095  0.00  0.00    +0.000 A 
ATOM     14  C   UNL     1      -4.218  12.130  19.319  0.00  0.00    +0.000 A 
ATOM     15  C   UNL     1      -0.433  11.543  19.146  0.00  0.00    +0.000 C 
ATOM     16  H   UNL     1      -4.003  10.019  16.737  0.00  0.00    +0.000 HD
ENDROOT
BRANCH  15  17
ATOM     17  C   UNL     1       0.048  10.297  19.906  0.00  0.00    +0.000 A 
ATOM     18  C   UNL     1      -0.338  10.047  21.237  0.00  0.00    +0.000 A 
ATOM     19  C   UNL     1       0.182   8.958  21.940  0.00  0.00    +0.000 A 
ATOM     20  C   UNL     1       1.096   8.105  21.327  0.00  0.00    +0.000 A 
ATOM     21  C   UNL     1       1.475   8.334  20.006  0.00  0.00    +0.000 A 
ATOM     22 CL   UNL     1       2.616   7.288  19.255  0.00  0.00    +0.000 Cl
ATOM     23  C   UNL     1       0.954   9.416  19.295  0.00  0.00    +0.000 A 
ENDBRANCH  15  17
BRANCH   2  24
ATOM     24  N   UNL     1      -0.764  14.602  21.389  0.00  0.00    +0.000 N 
ATOM     25  H   UNL     1      -1.369  14.628  22.211  0.00  0.00    +0.000 HD
ATOM     26  H   UNL     1      -0.790  15.468  20.858  0.00  0.00    +0.000 HD
ENDBRANCH   2  24
BRANCH   1  27
ATOM     27  C   UNL     1       1.387  13.076  19.912  0.00  0.00    +0.000 C 
ATOM     28  O   UNL     1       2.078  13.076  20.921  0.00  0.00    +0.000 OA
BRANCH  27  29
ATOM     29  O   UNL     1       1.779  13.514  18.689  0.00  0.00    +0.000 OA
BRANCH  29  31
ATOM     30  C   UNL     1       1.608  15.884  18.713  0.00  0.00    +0.000 C 
ATOM     31  C   UNL     1       2.571  14.710  18.710  0.00  0.00    +0.000 C 
ENDBRANCH  29  31
ENDBRANCH  27  29
ENDBRANCH   1  27
TORSDOF 5
ENDMDL
