MODEL 1
REMARK VINA RESULT:      -8.2      0.000      0.000
REMARK  Name = 
REMARK  6 active torsions:
REMARK  status: ('A' for Active; 'I' for Inactive)
REMARK    1  A    between atoms: C_1  and  N_2
REMARK    2  A    between atoms: C_3  and  C_4
REMARK    3  A    between atoms: N_6  and  C_7
REMARK    4  A    between atoms: C_7  and  C_8
REMARK    5  A    between atoms: C_8  and  C_9
REMARK    6  A    between atoms: C_9  and  C_10
REMARK                            x       y       z     vdW  Elec       q    Type
REMARK                         _______ _______ _______ _____ _____    ______ ____
ROOT
ATOM      1  C   UNL     1       5.392   6.459  17.031  0.00  0.00    +0.000 C 
ATOM      2  O   UNL     1       5.241   6.903  15.901  0.00  0.00    +0.000 OA
ATOM      3  N   UNL     1       6.584   6.608  17.734  0.00  0.00    +0.000 N 
ATOM      4  H   UNL     1       6.698   6.078  18.587  0.00  0.00    +0.000 HD
ENDROOT
BRANCH   1   7
ATOM      5  C   UNL     1       4.524   3.417  16.727  0.00  0.00    +0.000 C 
ATOM      6  N   UNL     1       3.962   4.420  17.613  0.00  0.00    +0.000 N 
ATOM      7  C   UNL     1       4.367   5.740  17.772  0.00  0.00    +0.000 A 
ATOM      8  C   UNL     1       3.537   6.263  18.758  0.00  0.00    +0.000 A 
ATOM      9  C   UNL     1       2.671   5.252  19.234  0.00  0.00    +0.000 A 
ATOM     10  C   UNL     1       1.674   5.216  20.226  0.00  0.00    +0.000 A 
ATOM     11  C   UNL     1       0.982   4.025  20.460  0.00  0.00    +0.000 A 
ATOM     12  C   UNL     1       1.260   2.888  19.708  0.00  0.00    +0.000 A 
ATOM     13  C   UNL     1       2.238   2.905  18.711  0.00  0.00    +0.000 A 
ATOM     14  C   UNL     1       2.942   4.107  18.496  0.00  0.00    +0.000 A 
ENDBRANCH   1   7
BRANCH   3  15
ATOM     15  C   UNL     1       7.708   7.392  17.252  0.00  0.00    +0.000 C 
BRANCH  15  16
ATOM     16  C   UNL     1       8.253   8.351  18.320  0.00  0.00    +0.000 C 
BRANCH  16  17
ATOM     17  C   UNL     1       8.340   9.803  17.822  0.00  0.00    +0.000 C 
BRANCH  17  18
ATOM     18  C   UNL     1       9.389  10.611  18.562  0.00  0.00    +0.000 A 
ATOM     19  C   UNL     1       9.337  10.722  19.959  0.00  0.00    +0.000 A 
ATOM     20  C   UNL     1      10.282  11.484  20.651  0.00  0.00    +0.000 A 
ATOM     21  C   UNL     1      11.291  12.146  19.957  0.00  0.00    +0.000 A 
ATOM     22  C   UNL     1      11.363  12.037  18.569  0.00  0.00    +0.000 A 
ATOM     23  C   UNL     1      10.416  11.274  17.874  0.00  0.00    +0.000 A 
ENDBRANCH  17  18
ENDBRANCH  16  17
ENDBRANCH  15  16
ENDBRANCH   3  15
TORSDOF 5
ENDMDL
MODEL 2
REMARK VINA RESULT:      -8.2      0.089      1.031
REMARK  Name = 
REMARK  6 active torsions:
REMARK  status: ('A' for Active; 'I' for Inactive)
REMARK    1  A    between atoms: C_1  and  N_2
REMARK    2  A    between atoms: C_3  and  C_4
REMARK    3  A    between atoms: N_6  and  C_7
REMARK    4  A    between atoms: C_7  and  C_8
REMARK    5  A    between atoms: C_8  and  C_9
REMARK    6  A    between atoms: C_9  and  C_10
REMARK                            x       y       z     vdW  Elec       q    Type
REMARK                         _______ _______ _______ _____ _____    ______ ____
ROOT
ATOM      1  C   UNL     1       5.387   6.486  17.102  0.00  0.00    +0.000 C 
ATOM      2  O   UNL     1       5.197   7.003  16.010  0.00  0.00    +0.000 OA
ATOM      3  N   UNL     1       6.616   6.555  17.752  0.00  0.00    +0.000 N 
ATOM      4  H   UNL     1       6.752   5.971  18.565  0.00  0.00    +0.000 HD
ENDROOT
BRANCH   1   7
ATOM      5  C   UNL     1       4.547   3.436  16.795  0.00  0.00    +0.000 C 
ATOM      6  N   UNL     1       3.983   4.430  17.688  0.00  0.00    +0.000 N 
ATOM      7  C   UNL     1       4.375   5.755  17.848  0.00  0.00    +0.000 A 
ATOM      8  C   UNL     1       3.548   6.266  18.843  0.00  0.00    +0.000 A 
ATOM      9  C   UNL     1       2.696   5.245  19.322  0.00  0.00    +0.000 A 
ATOM     10  C   UNL     1       1.707   5.195  20.322  0.00  0.00    +0.000 A 
ATOM     11  C   UNL     1       1.030   3.996  20.558  0.00  0.00    +0.000 A 
ATOM     12  C   UNL     1       1.312   2.864  19.800  0.00  0.00    +0.000 A 
ATOM     13  C   UNL     1       2.282   2.895  18.795  0.00  0.00    +0.000 A 
ATOM     14  C   UNL     1       2.972   4.104  18.579  0.00  0.00    +0.000 A 
ENDBRANCH   1   7
BRANCH   3  15
ATOM     15  C   UNL     1       7.741   7.333  17.263  0.00  0.00    +0.000 C 
BRANCH  15  16
ATOM     16  C   UNL     1       8.308   8.278  18.332  0.00  0.00    +0.000 C 
BRANCH  16  17
ATOM     17  C   UNL     1       8.281   9.751  17.894  0.00  0.00    +0.000 C 
BRANCH  17  18
ATOM     18  C   UNL     1       9.319  10.591  18.612  0.00  0.00    +0.000 A 
ATOM     19  C   UNL     1      10.335  11.229  17.884  0.00  0.00    +0.000 A 
ATOM     20  C   UNL     1      11.313  11.986  18.535  0.00  0.00    +0.000 A 
ATOM     21  C   UNL     1      11.291  12.115  19.921  0.00  0.00    +0.000 A 
ATOM     22  C   UNL     1      10.283  11.495  20.658  0.00  0.00    +0.000 A 
ATOM     23  C   UNL     1       9.301  10.736  20.007  0.00  0.00    +0.000 A 
ENDBRANCH  17  18
ENDBRANCH  16  17
ENDBRANCH  15  16
ENDBRANCH   3  15
TORSDOF 5
ENDMDL
MODEL 3
REMARK VINA RESULT:      -8.2      1.139      1.528
REMARK  Name = 
REMARK  6 active torsions:
REMARK  status: ('A' for Active; 'I' for Inactive)
REMARK    1  A    between atoms: C_1  and  N_2
REMARK    2  A    between atoms: C_3  and  C_4
REMARK    3  A    between atoms: N_6  and  C_7
REMARK    4  A    between atoms: C_7  and  C_8
REMARK    5  A    between atoms: C_8  and  C_9
REMARK    6  A    between atoms: C_9  and  C_10
REMARK                            x       y       z     vdW  Elec       q    Type
REMARK                         _______ _______ _______ _____ _____    ______ ____
ROOT
ATOM      1  C   UNL     1       6.668   5.694  17.811  0.00  0.00    +0.000 C 
ATOM      2  O   UNL     1       7.663   5.022  17.583  0.00  0.00    +0.000 OA
ATOM      3  N   UNL     1       6.673   7.083  17.723  0.00  0.00    +0.000 N 
ATOM      4  H   UNL     1       5.870   7.581  18.082  0.00  0.00    +0.000 HD
ENDROOT
BRANCH   1   7
ATOM      5  C   UNL     1       4.660   4.002  16.020  0.00  0.00    +0.000 C 
ATOM      6  N   UNL     1       4.482   4.432  17.394  0.00  0.00    +0.000 N 
ATOM      7  C   UNL     1       5.376   5.140  18.189  0.00  0.00    +0.000 A 
ATOM      8  C   UNL     1       4.749   5.267  19.424  0.00  0.00    +0.000 A 
ATOM      9  C   UNL     1       3.506   4.595  19.396  0.00  0.00    +0.000 A 
ATOM     10  C   UNL     1       2.497   4.379  20.354  0.00  0.00    +0.000 A 
ATOM     11  C   UNL     1       1.361   3.647  19.999  0.00  0.00    +0.000 A 
ATOM     12  C   UNL     1       1.214   3.152  18.708  0.00  0.00    +0.000 A 
ATOM     13  C   UNL     1       2.198   3.365  17.739  0.00  0.00    +0.000 A 
ATOM     14  C   UNL     1       3.348   4.088  18.113  0.00  0.00    +0.000 A 
ENDBRANCH   1   7
BRANCH   3  15
ATOM     15  C   UNL     1       7.808   7.853  17.246  0.00  0.00    +0.000 C 
BRANCH  15  16
ATOM     16  C   UNL     1       8.454   8.692  18.357  0.00  0.00    +0.000 C 
BRANCH  16  17
ATOM     17  C   UNL     1       8.473  10.194  18.029  0.00  0.00    +0.000 C 
BRANCH  17  18
ATOM     18  C   UNL     1       9.630  10.921  18.688  0.00  0.00    +0.000 A 
ATOM     19  C   UNL     1      10.741  11.312  17.927  0.00  0.00    +0.000 A 
ATOM     20  C   UNL     1      11.825  11.959  18.525  0.00  0.00    +0.000 A 
ATOM     21  C   UNL     1      11.815  12.223  19.891  0.00  0.00    +0.000 A 
ATOM     22  C   UNL     1      10.714  11.849  20.661  0.00  0.00    +0.000 A 
ATOM     23  C   UNL     1       9.626  11.200  20.063  0.00  0.00    +0.000 A 
ENDBRANCH  17  18
ENDBRANCH  16  17
ENDBRANCH  15  16
ENDBRANCH   3  15
TORSDOF 5
ENDMDL
MODEL 4
REMARK VINA RESULT:      -8.1      0.871      1.574
REMARK  Name = 
REMARK  6 active torsions:
REMARK  status: ('A' for Active; 'I' for Inactive)
REMARK    1  A    between atoms: C_1  and  N_2
REMARK    2  A    between atoms: C_3  and  C_4
REMARK    3  A    between atoms: N_6  and  C_7
REMARK    4  A    between atoms: C_7  and  C_8
REMARK    5  A    between atoms: C_8  and  C_9
REMARK    6  A    between atoms: C_9  and  C_10
REMARK                            x       y       z     vdW  Elec       q    Type
REMARK                         _______ _______ _______ _____ _____    ______ ____
ROOT
ATOM      1  C   UNL     1       5.758   6.093  17.126  0.00  0.00    +0.000 C 
ATOM      2  O   UNL     1       5.778   6.065  15.904  0.00  0.00    +0.000 OA
ATOM      3  N   UNL     1       6.684   6.821  17.868  0.00  0.00    +0.000 N 
ATOM      4  H   UNL     1       6.713   6.668  18.866  0.00  0.00    +0.000 HD
ENDROOT
BRANCH   1   7
ATOM      5  C   UNL     1       2.921   7.126  18.117  0.00  0.00    +0.000 C 
ATOM      6  N   UNL     1       3.557   5.855  18.408  0.00  0.00    +0.000 N 
ATOM      7  C   UNL     1       4.782   5.389  17.945  0.00  0.00    +0.000 A 
ATOM      8  C   UNL     1       4.917   4.112  18.480  0.00  0.00    +0.000 A 
ATOM      9  C   UNL     1       3.758   3.784  19.220  0.00  0.00    +0.000 A 
ATOM     10  C   UNL     1       3.350   2.639  19.930  0.00  0.00    +0.000 A 
ATOM     11  C   UNL     1       2.107   2.634  20.567  0.00  0.00    +0.000 A 
ATOM     12  C   UNL     1       1.284   3.754  20.519  0.00  0.00    +0.000 A 
ATOM     13  C   UNL     1       1.673   4.904  19.829  0.00  0.00    +0.000 A 
ATOM     14  C   UNL     1       2.921   4.893  19.175  0.00  0.00    +0.000 A 
ENDBRANCH   1   7
BRANCH   3  15
ATOM     15  C   UNL     1       7.677   7.699  17.273  0.00  0.00    +0.000 C 
BRANCH  15  16
ATOM     16  C   UNL     1       8.417   8.541  18.323  0.00  0.00    +0.000 C 
BRANCH  16  17
ATOM     17  C   UNL     1       8.394  10.044  17.999  0.00  0.00    +0.000 C 
BRANCH  17  18
ATOM     18  C   UNL     1       9.553  10.793  18.628  0.00  0.00    +0.000 A 
ATOM     19  C   UNL     1       9.583  11.008  20.013  0.00  0.00    +0.000 A 
ATOM     20  C   UNL     1      10.632  11.719  20.603  0.00  0.00    +0.000 A 
ATOM     21  C   UNL     1      11.664  12.225  19.818  0.00  0.00    +0.000 A 
ATOM     22  C   UNL     1      11.653  12.011  18.440  0.00  0.00    +0.000 A 
ATOM     23  C   UNL     1      10.603  11.299  17.847  0.00  0.00    +0.000 A 
ENDBRANCH  17  18
ENDBRANCH  16  17
ENDBRANCH  15  16
ENDBRANCH   3  15
TORSDOF 5
ENDMDL
MODEL 5
REMARK VINA RESULT:      -8.0      1.472      1.755
REMARK  Name = 
REMARK  6 active torsions:
REMARK  status: ('A' for Active; 'I' for Inactive)
REMARK    1  A    between atoms: C_1  and  N_2
REMARK    2  A    between atoms: C_3  and  C_4
REMARK    3  A    between atoms: N_6  and  C_7
REMARK    4  A    between atoms: C_7  and  C_8
REMARK    5  A    between atoms: C_8  and  C_9
REMARK    6  A    between atoms: C_9  and  C_10
REMARK                            x       y       z     vdW  Elec       q    Type
REMARK                         _______ _______ _______ _____ _____    ______ ____
ROOT
ATOM      1  C   UNL     1       6.699   5.631  18.432  0.00  0.00    +0.000 C 
ATOM      2  O   UNL     1       7.720   5.024  18.721  0.00  0.00    +0.000 OA
ATOM      3  N   UNL     1       6.724   6.921  17.911  0.00  0.00    +0.000 N 
ATOM      4  H   UNL     1       5.849   7.422  17.850  0.00  0.00    +0.000 HD
ENDROOT
BRANCH   1   7
ATOM      5  C   UNL     1       5.058   3.842  16.380  0.00  0.00    +0.000 C 
ATOM      6  N   UNL     1       4.625   4.340  17.672  0.00  0.00    +0.000 N 
ATOM      7  C   UNL     1       5.355   5.092  18.585  0.00  0.00    +0.000 A 
ATOM      8  C   UNL     1       4.506   5.279  19.671  0.00  0.00    +0.000 A 
ATOM      9  C   UNL     1       3.287   4.601  19.442  0.00  0.00    +0.000 A 
ATOM     10  C   UNL     1       2.114   4.429  20.200  0.00  0.00    +0.000 A 
ATOM     11  C   UNL     1       1.062   3.676  19.673  0.00  0.00    +0.000 A 
ATOM     12  C   UNL     1       1.160   3.116  18.404  0.00  0.00    +0.000 A 
ATOM     13  C   UNL     1       2.311   3.283  17.631  0.00  0.00    +0.000 A 
ATOM     14  C   UNL     1       3.373   4.028  18.179  0.00  0.00    +0.000 A 
ENDBRANCH   1   7
BRANCH   3  15
ATOM     15  C   UNL     1       7.947   7.619  17.554  0.00  0.00    +0.000 C 
BRANCH  15  16
ATOM     16  C   UNL     1       7.859   9.128  17.826  0.00  0.00    +0.000 C 
BRANCH  16  17
ATOM     17  C   UNL     1       8.955   9.620  18.785  0.00  0.00    +0.000 C 
BRANCH  17  18
ATOM     18  C   UNL     1       9.552  10.947  18.357  0.00  0.00    +0.000 A 
ATOM     19  C   UNL     1      10.932  11.168  18.470  0.00  0.00    +0.000 A 
ATOM     20  C   UNL     1      11.492  12.395  18.102  0.00  0.00    +0.000 A 
ATOM     21  C   UNL     1      10.681  13.417  17.618  0.00  0.00    +0.000 A 
ATOM     22  C   UNL     1       9.308  13.210  17.490  0.00  0.00    +0.000 A 
ATOM     23  C   UNL     1       8.745  11.981  17.858  0.00  0.00    +0.000 A 
ENDBRANCH  17  18
ENDBRANCH  16  17
ENDBRANCH  15  16
ENDBRANCH   3  15
TORSDOF 5
ENDMDL
MODEL 6
REMARK VINA RESULT:      -7.7      1.392      1.403
REMARK  Name = 
REMARK  6 active torsions:
REMARK  status: ('A' for Active; 'I' for Inactive)
REMARK    1  A    between atoms: C_1  and  N_2
REMARK    2  A    between atoms: C_3  and  C_4
REMARK    3  A    between atoms: N_6  and  C_7
REMARK    4  A    between atoms: C_7  and  C_8
REMARK    5  A    between atoms: C_8  and  C_9
REMARK    6  A    between atoms: C_9  and  C_10
REMARK                            x       y       z     vdW  Elec       q    Type
REMARK                         _______ _______ _______ _____ _____    ______ ____
ROOT
ATOM      1  C   UNL     1       6.600   5.626  18.409  0.00  0.00    +0.000 C 
ATOM      2  O   UNL     1       7.627   5.089  18.800  0.00  0.00    +0.000 OA
ATOM      3  N   UNL     1       6.608   6.846  17.740  0.00  0.00    +0.000 N 
ATOM      4  H   UNL     1       5.723   7.310  17.594  0.00  0.00    +0.000 HD
ENDROOT
BRANCH   1   7
ATOM      5  C   UNL     1       4.950   3.814  16.385  0.00  0.00    +0.000 C 
ATOM      6  N   UNL     1       4.532   4.307  17.684  0.00  0.00    +0.000 N 
ATOM      7  C   UNL     1       5.267   5.068  18.585  0.00  0.00    +0.000 A 
ATOM      8  C   UNL     1       4.434   5.244  19.685  0.00  0.00    +0.000 A 
ATOM      9  C   UNL     1       3.221   4.549  19.476  0.00  0.00    +0.000 A 
ATOM     10  C   UNL     1       2.063   4.361  20.254  0.00  0.00    +0.000 A 
ATOM     11  C   UNL     1       1.013   3.593  19.745  0.00  0.00    +0.000 A 
ATOM     12  C   UNL     1       1.097   3.034  18.475  0.00  0.00    +0.000 A 
ATOM     13  C   UNL     1       2.233   3.217  17.682  0.00  0.00    +0.000 A 
ATOM     14  C   UNL     1       3.294   3.977  18.212  0.00  0.00    +0.000 A 
ENDBRANCH   1   7
BRANCH   3  15
ATOM     15  C   UNL     1       7.823   7.535  17.341  0.00  0.00    +0.000 C 
BRANCH  15  16
ATOM     16  C   UNL     1       7.889   8.969  17.884  0.00  0.00    +0.000 C 
BRANCH  16  17
ATOM     17  C   UNL     1       9.060   9.180  18.858  0.00  0.00    +0.000 C 
BRANCH  17  18
ATOM     18  C   UNL     1       9.412  10.643  19.038  0.00  0.00    +0.000 A 
ATOM     19  C   UNL     1       9.168  11.282  20.263  0.00  0.00    +0.000 A 
ATOM     20  C   UNL     1       9.463  12.636  20.434  0.00  0.00    +0.000 A 
ATOM     21  C   UNL     1      10.007  13.372  19.385  0.00  0.00    +0.000 A 
ATOM     22  C   UNL     1      10.265  12.750  18.164  0.00  0.00    +0.000 A 
ATOM     23  C   UNL     1       9.969  11.392  17.990  0.00  0.00    +0.000 A 
ENDBRANCH  17  18
ENDBRANCH  16  17
ENDBRANCH  15  16
ENDBRANCH   3  15
TORSDOF 5
ENDMDL
MODEL 7
REMARK VINA RESULT:      -7.7      1.300      2.082
REMARK  Name = 
REMARK  6 active torsions:
REMARK  status: ('A' for Active; 'I' for Inactive)
REMARK    1  A    between atoms: C_1  and  N_2
REMARK    2  A    between atoms: C_3  and  C_4
REMARK    3  A    between atoms: N_6  and  C_7
REMARK    4  A    between atoms: C_7  and  C_8
REMARK    5  A    between atoms: C_8  and  C_9
REMARK    6  A    between atoms: C_9  and  C_10
REMARK                            x       y       z     vdW  Elec       q    Type
REMARK                         _______ _______ _______ _____ _____    ______ ____
ROOT
ATOM      1  C   UNL     1       5.980   6.224  17.290  0.00  0.00    +0.000 C 
ATOM      2  O   UNL     1       5.977   6.220  16.068  0.00  0.00    +0.000 OA
ATOM      3  N   UNL     1       6.944   6.904  18.029  0.00  0.00    +0.000 N 
ATOM      4  H   UNL     1       6.984   6.730  19.024  0.00  0.00    +0.000 HD
ENDROOT
BRANCH   1   7
ATOM      5  C   UNL     1       3.114   7.267  18.189  0.00  0.00    +0.000 C 
ATOM      6  N   UNL     1       3.755   6.012  18.535  0.00  0.00    +0.000 N 
ATOM      7  C   UNL     1       4.992   5.540  18.112  0.00  0.00    +0.000 A 
ATOM      8  C   UNL     1       5.126   4.283  18.693  0.00  0.00    +0.000 A 
ATOM      9  C   UNL     1       3.954   3.971  19.420  0.00  0.00    +0.000 A 
ATOM     10  C   UNL     1       3.542   2.847  20.160  0.00  0.00    +0.000 A 
ATOM     11  C   UNL     1       2.286   2.852  20.771  0.00  0.00    +0.000 A 
ATOM     12  C   UNL     1       1.455   3.963  20.669  0.00  0.00    +0.000 A 
ATOM     13  C   UNL     1       1.850   5.093  19.949  0.00  0.00    +0.000 A 
ATOM     14  C   UNL     1       3.111   5.070  19.321  0.00  0.00    +0.000 A 
ENDBRANCH   1   7
BRANCH   3  15
ATOM     15  C   UNL     1       7.957   7.757  17.434  0.00  0.00    +0.000 C 
BRANCH  15  16
ATOM     16  C   UNL     1       7.798   9.228  17.845  0.00  0.00    +0.000 C 
BRANCH  16  17
ATOM     17  C   UNL     1       8.942   9.717  18.748  0.00  0.00    +0.000 C 
BRANCH  17  18
ATOM     18  C   UNL     1       9.548  11.021  18.266  0.00  0.00    +0.000 A 
ATOM     19  C   UNL     1      10.941  11.167  18.197  0.00  0.00    +0.000 A 
ATOM     20  C   UNL     1      11.513  12.372  17.779  0.00  0.00    +0.000 A 
ATOM     21  C   UNL     1      10.703  13.446  17.426  0.00  0.00    +0.000 A 
ATOM     22  C   UNL     1       9.316  13.314  17.480  0.00  0.00    +0.000 A 
ATOM     23  C   UNL     1       8.740  12.108  17.899  0.00  0.00    +0.000 A 
ENDBRANCH  17  18
ENDBRANCH  16  17
ENDBRANCH  15  16
ENDBRANCH   3  15
TORSDOF 5
ENDMDL
MODEL 8
REMARK VINA RESULT:      -7.5      1.246      1.973
REMARK  Name = 
REMARK  6 active torsions:
REMARK  status: ('A' for Active; 'I' for Inactive)
REMARK    1  A    between atoms: C_1  and  N_2
REMARK    2  A    between atoms: C_3  and  C_4
REMARK    3  A    between atoms: N_6  and  C_7
REMARK    4  A    between atoms: C_7  and  C_8
REMARK    5  A    between atoms: C_8  and  C_9
REMARK    6  A    between atoms: C_9  and  C_10
REMARK                            x       y       z     vdW  Elec       q    Type
REMARK                         _______ _______ _______ _____ _____    ______ ____
ROOT
ATOM      1  C   UNL     1       6.166   6.146  17.252  0.00  0.00    +0.000 C 
ATOM      2  O   UNL     1       6.292   5.971  16.049  0.00  0.00    +0.000 OA
ATOM      3  N   UNL     1       6.994   7.005  17.969  0.00  0.00    +0.000 N 
ATOM      4  H   UNL     1       6.943   6.976  18.977  0.00  0.00    +0.000 HD
ENDROOT
BRANCH   1   7
ATOM      5  C   UNL     1       3.258   7.205  17.976  0.00  0.00    +0.000 C 
ATOM      6  N   UNL     1       3.895   5.979  18.418  0.00  0.00    +0.000 N 
ATOM      7  C   UNL     1       5.152   5.498  18.072  0.00  0.00    +0.000 A 
ATOM      8  C   UNL     1       5.273   4.277  18.727  0.00  0.00    +0.000 A 
ATOM      9  C   UNL     1       4.076   3.992  19.423  0.00  0.00    +0.000 A 
ATOM     10  C   UNL     1       3.643   2.907  20.207  0.00  0.00    +0.000 A 
ATOM     11  C   UNL     1       2.364   2.933  20.767  0.00  0.00    +0.000 A 
ATOM     12  C   UNL     1       1.528   4.027  20.571  0.00  0.00    +0.000 A 
ATOM     13  C   UNL     1       1.942   5.120  19.804  0.00  0.00    +0.000 A 
ATOM     14  C   UNL     1       3.228   5.075  19.229  0.00  0.00    +0.000 A 
ENDBRANCH   1   7
BRANCH   3  15
ATOM     15  C   UNL     1       7.997   7.854  17.351  0.00  0.00    +0.000 C 
BRANCH  15  16
ATOM     16  C   UNL     1       7.945   9.297  17.873  0.00  0.00    +0.000 C 
BRANCH  16  17
ATOM     17  C   UNL     1       8.972   9.560  18.987  0.00  0.00    +0.000 C 
BRANCH  17  18
ATOM     18  C   UNL     1       9.612  10.930  18.878  0.00  0.00    +0.000 A 
ATOM     19  C   UNL     1       9.134  11.858  17.942  0.00  0.00    +0.000 A 
ATOM     20  C   UNL     1       9.730  13.115  17.813  0.00  0.00    +0.000 A 
ATOM     21  C   UNL     1      10.812  13.462  18.617  0.00  0.00    +0.000 A 
ATOM     22  C   UNL     1      11.293  12.554  19.559  0.00  0.00    +0.000 A 
ATOM     23  C   UNL     1      10.697  11.294  19.689  0.00  0.00    +0.000 A 
ENDBRANCH  17  18
ENDBRANCH  16  17
ENDBRANCH  15  16
ENDBRANCH   3  15
TORSDOF 5
ENDMDL
MODEL 9
REMARK VINA RESULT:      -7.5      1.367      1.841
REMARK  Name = 
REMARK  6 active torsions:
REMARK  status: ('A' for Active; 'I' for Inactive)
REMARK    1  A    between atoms: C_1  and  N_2
REMARK    2  A    between atoms: C_3  and  C_4
REMARK    3  A    between atoms: N_6  and  C_7
REMARK    4  A    between atoms: C_7  and  C_8
REMARK    5  A    between atoms: C_8  and  C_9
REMARK    6  A    between atoms: C_9  and  C_10
REMARK                            x       y       z     vdW  Elec       q    Type
REMARK                         _______ _______ _______ _____ _____    ______ ____
ROOT
ATOM      1  C   UNL     1       6.284   5.240  17.805  0.00  0.00    +0.000 C 
ATOM      2  O   UNL     1       6.985   4.508  17.123  0.00  0.00    +0.000 OA
ATOM      3  N   UNL     1       6.575   6.589  17.989  0.00  0.00    +0.000 N 
ATOM      4  H   UNL     1       6.054   7.092  18.692  0.00  0.00    +0.000 HD
ENDROOT
BRANCH   1   7
ATOM      5  C   UNL     1       3.471   6.715  17.947  0.00  0.00    +0.000 C 
ATOM      6  N   UNL     1       3.858   5.471  18.586  0.00  0.00    +0.000 N 
ATOM      7  C   UNL     1       5.077   4.808  18.495  0.00  0.00    +0.000 A 
ATOM      8  C   UNL     1       4.926   3.655  19.258  0.00  0.00    +0.000 A 
ATOM      9  C   UNL     1       3.609   3.591  19.766  0.00  0.00    +0.000 A 
ATOM     10  C   UNL     1       2.916   2.653  20.553  0.00  0.00    +0.000 A 
ATOM     11  C   UNL     1       1.581   2.892  20.888  0.00  0.00    +0.000 A 
ATOM     12  C   UNL     1       0.943   4.054  20.466  0.00  0.00    +0.000 A 
ATOM     13  C   UNL     1       1.616   5.003  19.694  0.00  0.00    +0.000 A 
ATOM     14  C   UNL     1       2.957   4.744  19.346  0.00  0.00    +0.000 A 
ENDBRANCH   1   7
BRANCH   3  15
ATOM     15  C   UNL     1       7.656   7.276  17.304  0.00  0.00    +0.000 C 
BRANCH  15  16
ATOM     16  C   UNL     1       7.795   8.739  17.751  0.00  0.00    +0.000 C 
BRANCH  16  17
ATOM     17  C   UNL     1       8.859   8.924  18.846  0.00  0.00    +0.000 C 
BRANCH  17  18
ATOM     18  C   UNL     1       9.214  10.381  19.072  0.00  0.00    +0.000 A 
ATOM     19  C   UNL     1       9.404  10.866  20.375  0.00  0.00    +0.000 A 
ATOM     20  C   UNL     1       9.706  12.211  20.600  0.00  0.00    +0.000 A 
ATOM     21  C   UNL     1       9.821  13.091  19.528  0.00  0.00    +0.000 A 
ATOM     22  C   UNL     1       9.644  12.624  18.226  0.00  0.00    +0.000 A 
ATOM     23  C   UNL     1       9.341  11.275  17.999  0.00  0.00    +0.000 A 
ENDBRANCH  17  18
ENDBRANCH  16  17
ENDBRANCH  15  16
ENDBRANCH   3  15
TORSDOF 5
ENDMDL
