MODEL 1
REMARK VINA RESULT:      -8.0      0.000      0.000
REMARK  Name = 
REMARK  8 active torsions:
REMARK  status: ('A' for Active; 'I' for Inactive)
REMARK    1  A    between atoms: C_1  and  O_2
REMARK    2  A    between atoms: O_2  and  C_3
REMARK    3  A    between atoms: C_8  and  C_9
REMARK    4  A    between atoms: C_9  and  N_10
REMARK    5  A    between atoms: C_14  and  N_15
REMARK    6  A    between atoms: N_18  and  C_19
REMARK    7  A    between atoms: C_24  and  O_25
REMARK    8  A    between atoms: O_25  and  C_26
REMARK                            x       y       z     vdW  Elec       q    Type
REMARK                         _______ _______ _______ _____ _____    ______ ____
ROOT
ATOM      1  N   UNL     1       3.400   3.690  18.905  0.00  0.00    +0.000 NA
ATOM      2  C   UNL     1       2.590   2.753  19.678  0.00  0.00    +0.000 C 
ATOM      3  C   UNL     1       1.917   3.419  20.873  0.00  0.00    +0.000 C 
ATOM      4  C   UNL     1       1.440   4.864  20.704  0.00  0.00    +0.000 C 
ATOM      5  C   UNL     1       1.818   5.612  19.410  0.00  0.00    +0.000 C 
ATOM      6  C   UNL     1       2.537   4.736  18.341  0.00  0.00    +0.000 C 
ENDROOT
BRANCH   5   7
ATOM      7  N   UNL     1       2.479   6.925  19.551  0.00  0.00    +0.000 NA
ATOM      8  C   UNL     1       2.784   7.677  18.321  0.00  0.00    +0.000 C 
ATOM      9  C   UNL     1       1.771   8.768  17.876  0.00  0.00    +0.000 C 
ATOM     10  N   UNL     1       1.338   9.600  19.027  0.00  0.00    +0.000 N 
ATOM     11  C   UNL     1       0.823   8.773  20.138  0.00  0.00    +0.000 C 
ATOM     12  C   UNL     1       1.940   7.813  20.591  0.00  0.00    +0.000 C 
BRANCH  10  13
ATOM     13  C   UNL     1       0.549  10.742  18.782  0.00  0.00    +0.000 A 
ATOM     14  C   UNL     1      -0.849  10.639  18.661  0.00  0.00    +0.000 A 
ATOM     15  C   UNL     1      -1.669  11.756  18.472  0.00  0.00    +0.000 A 
ATOM     16  C   UNL     1      -1.104  13.022  18.381  0.00  0.00    +0.000 A 
ATOM     17  C   UNL     1       0.273  13.160  18.499  0.00  0.00    +0.000 A 
ATOM     18  C   UNL     1       1.104  12.047  18.702  0.00  0.00    +0.000 A 
BRANCH  18  19
ATOM     19  O   UNL     1       2.414  12.416  18.877  0.00  0.00    +0.000 OA
ATOM     20  C   UNL     1       2.832  13.663  18.344  0.00  0.00    +0.000 C 
ENDBRANCH  18  19
ENDBRANCH  10  13
ENDBRANCH   5   7
BRANCH   1  21
ATOM     21  C   UNL     1       4.161   3.003  17.831  0.00  0.00    +0.000 C 
BRANCH  21  27
ATOM     22  C   UNL     1       6.220   4.609  17.723  0.00  0.00    +0.000 A 
ATOM     23  C   UNL     1       7.083   5.365  16.907  0.00  0.00    +0.000 A 
ATOM     24  C   UNL     1       6.898   5.458  15.527  0.00  0.00    +0.000 A 
ATOM     25  C   UNL     1       5.848   4.777  14.935  0.00  0.00    +0.000 A 
ATOM     26  C   UNL     1       4.988   4.026  15.731  0.00  0.00    +0.000 A 
ATOM     27  C   UNL     1       5.141   3.931  17.138  0.00  0.00    +0.000 A 
BRANCH  22  29
ATOM     28  C   UNL     1       7.467   5.617  19.510  0.00  0.00    +0.000 C 
ATOM     29  O   UNL     1       6.656   4.565  19.019  0.00  0.00    +0.000 OA
ENDBRANCH  22  29
ENDBRANCH  21  27
ENDBRANCH   1  21
TORSDOF 6
ENDMDL
MODEL 2
REMARK VINA RESULT:      -7.8      1.016      1.780
REMARK  Name = 
REMARK  8 active torsions:
REMARK  status: ('A' for Active; 'I' for Inactive)
REMARK    1  A    between atoms: C_1  and  O_2
REMARK    2  A    between atoms: O_2  and  C_3
REMARK    3  A    between atoms: C_8  and  C_9
REMARK    4  A    between atoms: C_9  and  N_10
REMARK    5  A    between atoms: C_14  and  N_15
REMARK    6  A    between atoms: N_18  and  C_19
REMARK    7  A    between atoms: C_24  and  O_25
REMARK    8  A    between atoms: O_25  and  C_26
REMARK                            x       y       z     vdW  Elec       q    Type
REMARK                         _______ _______ _______ _____ _____    ______ ____
ROOT
ATOM      1  N   UNL     1       3.338   3.736  18.996  0.00  0.00    +0.000 NA
ATOM      2  C   UNL     1       2.459   2.853  19.757  0.00  0.00    +0.000 C 
ATOM      3  C   UNL     1       1.749   3.582  20.892  0.00  0.00    +0.000 C 
ATOM      4  C   UNL     1       1.329   5.035  20.650  0.00  0.00    +0.000 C 
ATOM      5  C   UNL     1       1.797   5.724  19.352  0.00  0.00    +0.000 C 
ATOM      6  C   UNL     1       2.540   4.788  18.352  0.00  0.00    +0.000 C 
ENDROOT
BRANCH   5   7
ATOM      7  N   UNL     1       2.493   7.019  19.482  0.00  0.00    +0.000 NA
ATOM      8  C   UNL     1       2.775   7.776  18.250  0.00  0.00    +0.000 C 
ATOM      9  C   UNL     1       1.773   8.895  17.849  0.00  0.00    +0.000 C 
ATOM     10  N   UNL     1       1.399   9.725  19.021  0.00  0.00    +0.000 N 
ATOM     11  C   UNL     1       0.902   8.900  20.141  0.00  0.00    +0.000 C 
ATOM     12  C   UNL     1       2.010   7.910  20.548  0.00  0.00    +0.000 C 
BRANCH  10  13
ATOM     13  C   UNL     1       0.629  10.887  18.813  0.00  0.00    +0.000 A 
ATOM     14  C   UNL     1       1.193  12.165  18.986  0.00  0.00    +0.000 A 
ATOM     15  C   UNL     1       0.476  13.340  18.738  0.00  0.00    +0.000 A 
ATOM     16  C   UNL     1      -0.847  13.268  18.320  0.00  0.00    +0.000 A 
ATOM     17  C   UNL     1      -1.433  12.024  18.136  0.00  0.00    +0.000 A 
ATOM     18  C   UNL     1      -0.720  10.838  18.370  0.00  0.00    +0.000 A 
BRANCH  18  19
ATOM     19  O   UNL     1      -1.458   9.728  18.046  0.00  0.00    +0.000 OA
ATOM     20  C   UNL     1      -2.653   9.915  17.304  0.00  0.00    +0.000 C 
ENDBRANCH  18  19
ENDBRANCH  10  13
ENDBRANCH   5   7
BRANCH   1  21
ATOM     21  C   UNL     1       4.130   2.988  17.987  0.00  0.00    +0.000 C 
BRANCH  21  27
ATOM     22  C   UNL     1       6.119   4.673  17.800  0.00  0.00    +0.000 A 
ATOM     23  C   UNL     1       6.991   5.377  16.948  0.00  0.00    +0.000 A 
ATOM     24  C   UNL     1       6.876   5.309  15.559  0.00  0.00    +0.000 A 
ATOM     25  C   UNL     1       5.890   4.516  14.996  0.00  0.00    +0.000 A 
ATOM     26  C   UNL     1       5.023   3.815  15.828  0.00  0.00    +0.000 A 
ATOM     27  C   UNL     1       5.103   3.882  17.243  0.00  0.00    +0.000 A 
BRANCH  22  29
ATOM     28  C   UNL     1       7.627   5.563  19.442  0.00  0.00    +0.000 C 
ATOM     29  O   UNL     1       6.486   4.792  19.113  0.00  0.00    +0.000 OA
ENDBRANCH  22  29
ENDBRANCH  21  27
ENDBRANCH   1  21
TORSDOF 6
ENDMDL
MODEL 3
REMARK VINA RESULT:      -7.6      1.287      1.659
REMARK  Name = 
REMARK  8 active torsions:
REMARK  status: ('A' for Active; 'I' for Inactive)
REMARK    1  A    between atoms: C_1  and  O_2
REMARK    2  A    between atoms: O_2  and  C_3
REMARK    3  A    between atoms: C_8  and  C_9
REMARK    4  A    between atoms: C_9  and  N_10
REMARK    5  A    between atoms: C_14  and  N_15
REMARK    6  A    between atoms: N_18  and  C_19
REMARK    7  A    between atoms: C_24  and  O_25
REMARK    8  A    between atoms: O_25  and  C_26
REMARK                            x       y       z     vdW  Elec       q    Type
REMARK                         _______ _______ _______ _____ _____    ______ ____
ROOT
ATOM      1  N   UNL     1       3.344   3.572  18.882  0.00  0.00    +0.000 NA
ATOM      2  C   UNL     1       2.476   2.569  19.492  0.00  0.00    +0.000 C 
ATOM      3  C   UNL     1       1.680   3.129  20.665  0.00  0.00    +0.000 C 
ATOM      4  C   UNL     1       1.199   4.580  20.568  0.00  0.00    +0.000 C 
ATOM      5  C   UNL     1       1.690   5.435  19.383  0.00  0.00    +0.000 C 
ATOM      6  C   UNL     1       2.525   4.655  18.322  0.00  0.00    +0.000 C 
ENDROOT
BRANCH   5   7
ATOM      7  N   UNL     1       2.314   6.736  19.694  0.00  0.00    +0.000 NA
ATOM      8  C   UNL     1       2.525   7.681  18.584  0.00  0.00    +0.000 C 
ATOM      9  C   UNL     1       1.452   8.785  18.367  0.00  0.00    +0.000 C 
ATOM     10  N   UNL     1       1.057   9.410  19.655  0.00  0.00    +0.000 N 
ATOM     11  C   UNL     1       0.633   8.400  20.646  0.00  0.00    +0.000 C 
ATOM     12  C   UNL     1       1.805   7.430  20.887  0.00  0.00    +0.000 C 
BRANCH  10  13
ATOM     13  C   UNL     1       0.218  10.542  19.632  0.00  0.00    +0.000 A 
ATOM     14  C   UNL     1      -0.392  10.964  18.436  0.00  0.00    +0.000 A 
ATOM     15  C   UNL     1      -1.271  12.050  18.386  0.00  0.00    +0.000 A 
ATOM     16  C   UNL     1      -1.557  12.763  19.543  0.00  0.00    +0.000 A 
ATOM     17  C   UNL     1      -0.975  12.373  20.741  0.00  0.00    +0.000 A 
ATOM     18  C   UNL     1      -0.100  11.277  20.806  0.00  0.00    +0.000 A 
BRANCH  18  19
ATOM     19  O   UNL     1       0.291  11.013  22.095  0.00  0.00    +0.000 OA
ATOM     20  C   UNL     1      -0.715  10.700  23.046  0.00  0.00    +0.000 C 
ENDBRANCH  18  19
ENDBRANCH  10  13
ENDBRANCH   5   7
BRANCH   1  21
ATOM     21  C   UNL     1       4.217   2.982  17.836  0.00  0.00    +0.000 C 
BRANCH  21  27
ATOM     22  C   UNL     1       6.203   4.681  17.788  0.00  0.00    +0.000 A 
ATOM     23  C   UNL     1       6.991   5.550  17.010  0.00  0.00    +0.000 A 
ATOM     24  C   UNL     1       6.728   5.770  15.657  0.00  0.00    +0.000 A 
ATOM     25  C   UNL     1       5.675   5.104  15.052  0.00  0.00    +0.000 A 
ATOM     26  C   UNL     1       4.889   4.242  15.811  0.00  0.00    +0.000 A 
ATOM     27  C   UNL     1       5.121   4.016  17.192  0.00  0.00    +0.000 A 
BRANCH  22  29
ATOM     28  C   UNL     1       7.479   5.574  19.614  0.00  0.00    +0.000 C 
ATOM     29  O   UNL     1       6.710   4.529  19.049  0.00  0.00    +0.000 OA
ENDBRANCH  22  29
ENDBRANCH  21  27
ENDBRANCH   1  21
TORSDOF 6
ENDMDL
MODEL 4
REMARK VINA RESULT:      -7.6      3.593      5.312
REMARK  Name = 
REMARK  8 active torsions:
REMARK  status: ('A' for Active; 'I' for Inactive)
REMARK    1  A    between atoms: C_1  and  O_2
REMARK    2  A    between atoms: O_2  and  C_3
REMARK    3  A    between atoms: C_8  and  C_9
REMARK    4  A    between atoms: C_9  and  N_10
REMARK    5  A    between atoms: C_14  and  N_15
REMARK    6  A    between atoms: N_18  and  C_19
REMARK    7  A    between atoms: C_24  and  O_25
REMARK    8  A    between atoms: O_25  and  C_26
REMARK                            x       y       z     vdW  Elec       q    Type
REMARK                         _______ _______ _______ _____ _____    ______ ____
ROOT
ATOM      1  N   UNL     1       1.788   6.855  19.807  0.00  0.00    +0.000 NA
ATOM      2  C   UNL     1       2.658   7.176  18.679  0.00  0.00    +0.000 C 
ATOM      3  C   UNL     1       2.121   8.333  17.845  0.00  0.00    +0.000 C 
ATOM      4  C   UNL     1       1.399   9.464  18.583  0.00  0.00    +0.000 C 
ATOM      5  C   UNL     1       1.106   9.286  20.086  0.00  0.00    +0.000 C 
ATOM      6  C   UNL     1       1.724   8.004  20.720  0.00  0.00    +0.000 C 
ENDROOT
BRANCH   5   7
ATOM      7  N   UNL     1      -0.286   9.481  20.536  0.00  0.00    +0.000 NA
ATOM      8  C   UNL     1      -0.578   9.302  21.969  0.00  0.00    +0.000 C 
ATOM      9  C   UNL     1      -0.615  10.576  22.859  0.00  0.00    +0.000 C 
ATOM     10  N   UNL     1      -1.371  11.670  22.198  0.00  0.00    +0.000 N 
ATOM     11  C   UNL     1      -0.859  11.946  20.840  0.00  0.00    +0.000 C 
ATOM     12  C   UNL     1      -0.982  10.661  20.000  0.00  0.00    +0.000 C 
BRANCH  10  13
ATOM     13  C   UNL     1      -1.648  12.843  22.929  0.00  0.00    +0.000 A 
ATOM     14  C   UNL     1      -0.728  13.907  22.959  0.00  0.00    +0.000 A 
ATOM     15  C   UNL     1      -0.992  15.106  23.629  0.00  0.00    +0.000 A 
ATOM     16  C   UNL     1      -2.192  15.270  24.309  0.00  0.00    +0.000 A 
ATOM     17  C   UNL     1      -3.124  14.241  24.297  0.00  0.00    +0.000 A 
ATOM     18  C   UNL     1      -2.875  13.038  23.617  0.00  0.00    +0.000 A 
BRANCH  18  19
ATOM     19  O   UNL     1      -3.958  12.196  23.662  0.00  0.00    +0.000 OA
ATOM     20  C   UNL     1      -4.808  12.262  24.796  0.00  0.00    +0.000 C 
ENDBRANCH  18  19
ENDBRANCH  10  13
ENDBRANCH   5   7
BRANCH   1  21
ATOM     21  C   UNL     1       2.245   5.639  20.526  0.00  0.00    +0.000 C 
BRANCH  21  27
ATOM     22  C   UNL     1       3.585   3.926  19.077  0.00  0.00    +0.000 A 
ATOM     23  C   UNL     1       3.542   2.752  18.300  0.00  0.00    +0.000 A 
ATOM     24  C   UNL     1       2.344   2.085  18.039  0.00  0.00    +0.000 A 
ATOM     25  C   UNL     1       1.163   2.577  18.568  0.00  0.00    +0.000 A 
ATOM     26  C   UNL     1       1.192   3.737  19.337  0.00  0.00    +0.000 A 
ATOM     27  C   UNL     1       2.392   4.445  19.601  0.00  0.00    +0.000 A 
BRANCH  22  29
ATOM     28  C   UNL     1       5.741   4.506  18.196  0.00  0.00    +0.000 C 
ATOM     29  O   UNL     1       4.869   4.341  19.299  0.00  0.00    +0.000 OA
ENDBRANCH  22  29
ENDBRANCH  21  27
ENDBRANCH   1  21
TORSDOF 6
ENDMDL
MODEL 5
REMARK VINA RESULT:      -7.5      3.398      5.285
REMARK  Name = 
REMARK  8 active torsions:
REMARK  status: ('A' for Active; 'I' for Inactive)
REMARK    1  A    between atoms: C_1  and  O_2
REMARK    2  A    between atoms: O_2  and  C_3
REMARK    3  A    between atoms: C_8  and  C_9
REMARK    4  A    between atoms: C_9  and  N_10
REMARK    5  A    between atoms: C_14  and  N_15
REMARK    6  A    between atoms: N_18  and  C_19
REMARK    7  A    between atoms: C_24  and  O_25
REMARK    8  A    between atoms: O_25  and  C_26
REMARK                            x       y       z     vdW  Elec       q    Type
REMARK                         _______ _______ _______ _____ _____    ______ ____
ROOT
ATOM      1  N   UNL     1       1.994   7.311  19.429  0.00  0.00    +0.000 NA
ATOM      2  C   UNL     1       2.726   7.839  18.282  0.00  0.00    +0.000 C 
ATOM      3  C   UNL     1       1.977   8.971  17.589  0.00  0.00    +0.000 C 
ATOM      4  C   UNL     1       1.166   9.927  18.468  0.00  0.00    +0.000 C 
ATOM      5  C   UNL     1       1.013   9.592  19.965  0.00  0.00    +0.000 C 
ATOM      6  C   UNL     1       1.844   8.364  20.442  0.00  0.00    +0.000 C 
ENDROOT
BRANCH   5   7
ATOM      7  N   UNL     1      -0.355   9.553  20.517  0.00  0.00    +0.000 NA
ATOM      8  C   UNL     1      -0.507   9.304  21.962  0.00  0.00    +0.000 C 
ATOM      9  C   UNL     1      -0.680  10.539  22.889  0.00  0.00    +0.000 C 
ATOM     10  N   UNL     1      -1.646  11.510  22.317  0.00  0.00    +0.000 N 
ATOM     11  C   UNL     1      -1.288  11.889  20.934  0.00  0.00    +0.000 C 
ATOM     12  C   UNL     1      -1.267  10.616  20.067  0.00  0.00    +0.000 C 
BRANCH  10  13
ATOM     13  C   UNL     1      -2.051  12.609  23.099  0.00  0.00    +0.000 A 
ATOM     14  C   UNL     1      -3.289  12.601  23.768  0.00  0.00    +0.000 A 
ATOM     15  C   UNL     1      -3.700  13.650  24.596  0.00  0.00    +0.000 A 
ATOM     16  C   UNL     1      -2.881  14.759  24.767  0.00  0.00    +0.000 A 
ATOM     17  C   UNL     1      -1.651  14.798  24.125  0.00  0.00    +0.000 A 
ATOM     18  C   UNL     1      -1.222  13.745  23.302  0.00  0.00    +0.000 A 
BRANCH  18  19
ATOM     19  O   UNL     1       0.053  13.950  22.837  0.00  0.00    +0.000 OA
ATOM     20  C   UNL     1       0.414  15.261  22.435  0.00  0.00    +0.000 C 
ENDBRANCH  18  19
ENDBRANCH  10  13
ENDBRANCH   5   7
BRANCH   1  21
ATOM     21  C   UNL     1       2.664   6.119  20.008  0.00  0.00    +0.000 C 
BRANCH  21  27
ATOM     22  C   UNL     1       2.482   4.197  18.247  0.00  0.00    +0.000 A 
ATOM     23  C   UNL     1       1.926   2.944  17.923  0.00  0.00    +0.000 A 
ATOM     24  C   UNL     1       1.019   2.301  18.766  0.00  0.00    +0.000 A 
ATOM     25  C   UNL     1       0.662   2.898  19.963  0.00  0.00    +0.000 A 
ATOM     26  C   UNL     1       1.204   4.136  20.295  0.00  0.00    +0.000 A 
ATOM     27  C   UNL     1       2.112   4.821  19.448  0.00  0.00    +0.000 A 
BRANCH  22  29
ATOM     28  C   UNL     1       4.739   4.058  17.445  0.00  0.00    +0.000 C 
ATOM     29  O   UNL     1       3.429   4.582  17.339  0.00  0.00    +0.000 OA
ENDBRANCH  22  29
ENDBRANCH  21  27
ENDBRANCH   1  21
TORSDOF 6
ENDMDL
MODEL 6
REMARK VINA RESULT:      -7.5      1.821      2.582
REMARK  Name = 
REMARK  8 active torsions:
REMARK  status: ('A' for Active; 'I' for Inactive)
REMARK    1  A    between atoms: C_1  and  O_2
REMARK    2  A    between atoms: O_2  and  C_3
REMARK    3  A    between atoms: C_8  and  C_9
REMARK    4  A    between atoms: C_9  and  N_10
REMARK    5  A    between atoms: C_14  and  N_15
REMARK    6  A    between atoms: N_18  and  C_19
REMARK    7  A    between atoms: C_24  and  O_25
REMARK    8  A    between atoms: O_25  and  C_26
REMARK                            x       y       z     vdW  Elec       q    Type
REMARK                         _______ _______ _______ _____ _____    ______ ____
ROOT
ATOM      1  N   UNL     1       3.966   4.505  19.323  0.00  0.00    +0.000 NA
ATOM      2  C   UNL     1       3.309   3.354  19.937  0.00  0.00    +0.000 C 
ATOM      3  C   UNL     1       2.330   3.763  21.031  0.00  0.00    +0.000 C 
ATOM      4  C   UNL     1       1.541   5.059  20.830  0.00  0.00    +0.000 C 
ATOM      5  C   UNL     1       1.904   5.957  19.631  0.00  0.00    +0.000 C 
ATOM      6  C   UNL     1       2.962   5.348  18.662  0.00  0.00    +0.000 C 
ENDROOT
BRANCH   5   7
ATOM      7  N   UNL     1       2.195   7.378  19.907  0.00  0.00    +0.000 NA
ATOM      8  C   UNL     1       2.233   8.307  18.764  0.00  0.00    +0.000 C 
ATOM      9  C   UNL     1       0.946   9.123  18.458  0.00  0.00    +0.000 C 
ATOM     10  N   UNL     1       0.357   9.683  19.700  0.00  0.00    +0.000 N 
ATOM     11  C   UNL     1       0.132   8.637  20.719  0.00  0.00    +0.000 C 
ATOM     12  C   UNL     1       1.484   7.975  21.047  0.00  0.00    +0.000 C 
BRANCH  10  13
ATOM     13  C   UNL     1      -0.719  10.587  19.595  0.00  0.00    +0.000 A 
ATOM     14  C   UNL     1      -1.621  10.512  18.518  0.00  0.00    +0.000 A 
ATOM     15  C   UNL     1      -2.730  11.357  18.410  0.00  0.00    +0.000 A 
ATOM     16  C   UNL     1      -2.961  12.324  19.379  0.00  0.00    +0.000 A 
ATOM     17  C   UNL     1      -2.091  12.425  20.457  0.00  0.00    +0.000 A 
ATOM     18  C   UNL     1      -0.983  11.573  20.584  0.00  0.00    +0.000 A 
BRANCH  18  19
ATOM     19  O   UNL     1      -0.309  11.786  21.760  0.00  0.00    +0.000 OA
ATOM     20  C   UNL     1      -1.025  12.357  22.844  0.00  0.00    +0.000 C 
ENDBRANCH  18  19
ENDBRANCH  10  13
ENDBRANCH   5   7
BRANCH   1  21
ATOM     21  C   UNL     1       5.018   4.091  18.361  0.00  0.00    +0.000 C 
BRANCH  21  27
ATOM     22  C   UNL     1       6.229   6.043  17.115  0.00  0.00    +0.000 A 
ATOM     23  C   UNL     1       7.237   7.025  17.162  0.00  0.00    +0.000 A 
ATOM     24  C   UNL     1       8.102   7.140  18.251  0.00  0.00    +0.000 A 
ATOM     25  C   UNL     1       7.961   6.279  19.326  0.00  0.00    +0.000 A 
ATOM     26  C   UNL     1       6.969   5.304  19.291  0.00  0.00    +0.000 A 
ATOM     27  C   UNL     1       6.089   5.151  18.189  0.00  0.00    +0.000 A 
BRANCH  22  29
ATOM     28  C   UNL     1       5.591   5.301  14.924  0.00  0.00    +0.000 C 
ATOM     29  O   UNL     1       5.430   6.188  16.015  0.00  0.00    +0.000 OA
ENDBRANCH  22  29
ENDBRANCH  21  27
ENDBRANCH   1  21
TORSDOF 6
ENDMDL
MODEL 7
REMARK VINA RESULT:      -7.5      1.296      1.969
REMARK  Name = 
REMARK  8 active torsions:
REMARK  status: ('A' for Active; 'I' for Inactive)
REMARK    1  A    between atoms: C_1  and  O_2
REMARK    2  A    between atoms: O_2  and  C_3
REMARK    3  A    between atoms: C_8  and  C_9
REMARK    4  A    between atoms: C_9  and  N_10
REMARK    5  A    between atoms: C_14  and  N_15
REMARK    6  A    between atoms: N_18  and  C_19
REMARK    7  A    between atoms: C_24  and  O_25
REMARK    8  A    between atoms: O_25  and  C_26
REMARK                            x       y       z     vdW  Elec       q    Type
REMARK                         _______ _______ _______ _____ _____    ______ ____
ROOT
ATOM      1  N   UNL     1       3.714   3.969  19.503  0.00  0.00    +0.000 NA
ATOM      2  C   UNL     1       2.778   3.001  20.069  0.00  0.00    +0.000 C 
ATOM      3  C   UNL     1       1.743   3.658  20.974  0.00  0.00    +0.000 C 
ATOM      4  C   UNL     1       1.239   5.050  20.583  0.00  0.00    +0.000 C 
ATOM      5  C   UNL     1       1.926   5.772  19.407  0.00  0.00    +0.000 C 
ATOM      6  C   UNL     1       2.984   4.915  18.649  0.00  0.00    +0.000 C 
ENDROOT
BRANCH   5   7
ATOM      7  N   UNL     1       2.427   7.140  19.647  0.00  0.00    +0.000 NA
ATOM      8  C   UNL     1       2.482   8.064  18.501  0.00  0.00    +0.000 C 
ATOM      9  C   UNL     1       1.292   9.045  18.311  0.00  0.00    +0.000 C 
ATOM     10  N   UNL     1       0.900   9.670  19.599  0.00  0.00    +0.000 N 
ATOM     11  C   UNL     1       0.634   8.656  20.641  0.00  0.00    +0.000 C 
ATOM     12  C   UNL     1       1.910   7.818  20.846  0.00  0.00    +0.000 C 
BRANCH  10  13
ATOM     13  C   UNL     1      -0.052  10.709  19.590  0.00  0.00    +0.000 A 
ATOM     14  C   UNL     1      -1.277  10.559  18.914  0.00  0.00    +0.000 A 
ATOM     15  C   UNL     1      -2.266  11.547  18.927  0.00  0.00    +0.000 A 
ATOM     16  C   UNL     1      -2.048  12.735  19.613  0.00  0.00    +0.000 A 
ATOM     17  C   UNL     1      -0.852  12.915  20.293  0.00  0.00    +0.000 A 
ATOM     18  C   UNL     1       0.143  11.926  20.298  0.00  0.00    +0.000 A 
BRANCH  18  19
ATOM     19  O   UNL     1       1.202  12.273  21.098  0.00  0.00    +0.000 OA
ATOM     20  C   UNL     1       2.038  13.338  20.673  0.00  0.00    +0.000 C 
ENDBRANCH  18  19
ENDBRANCH  10  13
ENDBRANCH   5   7
BRANCH   1  21
ATOM     21  C   UNL     1       4.800   3.305  18.740  0.00  0.00    +0.000 C 
BRANCH  21  27
ATOM     22  C   UNL     1       6.080   4.485  16.791  0.00  0.00    +0.000 A 
ATOM     23  C   UNL     1       6.955   5.521  16.413  0.00  0.00    +0.000 A 
ATOM     24  C   UNL     1       7.532   6.376  17.353  0.00  0.00    +0.000 A 
ATOM     25  C   UNL     1       7.228   6.217  18.695  0.00  0.00    +0.000 A 
ATOM     26  C   UNL     1       6.364   5.197  19.081  0.00  0.00    +0.000 A 
ATOM     27  C   UNL     1       5.780   4.301  18.149  0.00  0.00    +0.000 A 
BRANCH  22  29
ATOM     28  C   UNL     1       5.646   4.462  14.431  0.00  0.00    +0.000 C 
ATOM     29  O   UNL     1       5.545   3.851  15.703  0.00  0.00    +0.000 OA
ENDBRANCH  22  29
ENDBRANCH  21  27
ENDBRANCH   1  21
TORSDOF 6
ENDMDL
MODEL 8
REMARK VINA RESULT:      -7.5      1.392      2.474
REMARK  Name = 
REMARK  8 active torsions:
REMARK  status: ('A' for Active; 'I' for Inactive)
REMARK    1  A    between atoms: C_1  and  O_2
REMARK    2  A    between atoms: O_2  and  C_3
REMARK    3  A    between atoms: C_8  and  C_9
REMARK    4  A    between atoms: C_9  and  N_10
REMARK    5  A    between atoms: C_14  and  N_15
REMARK    6  A    between atoms: N_18  and  C_19
REMARK    7  A    between atoms: C_24  and  O_25
REMARK    8  A    between atoms: O_25  and  C_26
REMARK                            x       y       z     vdW  Elec       q    Type
REMARK                         _______ _______ _______ _____ _____    ______ ____
ROOT
ATOM      1  N   UNL     1       3.177   3.769  18.683  0.00  0.00    +0.000 NA
ATOM      2  C   UNL     1       2.331   2.783  19.349  0.00  0.00    +0.000 C 
ATOM      3  C   UNL     1       1.660   3.345  20.596  0.00  0.00    +0.000 C 
ATOM      4  C   UNL     1       1.225   4.813  20.569  0.00  0.00    +0.000 C 
ATOM      5  C   UNL     1       1.641   5.676  19.361  0.00  0.00    +0.000 C 
ATOM      6  C   UNL     1       2.352   4.891  18.217  0.00  0.00    +0.000 C 
ENDROOT
BRANCH   5   7
ATOM      7  N   UNL     1       2.336   6.948  19.640  0.00  0.00    +0.000 NA
ATOM      8  C   UNL     1       2.775   7.759  18.491  0.00  0.00    +0.000 C 
ATOM      9  C   UNL     1       1.845   8.917  18.033  0.00  0.00    +0.000 C 
ATOM     10  N   UNL     1       1.346   9.696  19.194  0.00  0.00    +0.000 N 
ATOM     11  C   UNL     1       0.706   8.826  20.202  0.00  0.00    +0.000 C 
ATOM     12  C   UNL     1       1.743   7.794  20.686  0.00  0.00    +0.000 C 
BRANCH  10  13
ATOM     13  C   UNL     1       0.624  10.883  18.957  0.00  0.00    +0.000 A 
ATOM     14  C   UNL     1       1.183  12.139  19.261  0.00  0.00    +0.000 A 
ATOM     15  C   UNL     1       0.518  13.339  18.991  0.00  0.00    +0.000 A 
ATOM     16  C   UNL     1      -0.746  13.316  18.417  0.00  0.00    +0.000 A 
ATOM     17  C   UNL     1      -1.326  12.095  18.101  0.00  0.00    +0.000 A 
ATOM     18  C   UNL     1      -0.663  10.884  18.356  0.00  0.00    +0.000 A 
BRANCH  18  19
ATOM     19  O   UNL     1      -1.375   9.807  17.890  0.00  0.00    +0.000 OA
ATOM     20  C   UNL     1      -2.593  10.058  17.207  0.00  0.00    +0.000 C 
ENDBRANCH  18  19
ENDBRANCH  10  13
ENDBRANCH   5   7
BRANCH   1  21
ATOM     21  C   UNL     1       3.934   3.172  17.554  0.00  0.00    +0.000 C 
BRANCH  21  27
ATOM     22  C   UNL     1       5.777   4.186  16.004  0.00  0.00    +0.000 A 
ATOM     23  C   UNL     1       6.939   4.977  15.916  0.00  0.00    +0.000 A 
ATOM     24  C   UNL     1       7.553   5.512  17.049  0.00  0.00    +0.000 A 
ATOM     25  C   UNL     1       7.001   5.275  18.297  0.00  0.00    +0.000 A 
ATOM     26  C   UNL     1       5.853   4.495  18.397  0.00  0.00    +0.000 A 
ATOM     27  C   UNL     1       5.220   3.922  17.264  0.00  0.00    +0.000 A 
BRANCH  22  29
ATOM     28  C   UNL     1       6.146   3.934  13.645  0.00  0.00    +0.000 C 
ATOM     29  O   UNL     1       5.285   3.868  14.767  0.00  0.00    +0.000 OA
ENDBRANCH  22  29
ENDBRANCH  21  27
ENDBRANCH   1  21
TORSDOF 6
ENDMDL
MODEL 9
REMARK VINA RESULT:      -7.3      1.078      1.078
REMARK  Name = 
REMARK  8 active torsions:
REMARK  status: ('A' for Active; 'I' for Inactive)
REMARK    1  A    between atoms: C_1  and  O_2
REMARK    2  A    between atoms: O_2  and  C_3
REMARK    3  A    between atoms: C_8  and  C_9
REMARK    4  A    between atoms: C_9  and  N_10
REMARK    5  A    between atoms: C_14  and  N_15
REMARK    6  A    between atoms: N_18  and  C_19
REMARK    7  A    between atoms: C_24  and  O_25
REMARK    8  A    between atoms: O_25  and  C_26
REMARK                            x       y       z     vdW  Elec       q    Type
REMARK                         _______ _______ _______ _____ _____    ______ ____
ROOT
ATOM      1  N   UNL     1       3.641   3.971  19.507  0.00  0.00    +0.000 NA
ATOM      2  C   UNL     1       2.731   3.021  20.140  0.00  0.00    +0.000 C 
ATOM      3  C   UNL     1       1.752   3.702  21.088  0.00  0.00    +0.000 C 
ATOM      4  C   UNL     1       1.237   5.091  20.700  0.00  0.00    +0.000 C 
ATOM      5  C   UNL     1       1.865   5.787  19.476  0.00  0.00    +0.000 C 
ATOM      6  C   UNL     1       2.873   4.908  18.676  0.00  0.00    +0.000 C 
ENDROOT
BRANCH   5   7
ATOM      7  N   UNL     1       2.388   7.155  19.663  0.00  0.00    +0.000 NA
ATOM      8  C   UNL     1       2.415   8.048  18.492  0.00  0.00    +0.000 C 
ATOM      9  C   UNL     1       1.229   9.038  18.317  0.00  0.00    +0.000 C 
ATOM     10  N   UNL     1       0.888   9.700  19.602  0.00  0.00    +0.000 N 
ATOM     11  C   UNL     1       0.646   8.716  20.677  0.00  0.00    +0.000 C 
ATOM     12  C   UNL     1       1.920   7.869  20.861  0.00  0.00    +0.000 C 
BRANCH  10  13
ATOM     13  C   UNL     1      -0.052  10.749  19.598  0.00  0.00    +0.000 A 
ATOM     14  C   UNL     1      -1.278  10.617  18.918  0.00  0.00    +0.000 A 
ATOM     15  C   UNL     1      -2.256  11.616  18.937  0.00  0.00    +0.000 A 
ATOM     16  C   UNL     1      -2.027  12.797  19.631  0.00  0.00    +0.000 A 
ATOM     17  C   UNL     1      -0.830  12.960  20.314  0.00  0.00    +0.000 A 
ATOM     18  C   UNL     1       0.155  11.959  20.314  0.00  0.00    +0.000 A 
BRANCH  18  19
ATOM     19  O   UNL     1       1.216  12.289  21.118  0.00  0.00    +0.000 OA
ATOM     20  C   UNL     1       2.175  13.206  20.615  0.00  0.00    +0.000 C 
ENDBRANCH  18  19
ENDBRANCH  10  13
ENDBRANCH   5   7
BRANCH   1  21
ATOM     21  C   UNL     1       4.679   3.284  18.698  0.00  0.00    +0.000 C 
BRANCH  21  27
ATOM     22  C   UNL     1       6.028   5.315  17.758  0.00  0.00    +0.000 A 
ATOM     23  C   UNL     1       6.528   5.971  16.617  0.00  0.00    +0.000 A 
ATOM     24  C   UNL     1       6.257   5.514  15.327  0.00  0.00    +0.000 A 
ATOM     25  C   UNL     1       5.489   4.374  15.157  0.00  0.00    +0.000 A 
ATOM     26  C   UNL     1       4.989   3.716  16.277  0.00  0.00    +0.000 A 
ATOM     27  C   UNL     1       5.232   4.171  17.599  0.00  0.00    +0.000 A 
BRANCH  22  29
ATOM     28  C   UNL     1       7.883   5.708  19.229  0.00  0.00    +0.000 C 
ATOM     29  O   UNL     1       6.513   5.866  18.913  0.00  0.00    +0.000 OA
ENDBRANCH  22  29
ENDBRANCH  21  27
ENDBRANCH   1  21
TORSDOF 6
ENDMDL
