MODEL 1
REMARK VINA RESULT:      -8.0      0.000      0.000
REMARK  Name = 
REMARK  12 active torsions:
REMARK  status: ('A' for Active; 'I' for Inactive)
REMARK    1  A    between atoms: C_1  and  O_2
REMARK    2  A    between atoms: O_2  and  C_3
REMARK    3  A    between atoms: C_6  and  C_7
REMARK    4  A    between atoms: C_7  and  C_8
REMARK    5  A    between atoms: C_8  and  N_9
REMARK    6  A    between atoms: N_9  and  C_10
REMARK    7  A    between atoms: C_10  and  C_11
REMARK    8  A    between atoms: C_16  and  C_17
REMARK    9  A    between atoms: C_21  and  O_22
REMARK   10  A    between atoms: C_23  and  C_24
REMARK   11  A    between atoms: C_27  and  O_28
REMARK   12  A    between atoms: O_28  and  C_29
REMARK                            x       y       z     vdW  Elec       q    Type
REMARK                         _______ _______ _______ _____ _____    ______ ____
ROOT
ATOM      1  N   UNL     1       2.617   4.229  19.124  0.00  0.00    +0.000 N 
ATOM      2  C   UNL     1       2.056   3.262  19.962  0.00  0.00    +0.000 C 
ATOM      3  C   UNL     1       1.796   3.602  21.406  0.00  0.00    +0.000 C 
ATOM      4  O   UNL     1       1.784   2.133  19.540  0.00  0.00    +0.000 OA
ENDROOT
BRANCH   1   5
ATOM      5  C   UNL     1       2.953   3.891  17.724  0.00  0.00    +0.000 C 
BRANCH   5   6
ATOM      6  C   UNL     1       4.284   3.170  17.424  0.00  0.00    +0.000 C 
BRANCH   6  10
ATOM      7  C   UNL     1       7.034   5.049  14.634  0.00  0.00    +0.000 A 
ATOM      8  C   UNL     1       6.205   3.991  14.243  0.00  0.00    +0.000 A 
ATOM      9  C   UNL     1       5.306   3.416  15.144  0.00  0.00    +0.000 A 
ATOM     10  C   UNL     1       5.225   3.855  16.466  0.00  0.00    +0.000 A 
ATOM     11  C   UNL     1       6.096   4.877  16.878  0.00  0.00    +0.000 A 
ATOM     12  C   UNL     1       7.009   5.462  15.976  0.00  0.00    +0.000 A 
BRANCH   7  14
ATOM     13  C   UNL     1       7.780   5.162  12.403  0.00  0.00    +0.000 C 
ATOM     14  O   UNL     1       7.882   5.649  13.740  0.00  0.00    +0.000 OA
ENDBRANCH   7  14
BRANCH  12  15
ATOM     15  O   UNL     1       7.765   6.425  16.591  0.00  0.00    +0.000 OA
ATOM     16  C   UNL     1       7.252   7.066  17.747  0.00  0.00    +0.000 C 
ENDBRANCH  12  15
ENDBRANCH   6  10
ENDBRANCH   5   6
ENDBRANCH   1   5
BRANCH   1  17
ATOM     17  C   UNL     1       3.240   5.444  19.673  0.00  0.00    +0.000 C 
BRANCH  17  18
ATOM     18  C   UNL     1       2.445   6.707  19.453  0.00  0.00    +0.000 A 
ATOM     19  C   UNL     1       1.612   7.184  20.448  0.00  0.00    +0.000 A 
ATOM     20  C   UNL     1       1.248   8.521  20.415  0.00  0.00    +0.000 A 
ATOM     21  C   UNL     1       1.071   9.213  21.610  0.00  0.00    +0.000 A 
ATOM     22  C   UNL     1       0.717  10.550  21.584  0.00  0.00    +0.000 A 
ATOM     23  C   UNL     1       0.336  11.133  20.375  0.00  0.00    +0.000 A 
ATOM     24  C   UNL     1      -0.341  12.468  20.409  0.00  0.00    +0.000 C 
ATOM     25  C   UNL     1       0.597  10.443  19.178  0.00  0.00    +0.000 A 
ATOM     26  C   UNL     1       1.241   9.203  19.195  0.00  0.00    +0.000 A 
ATOM     27  N   UNL     1       1.931   8.700  18.153  0.00  0.00    +0.000 NA
ATOM     28  C   UNL     1       2.624   7.559  18.371  0.00  0.00    +0.000 A 
BRANCH  28  29
ATOM     29  O   UNL     1       3.719   7.390  17.573  0.00  0.00    +0.000 OA
ATOM     30  H   UNL     1       3.723   8.193  17.022  0.00  0.00    +0.000 HD
ENDBRANCH  28  29
ENDBRANCH  17  18
ENDBRANCH   1  17
TORSDOF 8
ENDMDL
MODEL 2
REMARK VINA RESULT:      -7.6      2.262      8.099
REMARK  Name = 
REMARK  12 active torsions:
REMARK  status: ('A' for Active; 'I' for Inactive)
REMARK    1  A    between atoms: C_1  and  O_2
REMARK    2  A    between atoms: O_2  and  C_3
REMARK    3  A    between atoms: C_6  and  C_7
REMARK    4  A    between atoms: C_7  and  C_8
REMARK    5  A    between atoms: C_8  and  N_9
REMARK    6  A    between atoms: N_9  and  C_10
REMARK    7  A    between atoms: C_10  and  C_11
REMARK    8  A    between atoms: C_16  and  C_17
REMARK    9  A    between atoms: C_21  and  O_22
REMARK   10  A    between atoms: C_23  and  C_24
REMARK   11  A    between atoms: C_27  and  O_28
REMARK   12  A    between atoms: O_28  and  C_29
REMARK                            x       y       z     vdW  Elec       q    Type
REMARK                         _______ _______ _______ _____ _____    ______ ____
ROOT
ATOM      1  N   UNL     1       3.655   4.852  18.954  0.00  0.00    +0.000 N 
ATOM      2  C   UNL     1       3.309   3.533  19.258  0.00  0.00    +0.000 C 
ATOM      3  C   UNL     1       4.305   2.658  19.973  0.00  0.00    +0.000 C 
ATOM      4  O   UNL     1       2.208   3.073  18.939  0.00  0.00    +0.000 OA
ENDROOT
BRANCH   1   5
ATOM      5  C   UNL     1       2.722   5.703  18.184  0.00  0.00    +0.000 C 
BRANCH   5   6
ATOM      6  C   UNL     1       2.952   7.229  18.150  0.00  0.00    +0.000 C 
BRANCH   6  10
ATOM      7  C   UNL     1       0.380   9.559  20.764  0.00  0.00    +0.000 A 
ATOM      8  C   UNL     1       0.962   8.359  21.191  0.00  0.00    +0.000 A 
ATOM      9  C   UNL     1       1.809   7.637  20.349  0.00  0.00    +0.000 A 
ATOM     10  C   UNL     1       2.079   8.067  19.049  0.00  0.00    +0.000 A 
ATOM     11  C   UNL     1       1.450   9.239  18.597  0.00  0.00    +0.000 A 
ATOM     12  C   UNL     1       0.592   9.975  19.440  0.00  0.00    +0.000 A 
BRANCH   7  14
ATOM     13  C   UNL     1      -0.458   9.824  22.949  0.00  0.00    +0.000 C 
ATOM     14  O   UNL     1      -0.412  10.297  21.605  0.00  0.00    +0.000 OA
ENDBRANCH   7  14
BRANCH  12  15
ATOM     15  O   UNL     1       0.081  11.070  18.793  0.00  0.00    +0.000 OA
ATOM     16  C   UNL     1       0.764  12.308  18.896  0.00  0.00    +0.000 C 
ENDBRANCH  12  15
ENDBRANCH   6  10
ENDBRANCH   5   6
ENDBRANCH   1   5
BRANCH   1  17
ATOM     17  C   UNL     1       5.051   5.310  19.029  0.00  0.00    +0.000 C 
BRANCH  17  18
ATOM     18  C   UNL     1       5.822   5.175  17.739  0.00  0.00    +0.000 A 
ATOM     19  C   UNL     1       5.595   4.096  16.905  0.00  0.00    +0.000 A 
ATOM     20  C   UNL     1       5.960   4.207  15.573  0.00  0.00    +0.000 A 
ATOM     21  C   UNL     1       5.192   3.578  14.598  0.00  0.00    +0.000 A 
ATOM     22  C   UNL     1       5.546   3.693  13.265  0.00  0.00    +0.000 A 
ATOM     23  C   UNL     1       6.779   4.254  12.930  0.00  0.00    +0.000 A 
ATOM     24  C   UNL     1       7.284   4.085  11.531  0.00  0.00    +0.000 C 
ATOM     25  C   UNL     1       7.497   4.949  13.919  0.00  0.00    +0.000 A 
ATOM     26  C   UNL     1       6.980   5.090  15.210  0.00  0.00    +0.000 A 
ATOM     27  N   UNL     1       7.330   6.080  16.055  0.00  0.00    +0.000 NA
ATOM     28  C   UNL     1       6.634   6.171  17.212  0.00  0.00    +0.000 A 
BRANCH  28  29
ATOM     29  O   UNL     1       6.572   7.426  17.748  0.00  0.00    +0.000 OA
ATOM     30  H   UNL     1       5.806   7.377  18.349  0.00  0.00    +0.000 HD
ENDBRANCH  28  29
ENDBRANCH  17  18
ENDBRANCH   1  17
TORSDOF 8
ENDMDL
MODEL 3
REMARK VINA RESULT:      -7.4      2.195      7.533
REMARK  Name = 
REMARK  12 active torsions:
REMARK  status: ('A' for Active; 'I' for Inactive)
REMARK    1  A    between atoms: C_1  and  O_2
REMARK    2  A    between atoms: O_2  and  C_3
REMARK    3  A    between atoms: C_6  and  C_7
REMARK    4  A    between atoms: C_7  and  C_8
REMARK    5  A    between atoms: C_8  and  N_9
REMARK    6  A    between atoms: N_9  and  C_10
REMARK    7  A    between atoms: C_10  and  C_11
REMARK    8  A    between atoms: C_16  and  C_17
REMARK    9  A    between atoms: C_21  and  O_22
REMARK   10  A    between atoms: C_23  and  C_24
REMARK   11  A    between atoms: C_27  and  O_28
REMARK   12  A    between atoms: O_28  and  C_29
REMARK                            x       y       z     vdW  Elec       q    Type
REMARK                         _______ _______ _______ _____ _____    ______ ____
ROOT
ATOM      1  N   UNL     1       2.891   4.338  19.661  0.00  0.00    +0.000 N 
ATOM      2  C   UNL     1       1.797   4.138  20.506  0.00  0.00    +0.000 C 
ATOM      3  C   UNL     1       1.914   3.151  21.639  0.00  0.00    +0.000 C 
ATOM      4  O   UNL     1       0.737   4.747  20.331  0.00  0.00    +0.000 OA
ENDROOT
BRANCH   1   5
ATOM      5  C   UNL     1       2.773   5.243  18.497  0.00  0.00    +0.000 C 
BRANCH   5   6
ATOM      6  C   UNL     1       3.308   6.686  18.610  0.00  0.00    +0.000 C 
BRANCH   6  10
ATOM      7  C   UNL     1       0.430   9.891  19.175  0.00  0.00    +0.000 A 
ATOM      8  C   UNL     1       1.041   9.667  17.935  0.00  0.00    +0.000 A 
ATOM      9  C   UNL     1       1.942   8.614  17.762  0.00  0.00    +0.000 A 
ATOM     10  C   UNL     1       2.287   7.774  18.821  0.00  0.00    +0.000 A 
ATOM     11  C   UNL     1       1.722   8.032  20.081  0.00  0.00    +0.000 A 
ATOM     12  C   UNL     1       0.812   9.094  20.266  0.00  0.00    +0.000 A 
BRANCH   7  14
ATOM     13  C   UNL     1      -1.332  11.117  18.205  0.00  0.00    +0.000 C 
ATOM     14  O   UNL     1      -0.493  10.892  19.336  0.00  0.00    +0.000 OA
ENDBRANCH   7  14
BRANCH  12  15
ATOM     15  O   UNL     1       0.398   9.170  21.570  0.00  0.00    +0.000 OA
ATOM     16  C   UNL     1       1.371   9.156  22.601  0.00  0.00    +0.000 C 
ENDBRANCH  12  15
ENDBRANCH   6  10
ENDBRANCH   5   6
ENDBRANCH   1   5
BRANCH   1  17
ATOM     17  C   UNL     1       4.027   3.402  19.650  0.00  0.00    +0.000 C 
BRANCH  17  18
ATOM     18  C   UNL     1       5.044   3.668  18.568  0.00  0.00    +0.000 A 
ATOM     19  C   UNL     1       4.803   3.253  17.272  0.00  0.00    +0.000 A 
ATOM     20  C   UNL     1       5.500   3.868  16.244  0.00  0.00    +0.000 A 
ATOM     21  C   UNL     1       4.880   4.059  15.014  0.00  0.00    +0.000 A 
ATOM     22  C   UNL     1       5.568   4.681  13.986  0.00  0.00    +0.000 A 
ATOM     23  C   UNL     1       6.936   4.917  14.124  0.00  0.00    +0.000 A 
ATOM     24  C   UNL     1       7.722   5.290  12.905  0.00  0.00    +0.000 C 
ATOM     25  C   UNL     1       7.521   4.789  15.396  0.00  0.00    +0.000 A 
ATOM     26  C   UNL     1       6.744   4.447  16.508  0.00  0.00    +0.000 A 
ATOM     27  N   UNL     1       7.080   4.745  17.778  0.00  0.00    +0.000 NA
ATOM     28  C   UNL     1       6.156   4.483  18.732  0.00  0.00    +0.000 A 
BRANCH  28  29
ATOM     29  O   UNL     1       6.237   5.275  19.842  0.00  0.00    +0.000 OA
ATOM     30  H   UNL     1       5.962   6.151  19.515  0.00  0.00    +0.000 HD
ENDBRANCH  28  29
ENDBRANCH  17  18
ENDBRANCH   1  17
TORSDOF 8
ENDMDL
MODEL 4
REMARK VINA RESULT:      -7.4      2.236      8.033
REMARK  Name = 
REMARK  12 active torsions:
REMARK  status: ('A' for Active; 'I' for Inactive)
REMARK    1  A    between atoms: C_1  and  O_2
REMARK    2  A    between atoms: O_2  and  C_3
REMARK    3  A    between atoms: C_6  and  C_7
REMARK    4  A    between atoms: C_7  and  C_8
REMARK    5  A    between atoms: C_8  and  N_9
REMARK    6  A    between atoms: N_9  and  C_10
REMARK    7  A    between atoms: C_10  and  C_11
REMARK    8  A    between atoms: C_16  and  C_17
REMARK    9  A    between atoms: C_21  and  O_22
REMARK   10  A    between atoms: C_23  and  C_24
REMARK   11  A    between atoms: C_27  and  O_28
REMARK   12  A    between atoms: O_28  and  C_29
REMARK                            x       y       z     vdW  Elec       q    Type
REMARK                         _______ _______ _______ _____ _____    ______ ____
ROOT
ATOM      1  N   UNL     1       3.602   5.016  18.875  0.00  0.00    +0.000 N 
ATOM      2  C   UNL     1       3.096   3.758  19.213  0.00  0.00    +0.000 C 
ATOM      3  C   UNL     1       3.959   2.805  19.999  0.00  0.00    +0.000 C 
ATOM      4  O   UNL     1       1.961   3.414  18.868  0.00  0.00    +0.000 OA
ENDROOT
BRANCH   1   5
ATOM      5  C   UNL     1       2.802   5.935  18.039  0.00  0.00    +0.000 C 
BRANCH   5   6
ATOM      6  C   UNL     1       3.122   7.445  18.064  0.00  0.00    +0.000 C 
BRANCH   6  10
ATOM      7  C   UNL     1       0.108  10.152  19.631  0.00  0.00    +0.000 A 
ATOM      8  C   UNL     1       0.629  10.307  18.341  0.00  0.00    +0.000 A 
ATOM      9  C   UNL     1       1.577   9.411  17.841  0.00  0.00    +0.000 A 
ATOM     10  C   UNL     1       2.056   8.356  18.618  0.00  0.00    +0.000 A 
ATOM     11  C   UNL     1       1.580   8.232  19.933  0.00  0.00    +0.000 A 
ATOM     12  C   UNL     1       0.624   9.133  20.448  0.00  0.00    +0.000 A 
BRANCH   7  14
ATOM     13  C   UNL     1      -0.362  12.179  20.735  0.00  0.00    +0.000 C 
ATOM     14  O   UNL     1      -0.859  11.000  20.107  0.00  0.00    +0.000 OA
ENDBRANCH   7  14
BRANCH  12  15
ATOM     15  O   UNL     1       0.312   8.835  21.748  0.00  0.00    +0.000 OA
ATOM     16  C   UNL     1       1.197   9.244  22.777  0.00  0.00    +0.000 C 
ENDBRANCH  12  15
ENDBRANCH   6  10
ENDBRANCH   5   6
ENDBRANCH   1   5
BRANCH   1  17
ATOM     17  C   UNL     1       5.039   5.314  18.989  0.00  0.00    +0.000 C 
BRANCH  17  18
ATOM     18  C   UNL     1       5.811   5.163  17.701  0.00  0.00    +0.000 A 
ATOM     19  C   UNL     1       5.555   4.096  16.861  0.00  0.00    +0.000 A 
ATOM     20  C   UNL     1       5.929   4.203  15.530  0.00  0.00    +0.000 A 
ATOM     21  C   UNL     1       5.147   3.603  14.548  0.00  0.00    +0.000 A 
ATOM     22  C   UNL     1       5.509   3.715  13.217  0.00  0.00    +0.000 A 
ATOM     23  C   UNL     1       6.760   4.241  12.891  0.00  0.00    +0.000 A 
ATOM     24  C   UNL     1       7.265   4.063  11.493  0.00  0.00    +0.000 C 
ATOM     25  C   UNL     1       7.494   4.908  13.887  0.00  0.00    +0.000 A 
ATOM     26  C   UNL     1       6.977   5.057  15.177  0.00  0.00    +0.000 A 
ATOM     27  N   UNL     1       7.352   6.031  16.029  0.00  0.00    +0.000 NA
ATOM     28  C   UNL     1       6.654   6.137  17.183  0.00  0.00    +0.000 A 
BRANCH  28  29
ATOM     29  O   UNL     1       6.628   7.390  17.726  0.00  0.00    +0.000 OA
ATOM     30  H   UNL     1       6.732   7.224  18.680  0.00  0.00    +0.000 HD
ENDBRANCH  28  29
ENDBRANCH  17  18
ENDBRANCH   1  17
TORSDOF 8
ENDMDL
MODEL 5
REMARK VINA RESULT:      -7.3      2.590      6.826
REMARK  Name = 
REMARK  12 active torsions:
REMARK  status: ('A' for Active; 'I' for Inactive)
REMARK    1  A    between atoms: C_1  and  O_2
REMARK    2  A    between atoms: O_2  and  C_3
REMARK    3  A    between atoms: C_6  and  C_7
REMARK    4  A    between atoms: C_7  and  C_8
REMARK    5  A    between atoms: C_8  and  N_9
REMARK    6  A    between atoms: N_9  and  C_10
REMARK    7  A    between atoms: C_10  and  C_11
REMARK    8  A    between atoms: C_16  and  C_17
REMARK    9  A    between atoms: C_21  and  O_22
REMARK   10  A    between atoms: C_23  and  C_24
REMARK   11  A    between atoms: C_27  and  O_28
REMARK   12  A    between atoms: O_28  and  C_29
REMARK                            x       y       z     vdW  Elec       q    Type
REMARK                         _______ _______ _______ _____ _____    ______ ____
ROOT
ATOM      1  N   UNL     1       3.074   3.717  18.028  0.00  0.00    +0.000 N 
ATOM      2  C   UNL     1       2.648   2.493  18.548  0.00  0.00    +0.000 C 
ATOM      3  C   UNL     1       3.466   1.256  18.279  0.00  0.00    +0.000 C 
ATOM      4  O   UNL     1       1.610   2.409  19.210  0.00  0.00    +0.000 OA
ENDROOT
BRANCH   1   5
ATOM      5  C   UNL     1       2.247   4.928  18.213  0.00  0.00    +0.000 C 
BRANCH   5   6
ATOM      6  C   UNL     1       2.567   5.887  19.379  0.00  0.00    +0.000 C 
BRANCH   6  10
ATOM      7  C   UNL     1       1.324  10.023  18.911  0.00  0.00    +0.000 A 
ATOM      8  C   UNL     1       1.878   9.302  17.847  0.00  0.00    +0.000 A 
ATOM      9  C   UNL     1       2.246   7.964  18.006  0.00  0.00    +0.000 A 
ATOM     10  C   UNL     1       2.104   7.314  19.232  0.00  0.00    +0.000 A 
ATOM     11  C   UNL     1       1.604   8.051  20.318  0.00  0.00    +0.000 A 
ATOM     12  C   UNL     1       1.231   9.403  20.168  0.00  0.00    +0.000 A 
BRANCH   7  14
ATOM     13  C   UNL     1      -0.496  11.494  18.651  0.00  0.00    +0.000 C 
ATOM     14  O   UNL     1       0.916  11.322  18.746  0.00  0.00    +0.000 OA
ENDBRANCH   7  14
BRANCH  12  15
ATOM     15  O   UNL     1       0.784   9.928  21.352  0.00  0.00    +0.000 OA
ATOM     16  C   UNL     1       0.109   9.081  22.267  0.00  0.00    +0.000 C 
ENDBRANCH  12  15
ENDBRANCH   6  10
ENDBRANCH   5   6
ENDBRANCH   1   5
BRANCH   1  17
ATOM     17  C   UNL     1       4.108   3.783  16.982  0.00  0.00    +0.000 C 
BRANCH  17  18
ATOM     18  C   UNL     1       5.324   4.593  17.357  0.00  0.00    +0.000 A 
ATOM     19  C   UNL     1       5.645   5.733  16.644  0.00  0.00    +0.000 A 
ATOM     20  C   UNL     1       6.464   6.676  17.244  0.00  0.00    +0.000 A 
ATOM     21  C   UNL     1       6.264   8.027  16.977  0.00  0.00    +0.000 A 
ATOM     22  C   UNL     1       7.072   8.974  17.582  0.00  0.00    +0.000 A 
ATOM     23  C   UNL     1       8.206   8.559  18.281  0.00  0.00    +0.000 A 
ATOM     24  C   UNL     1       9.230   9.587  18.652  0.00  0.00    +0.000 C 
ATOM     25  C   UNL     1       8.343   7.198  18.604  0.00  0.00    +0.000 A 
ATOM     26  C   UNL     1       7.355   6.277  18.245  0.00  0.00    +0.000 A 
ATOM     27  N   UNL     1       7.157   5.103  18.877  0.00  0.00    +0.000 NA
ATOM     28  C   UNL     1       6.068   4.388  18.512  0.00  0.00    +0.000 A 
BRANCH  28  29
ATOM     29  O   UNL     1       5.565   3.570  19.484  0.00  0.00    +0.000 OA
ATOM     30  H   UNL     1       6.361   3.154  19.862  0.00  0.00    +0.000 HD
ENDBRANCH  28  29
ENDBRANCH  17  18
ENDBRANCH   1  17
TORSDOF 8
ENDMDL
MODEL 6
REMARK VINA RESULT:      -7.2      4.666     10.485
REMARK  Name = 
REMARK  12 active torsions:
REMARK  status: ('A' for Active; 'I' for Inactive)
REMARK    1  A    between atoms: C_1  and  O_2
REMARK    2  A    between atoms: O_2  and  C_3
REMARK    3  A    between atoms: C_6  and  C_7
REMARK    4  A    between atoms: C_7  and  C_8
REMARK    5  A    between atoms: C_8  and  N_9
REMARK    6  A    between atoms: N_9  and  C_10
REMARK    7  A    between atoms: C_10  and  C_11
REMARK    8  A    between atoms: C_16  and  C_17
REMARK    9  A    between atoms: C_21  and  O_22
REMARK   10  A    between atoms: C_23  and  C_24
REMARK   11  A    between atoms: C_27  and  O_28
REMARK   12  A    between atoms: O_28  and  C_29
REMARK                            x       y       z     vdW  Elec       q    Type
REMARK                         _______ _______ _______ _____ _____    ______ ____
ROOT
ATOM      1  N   UNL     1      -0.417  11.114  21.173  0.00  0.00    +0.000 N 
ATOM      2  C   UNL     1      -0.516  11.017  22.563  0.00  0.00    +0.000 C 
ATOM      3  C   UNL     1      -0.569   9.654  23.202  0.00  0.00    +0.000 C 
ATOM      4  O   UNL     1      -0.573  12.028  23.270  0.00  0.00    +0.000 OA
ENDROOT
BRANCH   1   5
ATOM      5  C   UNL     1      -0.443  12.441  20.520  0.00  0.00    +0.000 C 
BRANCH   5   6
ATOM      6  C   UNL     1      -1.629  12.804  19.602  0.00  0.00    +0.000 C 
BRANCH   6  10
ATOM      7  C   UNL     1      -5.648  12.457  21.214  0.00  0.00    +0.000 A 
ATOM      8  C   UNL     1      -5.358  12.105  19.890  0.00  0.00    +0.000 A 
ATOM      9  C   UNL     1      -4.056  12.194  19.396  0.00  0.00    +0.000 A 
ATOM     10  C   UNL     1      -3.010  12.666  20.190  0.00  0.00    +0.000 A 
ATOM     11  C   UNL     1      -3.307  13.077  21.500  0.00  0.00    +0.000 A 
ATOM     12  C   UNL     1      -4.620  12.991  22.008  0.00  0.00    +0.000 A 
BRANCH   7  14
ATOM     13  C   UNL     1      -7.753  11.424  20.995  0.00  0.00    +0.000 C 
ATOM     14  O   UNL     1      -6.916  12.323  21.718  0.00  0.00    +0.000 OA
ENDBRANCH   7  14
BRANCH  12  15
ATOM     15  O   UNL     1      -4.684  13.455  23.295  0.00  0.00    +0.000 OA
ATOM     16  C   UNL     1      -4.229  12.622  24.348  0.00  0.00    +0.000 C 
ENDBRANCH  12  15
ENDBRANCH   6  10
ENDBRANCH   5   6
ENDBRANCH   1   5
BRANCH   1  17
ATOM     17  C   UNL     1      -0.675   9.952  20.307  0.00  0.00    +0.000 C 
BRANCH  17  18
ATOM     18  C   UNL     1       0.537   9.446  19.566  0.00  0.00    +0.000 A 
ATOM     19  C   UNL     1       1.363   8.503  20.149  0.00  0.00    +0.000 A 
ATOM     20  C   UNL     1       2.180   7.745  19.326  0.00  0.00    +0.000 A 
ATOM     21  C   UNL     1       2.451   6.421  19.660  0.00  0.00    +0.000 A 
ATOM     22  C   UNL     1       3.258   5.656  18.836  0.00  0.00    +0.000 A 
ATOM     23  C   UNL     1       3.959   6.274  17.800  0.00  0.00    +0.000 A 
ATOM     24  C   UNL     1       5.058   5.510  17.128  0.00  0.00    +0.000 C 
ATOM     25  C   UNL     1       3.611   7.586  17.435  0.00  0.00    +0.000 A 
ATOM     26  C   UNL     1       2.571   8.256  18.085  0.00  0.00    +0.000 A 
ATOM     27  N   UNL     1       1.874   9.271  17.538  0.00  0.00    +0.000 NA
ATOM     28  C   UNL     1       0.800   9.717  18.230  0.00  0.00    +0.000 A 
BRANCH  28  29
ATOM     29  O   UNL     1      -0.183  10.278  17.465  0.00  0.00    +0.000 OA
ATOM     30  H   UNL     1       0.311  10.826  16.828  0.00  0.00    +0.000 HD
ENDBRANCH  28  29
ENDBRANCH  17  18
ENDBRANCH   1  17
TORSDOF 8
ENDMDL
MODEL 7
REMARK VINA RESULT:      -7.2      2.020      2.445
REMARK  Name = 
REMARK  12 active torsions:
REMARK  status: ('A' for Active; 'I' for Inactive)
REMARK    1  A    between atoms: C_1  and  O_2
REMARK    2  A    between atoms: O_2  and  C_3
REMARK    3  A    between atoms: C_6  and  C_7
REMARK    4  A    between atoms: C_7  and  C_8
REMARK    5  A    between atoms: C_8  and  N_9
REMARK    6  A    between atoms: N_9  and  C_10
REMARK    7  A    between atoms: C_10  and  C_11
REMARK    8  A    between atoms: C_16  and  C_17
REMARK    9  A    between atoms: C_21  and  O_22
REMARK   10  A    between atoms: C_23  and  C_24
REMARK   11  A    between atoms: C_27  and  O_28
REMARK   12  A    between atoms: O_28  and  C_29
REMARK                            x       y       z     vdW  Elec       q    Type
REMARK                         _______ _______ _______ _____ _____    ______ ____
ROOT
ATOM      1  N   UNL     1       2.363   4.966  19.226  0.00  0.00    +0.000 N 
ATOM      2  C   UNL     1       2.156   3.835  20.018  0.00  0.00    +0.000 C 
ATOM      3  C   UNL     1       2.160   3.977  21.519  0.00  0.00    +0.000 C 
ATOM      4  O   UNL     1       1.982   2.723  19.509  0.00  0.00    +0.000 OA
ENDROOT
BRANCH   1   5
ATOM      5  C   UNL     1       2.441   4.836  17.756  0.00  0.00    +0.000 C 
BRANCH   5   6
ATOM      6  C   UNL     1       3.768   4.387  17.109  0.00  0.00    +0.000 C 
BRANCH   6  10
ATOM      7  C   UNL     1       7.262   6.886  17.764  0.00  0.00    +0.000 A 
ATOM      8  C   UNL     1       6.207   7.304  16.944  0.00  0.00    +0.000 A 
ATOM      9  C   UNL     1       5.078   6.502  16.767  0.00  0.00    +0.000 A 
ATOM     10  C   UNL     1       4.977   5.249  17.372  0.00  0.00    +0.000 A 
ATOM     11  C   UNL     1       6.059   4.800  18.147  0.00  0.00    +0.000 A 
ATOM     12  C   UNL     1       7.204   5.602  18.331  0.00  0.00    +0.000 A 
BRANCH   7  14
ATOM     13  C   UNL     1       8.088   9.089  17.869  0.00  0.00    +0.000 C 
ATOM     14  O   UNL     1       8.350   7.692  17.980  0.00  0.00    +0.000 OA
ENDBRANCH   7  14
BRANCH  12  15
ATOM     15  O   UNL     1       8.136   4.966  19.108  0.00  0.00    +0.000 OA
ATOM     16  C   UNL     1       8.276   5.349  20.465  0.00  0.00    +0.000 C 
ENDBRANCH  12  15
ENDBRANCH   6  10
ENDBRANCH   5   6
ENDBRANCH   1   5
BRANCH   1  17
ATOM     17  C   UNL     1       2.889   6.214  19.803  0.00  0.00    +0.000 C 
BRANCH  17  18
ATOM     18  C   UNL     1       1.883   7.335  19.887  0.00  0.00    +0.000 A 
ATOM     19  C   UNL     1       1.087   7.470  21.008  0.00  0.00    +0.000 A 
ATOM     20  C   UNL     1       0.511   8.705  21.261  0.00  0.00    +0.000 A 
ATOM     21  C   UNL     1       0.343   9.126  22.577  0.00  0.00    +0.000 A 
ATOM     22  C   UNL     1      -0.223  10.362  22.835  0.00  0.00    +0.000 A 
ATOM     23  C   UNL     1      -0.810  11.078  21.792  0.00  0.00    +0.000 A 
ATOM     24  C   UNL     1      -1.686  12.244  22.130  0.00  0.00    +0.000 C 
ATOM     25  C   UNL     1      -0.560  10.673  20.469  0.00  0.00    +0.000 A 
ATOM     26  C   UNL     1       0.274   9.584  20.201  0.00  0.00    +0.000 A 
ATOM     27  N   UNL     1       0.931   9.409  19.037  0.00  0.00    +0.000 NA
ATOM     28  C   UNL     1       1.816   8.387  18.983  0.00  0.00    +0.000 A 
BRANCH  28  29
ATOM     29  O   UNL     1       2.841   8.562  18.097  0.00  0.00    +0.000 OA
ATOM     30  H   UNL     1       3.536   8.982  18.635  0.00  0.00    +0.000 HD
ENDBRANCH  28  29
ENDBRANCH  17  18
ENDBRANCH   1  17
TORSDOF 8
ENDMDL
MODEL 8
REMARK VINA RESULT:      -7.1      2.293      7.892
REMARK  Name = 
REMARK  12 active torsions:
REMARK  status: ('A' for Active; 'I' for Inactive)
REMARK    1  A    between atoms: C_1  and  O_2
REMARK    2  A    between atoms: O_2  and  C_3
REMARK    3  A    between atoms: C_6  and  C_7
REMARK    4  A    between atoms: C_7  and  C_8
REMARK    5  A    between atoms: C_8  and  N_9
REMARK    6  A    between atoms: N_9  and  C_10
REMARK    7  A    between atoms: C_10  and  C_11
REMARK    8  A    between atoms: C_16  and  C_17
REMARK    9  A    between atoms: C_21  and  O_22
REMARK   10  A    between atoms: C_23  and  C_24
REMARK   11  A    between atoms: C_27  and  O_28
REMARK   12  A    between atoms: O_28  and  C_29
REMARK                            x       y       z     vdW  Elec       q    Type
REMARK                         _______ _______ _______ _____ _____    ______ ____
ROOT
ATOM      1  N   UNL     1       2.927   4.289  19.454  0.00  0.00    +0.000 N 
ATOM      2  C   UNL     1       1.985   3.425  18.889  0.00  0.00    +0.000 C 
ATOM      3  C   UNL     1       2.256   1.942  18.888  0.00  0.00    +0.000 C 
ATOM      4  O   UNL     1       0.946   3.858  18.382  0.00  0.00    +0.000 OA
ENDROOT
BRANCH   1   5
ATOM      5  C   UNL     1       2.718   5.751  19.395  0.00  0.00    +0.000 C 
BRANCH   5   6
ATOM      6  C   UNL     1       2.023   6.459  20.577  0.00  0.00    +0.000 C 
BRANCH   6  10
ATOM      7  C   UNL     1       0.851  10.584  19.879  0.00  0.00    +0.000 A 
ATOM      8  C   UNL     1       1.292   9.762  18.835  0.00  0.00    +0.000 A 
ATOM      9  C   UNL     1       1.637   8.430  19.070  0.00  0.00    +0.000 A 
ATOM     10  C   UNL     1       1.586   7.884  20.354  0.00  0.00    +0.000 A 
ATOM     11  C   UNL     1       1.201   8.722  21.414  0.00  0.00    +0.000 A 
ATOM     12  C   UNL     1       0.852  10.069  21.186  0.00  0.00    +0.000 A 
BRANCH   7  14
ATOM     13  C   UNL     1      -0.548  12.025  18.649  0.00  0.00    +0.000 C 
ATOM     14  O   UNL     1       0.464  11.877  19.643  0.00  0.00    +0.000 OA
ENDBRANCH   7  14
BRANCH  12  15
ATOM     15  O   UNL     1       0.524  10.701  22.356  0.00  0.00    +0.000 OA
ATOM     16  C   UNL     1      -0.819  10.652  22.809  0.00  0.00    +0.000 C 
ENDBRANCH  12  15
ENDBRANCH   6  10
ENDBRANCH   5   6
ENDBRANCH   1   5
BRANCH   1  17
ATOM     17  C   UNL     1       4.292   3.833  19.760  0.00  0.00    +0.000 C 
BRANCH  17  18
ATOM     18  C   UNL     1       5.269   3.978  18.619  0.00  0.00    +0.000 A 
ATOM     19  C   UNL     1       4.915   3.569  17.347  0.00  0.00    +0.000 A 
ATOM     20  C   UNL     1       5.611   4.093  16.270  0.00  0.00    +0.000 A 
ATOM     21  C   UNL     1       4.945   4.326  15.071  0.00  0.00    +0.000 A 
ATOM     22  C   UNL     1       5.633   4.859  13.995  0.00  0.00    +0.000 A 
ATOM     23  C   UNL     1       7.023   4.958  14.053  0.00  0.00    +0.000 A 
ATOM     24  C   UNL     1       7.773   5.231  12.786  0.00  0.00    +0.000 C 
ATOM     25  C   UNL     1       7.662   4.793  15.295  0.00  0.00    +0.000 A 
ATOM     26  C   UNL     1       6.920   4.550  16.453  0.00  0.00    +0.000 A 
ATOM     27  N   UNL     1       7.353   4.833  17.697  0.00  0.00    +0.000 NA
ATOM     28  C   UNL     1       6.463   4.680  18.704  0.00  0.00    +0.000 A 
BRANCH  28  29
ATOM     29  O   UNL     1       6.684   5.478  19.791  0.00  0.00    +0.000 OA
ATOM     30  H   UNL     1       7.274   6.172  19.446  0.00  0.00    +0.000 HD
ENDBRANCH  28  29
ENDBRANCH  17  18
ENDBRANCH   1  17
TORSDOF 8
ENDMDL
MODEL 9
REMARK VINA RESULT:      -7.1      3.888      9.407
REMARK  Name = 
REMARK  12 active torsions:
REMARK  status: ('A' for Active; 'I' for Inactive)
REMARK    1  A    between atoms: C_1  and  O_2
REMARK    2  A    between atoms: O_2  and  C_3
REMARK    3  A    between atoms: C_6  and  C_7
REMARK    4  A    between atoms: C_7  and  C_8
REMARK    5  A    between atoms: C_8  and  N_9
REMARK    6  A    between atoms: N_9  and  C_10
REMARK    7  A    between atoms: C_10  and  C_11
REMARK    8  A    between atoms: C_16  and  C_17
REMARK    9  A    between atoms: C_21  and  O_22
REMARK   10  A    between atoms: C_23  and  C_24
REMARK   11  A    between atoms: C_27  and  O_28
REMARK   12  A    between atoms: O_28  and  C_29
REMARK                            x       y       z     vdW  Elec       q    Type
REMARK                         _______ _______ _______ _____ _____    ______ ____
ROOT
ATOM      1  N   UNL     1       0.052  11.013  20.982  0.00  0.00    +0.000 N 
ATOM      2  C   UNL     1      -0.343  11.220  22.306  0.00  0.00    +0.000 C 
ATOM      3  C   UNL     1      -0.791  10.042  23.131  0.00  0.00    +0.000 C 
ATOM      4  O   UNL     1      -0.342  12.351  22.802  0.00  0.00    +0.000 OA
ENDROOT
BRANCH   1   5
ATOM      5  C   UNL     1       0.420  12.164  20.131  0.00  0.00    +0.000 C 
BRANCH   5   6
ATOM      6  C   UNL     1      -0.679  13.153  19.687  0.00  0.00    +0.000 C 
BRANCH   6  10
ATOM      7  C   UNL     1      -4.432  11.390  18.388  0.00  0.00    +0.000 A 
ATOM      8  C   UNL     1      -4.350  12.160  19.554  0.00  0.00    +0.000 A 
ATOM      9  C   UNL     1      -3.143  12.744  19.943  0.00  0.00    +0.000 A 
ATOM     10  C   UNL     1      -1.975  12.555  19.203  0.00  0.00    +0.000 A 
ATOM     11  C   UNL     1      -2.039  11.735  18.064  0.00  0.00    +0.000 A 
ATOM     12  C   UNL     1      -3.254  11.139  17.665  0.00  0.00    +0.000 A 
BRANCH   7  14
ATOM     13  C   UNL     1      -6.754  11.709  18.160  0.00  0.00    +0.000 C 
ATOM     14  O   UNL     1      -5.625  10.857  17.976  0.00  0.00    +0.000 OA
ENDBRANCH   7  14
BRANCH  12  15
ATOM     15  O   UNL     1      -3.085  10.374  16.541  0.00  0.00    +0.000 OA
ATOM     16  C   UNL     1      -3.424  10.923  15.279  0.00  0.00    +0.000 C 
ENDBRANCH  12  15
ENDBRANCH   6  10
ENDBRANCH   5   6
ENDBRANCH   1   5
BRANCH   1  17
ATOM     17  C   UNL     1      -0.249   9.752  20.285  0.00  0.00    +0.000 C 
BRANCH  17  18
ATOM     18  C   UNL     1       0.928   9.140  19.567  0.00  0.00    +0.000 A 
ATOM     19  C   UNL     1       1.661   8.135  20.169  0.00  0.00    +0.000 A 
ATOM     20  C   UNL     1       2.425   7.305  19.363  0.00  0.00    +0.000 A 
ATOM     21  C   UNL     1       2.577   5.966  19.709  0.00  0.00    +0.000 A 
ATOM     22  C   UNL     1       3.330   5.129  18.902  0.00  0.00    +0.000 A 
ATOM     23  C   UNL     1       4.098   5.679  17.876  0.00  0.00    +0.000 A 
ATOM     24  C   UNL     1       5.139   4.820  17.226  0.00  0.00    +0.000 C 
ATOM     25  C   UNL     1       3.868   7.013  17.497  0.00  0.00    +0.000 A 
ATOM     26  C   UNL     1       2.878   7.773  18.127  0.00  0.00    +0.000 A 
ATOM     27  N   UNL     1       2.278   8.839  17.563  0.00  0.00    +0.000 NA
ATOM     28  C   UNL     1       1.234   9.379  18.234  0.00  0.00    +0.000 A 
BRANCH  28  29
ATOM     29  O   UNL     1       0.315  10.017  17.449  0.00  0.00    +0.000 OA
ATOM     30  H   UNL     1       0.517   9.689  16.554  0.00  0.00    +0.000 HD
ENDBRANCH  28  29
ENDBRANCH  17  18
ENDBRANCH   1  17
TORSDOF 8
ENDMDL
