MODEL 1
REMARK VINA RESULT:      -6.5      0.000      0.000
REMARK  Name = 
REMARK  5 active torsions:
REMARK  status: ('A' for Active; 'I' for Inactive)
REMARK    1  A    between atoms: C_2  and  C_3
REMARK    2  A    between atoms: C_3  and  N_4
REMARK    3  A    between atoms: C_7  and  C_8
REMARK    4  A    between atoms: C_9  and  C_10
REMARK    5  A    between atoms: C_13  and  C_14
REMARK                            x       y       z     vdW  Elec       q    Type
REMARK                         _______ _______ _______ _____ _____    ______ ____
ROOT
ATOM      1  C   UNL     1       3.930   6.304  18.390  0.00  0.00    +0.000 C 
ATOM      2  C   UNL     1       3.310   7.318  17.766  0.00  0.00    +0.000 C 
ENDROOT
BRANCH   1   6
ATOM      3  N   UNL     1       3.915   2.634  18.173  0.00  0.00    +0.000 NA
ATOM      4  C   UNL     1       3.261   3.535  17.207  0.00  0.00    +0.000 C 
ATOM      5  C   UNL     1       4.248   4.551  16.638  0.00  0.00    +0.000 C 
ATOM      6  C   UNL     1       4.925   5.368  17.743  0.00  0.00    +0.000 C 
ATOM      7  C   UNL     1       5.535   4.409  18.774  0.00  0.00    +0.000 C 
ATOM      8  C   UNL     1       4.524   3.379  19.283  0.00  0.00    +0.000 C 
BRANCH   3   9
ATOM      9  C   UNL     1       2.962   1.655  18.707  0.00  0.00    +0.000 C 
BRANCH   9  11
ATOM     10  C   UNL     1       0.957   2.976  20.193  0.00  0.00    +0.000 C 
ATOM     11  C   UNL     1       1.882   2.366  19.506  0.00  0.00    +0.000 C 
ENDBRANCH   9  11
ENDBRANCH   3   9
ENDBRANCH   1   6
BRANCH   2  12
ATOM     12  C   UNL     1       2.325   8.178  18.437  0.00  0.00    +0.000 A 
ATOM     13  C   UNL     1       1.688   9.240  17.779  0.00  0.00    +0.000 A 
ATOM     14  C   UNL     1       0.788  10.064  18.457  0.00  0.00    +0.000 A 
ATOM     15  C   UNL     1       0.495   9.822  19.801  0.00  0.00    +0.000 A 
ATOM     16  C   UNL     1       1.091   8.741  20.456  0.00  0.00    +0.000 A 
ATOM     17  C   UNL     1       2.000   7.924  19.776  0.00  0.00    +0.000 A 
BRANCH  15  18
ATOM     18  C   UNL     1      -0.397  10.691  20.505  0.00  0.00    +0.000 C 
ATOM     19  N   UNL     1      -1.121  11.390  21.086  0.00  0.00    +0.000 NA
ENDBRANCH  15  18
ENDBRANCH   2  12
TORSDOF 5
ENDMDL
MODEL 2
REMARK VINA RESULT:      -6.5      2.136      3.893
REMARK  Name = 
REMARK  5 active torsions:
REMARK  status: ('A' for Active; 'I' for Inactive)
REMARK    1  A    between atoms: C_2  and  C_3
REMARK    2  A    between atoms: C_3  and  N_4
REMARK    3  A    between atoms: C_7  and  C_8
REMARK    4  A    between atoms: C_9  and  C_10
REMARK    5  A    between atoms: C_13  and  C_14
REMARK                            x       y       z     vdW  Elec       q    Type
REMARK                         _______ _______ _______ _____ _____    ______ ____
ROOT
ATOM      1  C   UNL     1       4.340   5.796  18.357  0.00  0.00    +0.000 C 
ATOM      2  C   UNL     1       3.163   6.000  18.970  0.00  0.00    +0.000 C 
ENDROOT
BRANCH   1   6
ATOM      3  N   UNL     1       6.534   4.379  15.770  0.00  0.00    +0.000 NA
ATOM      4  C   UNL     1       6.981   5.278  16.849  0.00  0.00    +0.000 C 
ATOM      5  C   UNL     1       6.596   4.731  18.222  0.00  0.00    +0.000 C 
ATOM      6  C   UNL     1       5.089   4.483  18.334  0.00  0.00    +0.000 C 
ATOM      7  C   UNL     1       4.635   3.607  17.160  0.00  0.00    +0.000 C 
ATOM      8  C   UNL     1       5.081   4.167  15.807  0.00  0.00    +0.000 C 
BRANCH   3   9
ATOM      9  C   UNL     1       6.917   4.907  14.456  0.00  0.00    +0.000 C 
BRANCH   9  11
ATOM     10  C   UNL     1       5.872   3.260  12.415  0.00  0.00    +0.000 C 
ATOM     11  C   UNL     1       6.355   4.020  13.357  0.00  0.00    +0.000 C 
ENDBRANCH   9  11
ENDBRANCH   3   9
ENDBRANCH   1   6
BRANCH   2  12
ATOM     12  C   UNL     1       2.495   7.309  18.988  0.00  0.00    +0.000 A 
ATOM     13  C   UNL     1       1.801   7.779  20.113  0.00  0.00    +0.000 A 
ATOM     14  C   UNL     1       1.141   9.008  20.084  0.00  0.00    +0.000 A 
ATOM     15  C   UNL     1       1.186   9.798  18.932  0.00  0.00    +0.000 A 
ATOM     16  C   UNL     1       1.910   9.360  17.821  0.00  0.00    +0.000 A 
ATOM     17  C   UNL     1       2.561   8.122  17.850  0.00  0.00    +0.000 A 
BRANCH  15  18
ATOM     18  C   UNL     1       0.477  11.040  18.890  0.00  0.00    +0.000 C 
ATOM     19  N   UNL     1      -0.106  12.044  18.851  0.00  0.00    +0.000 NA
ENDBRANCH  15  18
ENDBRANCH   2  12
TORSDOF 5
ENDMDL
MODEL 3
REMARK VINA RESULT:      -6.5      0.173      1.120
REMARK  Name = 
REMARK  5 active torsions:
REMARK  status: ('A' for Active; 'I' for Inactive)
REMARK    1  A    between atoms: C_2  and  C_3
REMARK    2  A    between atoms: C_3  and  N_4
REMARK    3  A    between atoms: C_7  and  C_8
REMARK    4  A    between atoms: C_9  and  C_10
REMARK    5  A    between atoms: C_13  and  C_14
REMARK                            x       y       z     vdW  Elec       q    Type
REMARK                         _______ _______ _______ _____ _____    ______ ____
ROOT
ATOM      1  C   UNL     1       4.153   6.342  18.398  0.00  0.00    +0.000 C 
ATOM      2  C   UNL     1       3.161   7.018  17.799  0.00  0.00    +0.000 C 
ENDROOT
BRANCH   1   6
ATOM      3  N   UNL     1       3.869   2.681  18.212  0.00  0.00    +0.000 NA
ATOM      4  C   UNL     1       3.239   3.621  17.268  0.00  0.00    +0.000 C 
ATOM      5  C   UNL     1       4.270   4.561  16.648  0.00  0.00    +0.000 C 
ATOM      6  C   UNL     1       5.050   5.333  17.717  0.00  0.00    +0.000 C 
ATOM      7  C   UNL     1       5.635   4.339  18.728  0.00  0.00    +0.000 C 
ATOM      8  C   UNL     1       4.577   3.386  19.288  0.00  0.00    +0.000 C 
BRANCH   3   9
ATOM      9  C   UNL     1       2.873   1.775  18.793  0.00  0.00    +0.000 C 
BRANCH   9  11
ATOM     10  C   UNL     1       0.983   3.251  20.283  0.00  0.00    +0.000 C 
ATOM     11  C   UNL     1       1.856   2.569  19.595  0.00  0.00    +0.000 C 
ENDBRANCH   9  11
ENDBRANCH   3   9
ENDBRANCH   1   6
BRANCH   2  12
ATOM     12  C   UNL     1       2.297   7.963  18.520  0.00  0.00    +0.000 A 
ATOM     13  C   UNL     1       1.980   7.801  19.877  0.00  0.00    +0.000 A 
ATOM     14  C   UNL     1       1.122   8.693  20.522  0.00  0.00    +0.000 A 
ATOM     15  C   UNL     1       0.585   9.776  19.822  0.00  0.00    +0.000 A 
ATOM     16  C   UNL     1       0.928   9.972  18.482  0.00  0.00    +0.000 A 
ATOM     17  C   UNL     1       1.780   9.070  17.836  0.00  0.00    +0.000 A 
BRANCH  15  18
ATOM     18  C   UNL     1      -0.324  10.668  20.473  0.00  0.00    +0.000 C 
ATOM     19  N   UNL     1      -1.068  11.394  20.993  0.00  0.00    +0.000 NA
ENDBRANCH  15  18
ENDBRANCH   2  12
TORSDOF 5
ENDMDL
MODEL 4
REMARK VINA RESULT:      -6.4      1.821      3.495
REMARK  Name = 
REMARK  5 active torsions:
REMARK  status: ('A' for Active; 'I' for Inactive)
REMARK    1  A    between atoms: C_2  and  C_3
REMARK    2  A    between atoms: C_3  and  N_4
REMARK    3  A    between atoms: C_7  and  C_8
REMARK    4  A    between atoms: C_9  and  C_10
REMARK    5  A    between atoms: C_13  and  C_14
REMARK                            x       y       z     vdW  Elec       q    Type
REMARK                         _______ _______ _______ _____ _____    ______ ____
ROOT
ATOM      1  C   UNL     1       3.126   5.403  18.556  0.00  0.00    +0.000 C 
ATOM      2  C   UNL     1       2.974   6.320  19.524  0.00  0.00    +0.000 C 
ENDROOT
BRANCH   1   6
ATOM      3  N   UNL     1       6.100   4.277  16.711  0.00  0.00    +0.000 NA
ATOM      4  C   UNL     1       6.132   5.107  17.929  0.00  0.00    +0.000 C 
ATOM      5  C   UNL     1       5.374   4.441  19.074  0.00  0.00    +0.000 C 
ATOM      6  C   UNL     1       3.925   4.126  18.690  0.00  0.00    +0.000 C 
ATOM      7  C   UNL     1       3.914   3.326  17.381  0.00  0.00    +0.000 C 
ATOM      8  C   UNL     1       4.724   4.006  16.275  0.00  0.00    +0.000 C 
BRANCH   3   9
ATOM      9  C   UNL     1       6.840   4.920  15.619  0.00  0.00    +0.000 C 
BRANCH   9  11
ATOM     10  C   UNL     1       6.185   3.696  13.161  0.00  0.00    +0.000 C 
ATOM     11  C   UNL     1       6.487   4.261  14.296  0.00  0.00    +0.000 C 
ENDBRANCH   9  11
ENDBRANCH   3   9
ENDBRANCH   1   6
BRANCH   2  12
ATOM     12  C   UNL     1       2.213   7.562  19.326  0.00  0.00    +0.000 A 
ATOM     13  C   UNL     1       2.125   8.195  18.077  0.00  0.00    +0.000 A 
ATOM     14  C   UNL     1       1.430   9.396  17.932  0.00  0.00    +0.000 A 
ATOM     15  C   UNL     1       0.792   9.972  19.034  0.00  0.00    +0.000 A 
ATOM     16  C   UNL     1       0.837   9.329  20.273  0.00  0.00    +0.000 A 
ATOM     17  C   UNL     1       1.544   8.130  20.417  0.00  0.00    +0.000 A 
BRANCH  15  18
ATOM     18  C   UNL     1       0.112  11.223  18.893  0.00  0.00    +0.000 C 
ATOM     19  N   UNL     1      -0.431  12.243  18.777  0.00  0.00    +0.000 NA
ENDBRANCH  15  18
ENDBRANCH   2  12
TORSDOF 5
ENDMDL
MODEL 5
REMARK VINA RESULT:      -6.4      3.330      5.437
REMARK  Name = 
REMARK  5 active torsions:
REMARK  status: ('A' for Active; 'I' for Inactive)
REMARK    1  A    between atoms: C_2  and  C_3
REMARK    2  A    between atoms: C_3  and  N_4
REMARK    3  A    between atoms: C_7  and  C_8
REMARK    4  A    between atoms: C_9  and  C_10
REMARK    5  A    between atoms: C_13  and  C_14
REMARK                            x       y       z     vdW  Elec       q    Type
REMARK                         _______ _______ _______ _____ _____    ______ ____
ROOT
ATOM      1  C   UNL     1       4.612   4.141  17.547  0.00  0.00    +0.000 C 
ATOM      2  C   UNL     1       5.923   4.234  17.817  0.00  0.00    +0.000 C 
ENDROOT
BRANCH   1   6
ATOM      3  N   UNL     1       1.721   2.923  19.462  0.00  0.00    +0.000 NA
ATOM      4  C   UNL     1       1.633   3.763  18.254  0.00  0.00    +0.000 C 
ATOM      5  C   UNL     1       2.376   3.127  17.082  0.00  0.00    +0.000 C 
ATOM      6  C   UNL     1       3.843   2.846  17.422  0.00  0.00    +0.000 C 
ATOM      7  C   UNL     1       3.910   2.033  18.722  0.00  0.00    +0.000 C 
ATOM      8  C   UNL     1       3.115   2.683  19.857  0.00  0.00    +0.000 C 
BRANCH   3   9
ATOM      9  C   UNL     1       0.995   3.537  20.581  0.00  0.00    +0.000 C 
BRANCH   9  11
ATOM     10  C   UNL     1       1.632   6.283  20.748  0.00  0.00    +0.000 C 
ATOM     11  C   UNL     1       1.338   5.015  20.671  0.00  0.00    +0.000 C 
ENDBRANCH   9  11
ENDBRANCH   3   9
ENDBRANCH   1   6
BRANCH   2  12
ATOM     12  C   UNL     1       6.628   5.521  17.893  0.00  0.00    +0.000 A 
ATOM     13  C   UNL     1       7.692   5.741  18.781  0.00  0.00    +0.000 A 
ATOM     14  C   UNL     1       8.312   6.988  18.859  0.00  0.00    +0.000 A 
ATOM     15  C   UNL     1       7.890   8.031  18.031  0.00  0.00    +0.000 A 
ATOM     16  C   UNL     1       6.861   7.812  17.112  0.00  0.00    +0.000 A 
ATOM     17  C   UNL     1       6.234   6.563  17.044  0.00  0.00    +0.000 A 
BRANCH  15  18
ATOM     18  C   UNL     1       8.501   9.320  18.138  0.00  0.00    +0.000 C 
ATOM     19  N   UNL     1       8.999  10.366  18.235  0.00  0.00    +0.000 NA
ENDBRANCH  15  18
ENDBRANCH   2  12
TORSDOF 5
ENDMDL
MODEL 6
REMARK VINA RESULT:      -6.4      1.809      3.552
REMARK  Name = 
REMARK  5 active torsions:
REMARK  status: ('A' for Active; 'I' for Inactive)
REMARK    1  A    between atoms: C_2  and  C_3
REMARK    2  A    between atoms: C_3  and  N_4
REMARK    3  A    between atoms: C_7  and  C_8
REMARK    4  A    between atoms: C_9  and  C_10
REMARK    5  A    between atoms: C_13  and  C_14
REMARK                            x       y       z     vdW  Elec       q    Type
REMARK                         _______ _______ _______ _____ _____    ______ ____
ROOT
ATOM      1  C   UNL     1       3.268   5.535  17.648  0.00  0.00    +0.000 C 
ATOM      2  C   UNL     1       3.024   6.147  18.817  0.00  0.00    +0.000 C 
ENDROOT
BRANCH   1   6
ATOM      3  N   UNL     1       6.782   4.705  18.337  0.00  0.00    +0.000 NA
ATOM      4  C   UNL     1       5.695   4.642  19.330  0.00  0.00    +0.000 C 
ATOM      5  C   UNL     1       4.550   3.755  18.844  0.00  0.00    +0.000 C 
ATOM      6  C   UNL     1       4.002   4.223  17.493  0.00  0.00    +0.000 C 
ATOM      7  C   UNL     1       5.163   4.351  16.497  0.00  0.00    +0.000 C 
ATOM      8  C   UNL     1       6.306   5.210  17.042  0.00  0.00    +0.000 C 
BRANCH   3   9
ATOM      9  C   UNL     1       7.881   5.551  18.817  0.00  0.00    +0.000 C 
BRANCH   9  11
ATOM     10  C   UNL     1       7.713   8.109  17.635  0.00  0.00    +0.000 C 
ATOM     11  C   UNL     1       7.791   6.928  18.181  0.00  0.00    +0.000 C 
ENDBRANCH   9  11
ENDBRANCH   3   9
ENDBRANCH   1   6
BRANCH   2  12
ATOM     12  C   UNL     1       2.334   7.441  18.906  0.00  0.00    +0.000 A 
ATOM     13  C   UNL     1       2.205   8.298  17.802  0.00  0.00    +0.000 A 
ATOM     14  C   UNL     1       1.581   9.539  17.930  0.00  0.00    +0.000 A 
ATOM     15  C   UNL     1       1.054   9.933  19.163  0.00  0.00    +0.000 A 
ATOM     16  C   UNL     1       1.139   9.070  20.259  0.00  0.00    +0.000 A 
ATOM     17  C   UNL     1       1.775   7.831  20.129  0.00  0.00    +0.000 A 
BRANCH  15  18
ATOM     18  C   UNL     1       0.449  11.222  19.303  0.00  0.00    +0.000 C 
ATOM     19  N   UNL     1      -0.051  12.265  19.411  0.00  0.00    +0.000 NA
ENDBRANCH  15  18
ENDBRANCH   2  12
TORSDOF 5
ENDMDL
MODEL 7
REMARK VINA RESULT:      -6.4      1.241      1.468
REMARK  Name = 
REMARK  5 active torsions:
REMARK  status: ('A' for Active; 'I' for Inactive)
REMARK    1  A    between atoms: C_2  and  C_3
REMARK    2  A    between atoms: C_3  and  N_4
REMARK    3  A    between atoms: C_7  and  C_8
REMARK    4  A    between atoms: C_9  and  C_10
REMARK    5  A    between atoms: C_13  and  C_14
REMARK                            x       y       z     vdW  Elec       q    Type
REMARK                         _______ _______ _______ _____ _____    ______ ____
ROOT
ATOM      1  C   UNL     1       2.861   6.451  18.517  0.00  0.00    +0.000 C 
ATOM      2  C   UNL     1       2.484   7.721  18.301  0.00  0.00    +0.000 C 
ENDROOT
BRANCH   1   6
ATOM      3  N   UNL     1       4.269   3.079  18.917  0.00  0.00    +0.000 NA
ATOM      4  C   UNL     1       2.883   3.367  18.508  0.00  0.00    +0.000 C 
ATOM      5  C   UNL     1       2.843   4.278  17.284  0.00  0.00    +0.000 C 
ATOM      6  C   UNL     1       3.602   5.586  17.523  0.00  0.00    +0.000 C 
ATOM      7  C   UNL     1       5.018   5.262  18.018  0.00  0.00    +0.000 C 
ATOM      8  C   UNL     1       5.013   4.310  19.216  0.00  0.00    +0.000 C 
BRANCH   3   9
ATOM      9  C   UNL     1       4.298   2.194  20.087  0.00  0.00    +0.000 C 
BRANCH   9  11
ATOM     10  C   UNL     1       2.125   2.782  21.791  0.00  0.00    +0.000 C 
ATOM     11  C   UNL     1       3.128   2.511  21.005  0.00  0.00    +0.000 C 
ENDBRANCH   9  11
ENDBRANCH   3   9
ENDBRANCH   1   6
BRANCH   2  12
ATOM     12  C   UNL     1       1.735   8.506  19.293  0.00  0.00    +0.000 A 
ATOM     13  C   UNL     1       1.130   9.731  18.975  0.00  0.00    +0.000 A 
ATOM     14  C   UNL     1       0.462  10.472  19.951  0.00  0.00    +0.000 A 
ATOM     15  C   UNL     1       0.369   9.985  21.257  0.00  0.00    +0.000 A 
ATOM     16  C   UNL     1       0.930   8.745  21.575  0.00  0.00    +0.000 A 
ATOM     17  C   UNL     1       1.608   8.010  20.597  0.00  0.00    +0.000 A 
BRANCH  15  18
ATOM     18  C   UNL     1      -0.283  10.763  22.265  0.00  0.00    +0.000 C 
ATOM     19  N   UNL     1      -0.806  11.402  23.082  0.00  0.00    +0.000 NA
ENDBRANCH  15  18
ENDBRANCH   2  12
TORSDOF 5
ENDMDL
MODEL 8
REMARK VINA RESULT:      -6.4      1.706      3.588
REMARK  Name = 
REMARK  5 active torsions:
REMARK  status: ('A' for Active; 'I' for Inactive)
REMARK    1  A    between atoms: C_2  and  C_3
REMARK    2  A    between atoms: C_3  and  N_4
REMARK    3  A    between atoms: C_7  and  C_8
REMARK    4  A    between atoms: C_9  and  C_10
REMARK    5  A    between atoms: C_13  and  C_14
REMARK                            x       y       z     vdW  Elec       q    Type
REMARK                         _______ _______ _______ _____ _____    ______ ____
ROOT
ATOM      1  C   UNL     1       2.873   5.636  18.402  0.00  0.00    +0.000 C 
ATOM      2  C   UNL     1       2.495   6.366  19.463  0.00  0.00    +0.000 C 
ENDROOT
BRANCH   1   6
ATOM      3  N   UNL     1       6.137   4.278  17.394  0.00  0.00    +0.000 NA
ATOM      4  C   UNL     1       5.837   4.842  18.722  0.00  0.00    +0.000 C 
ATOM      5  C   UNL     1       4.637   4.148  19.362  0.00  0.00    +0.000 C 
ATOM      6  C   UNL     1       3.396   4.219  18.468  0.00  0.00    +0.000 C 
ATOM      7  C   UNL     1       3.752   3.695  17.070  0.00  0.00    +0.000 C 
ATOM      8  C   UNL     1       4.987   4.384  16.487  0.00  0.00    +0.000 C 
BRANCH   3   9
ATOM      9  C   UNL     1       7.298   4.943  16.792  0.00  0.00    +0.000 C 
BRANCH   9  11
ATOM     10  C   UNL     1       7.330   7.671  17.522  0.00  0.00    +0.000 C 
ATOM     11  C   UNL     1       7.315   6.412  17.185  0.00  0.00    +0.000 C 
ENDBRANCH   9  11
ENDBRANCH   3   9
ENDBRANCH   1   6
BRANCH   2  12
ATOM     12  C   UNL     1       2.026   7.754  19.343  0.00  0.00    +0.000 A 
ATOM     13  C   UNL     1       1.391   8.423  20.401  0.00  0.00    +0.000 A 
ATOM     14  C   UNL     1       0.919   9.726  20.241  0.00  0.00    +0.000 A 
ATOM     15  C   UNL     1       1.097  10.390  19.024  0.00  0.00    +0.000 A 
ATOM     16  C   UNL     1       1.766   9.749  17.978  0.00  0.00    +0.000 A 
ATOM     17  C   UNL     1       2.228   8.439  18.138  0.00  0.00    +0.000 A 
BRANCH  15  18
ATOM     18  C   UNL     1       0.579  11.712  18.849  0.00  0.00    +0.000 C 
ATOM     19  N   UNL     1       0.155  12.785  18.716  0.00  0.00    +0.000 NA
ENDBRANCH  15  18
ENDBRANCH   2  12
TORSDOF 5
ENDMDL
MODEL 9
REMARK VINA RESULT:      -6.3      1.254      1.877
REMARK  Name = 
REMARK  5 active torsions:
REMARK  status: ('A' for Active; 'I' for Inactive)
REMARK    1  A    between atoms: C_2  and  C_3
REMARK    2  A    between atoms: C_3  and  N_4
REMARK    3  A    between atoms: C_7  and  C_8
REMARK    4  A    between atoms: C_9  and  C_10
REMARK    5  A    between atoms: C_13  and  C_14
REMARK                            x       y       z     vdW  Elec       q    Type
REMARK                         _______ _______ _______ _____ _____    ______ ____
ROOT
ATOM      1  C   UNL     1       3.001   6.664  18.663  0.00  0.00    +0.000 C 
ATOM      2  C   UNL     1       2.294   7.774  18.397  0.00  0.00    +0.000 C 
ENDROOT
BRANCH   1   6
ATOM      3  N   UNL     1       4.247   3.215  18.914  0.00  0.00    +0.000 NA
ATOM      4  C   UNL     1       2.871   3.585  18.536  0.00  0.00    +0.000 C 
ATOM      5  C   UNL     1       2.861   4.544  17.348  0.00  0.00    +0.000 C 
ATOM      6  C   UNL     1       3.687   5.804  17.627  0.00  0.00    +0.000 C 
ATOM      7  C   UNL     1       5.091   5.393  18.089  0.00  0.00    +0.000 C 
ATOM      8  C   UNL     1       5.054   4.396  19.249  0.00  0.00    +0.000 C 
BRANCH   3   9
ATOM      9  C   UNL     1       4.247   2.285  20.048  0.00  0.00    +0.000 C 
BRANCH   9  11
ATOM     10  C   UNL     1       2.057   2.836  21.744  0.00  0.00    +0.000 C 
ATOM     11  C   UNL     1       3.068   2.582  20.961  0.00  0.00    +0.000 C 
ENDBRANCH   9  11
ENDBRANCH   3   9
ENDBRANCH   1   6
BRANCH   2  12
ATOM     12  C   UNL     1       1.619   8.554  19.444  0.00  0.00    +0.000 A 
ATOM     13  C   UNL     1       1.512   8.097  20.766  0.00  0.00    +0.000 A 
ATOM     14  C   UNL     1       0.827   8.843  21.726  0.00  0.00    +0.000 A 
ATOM     15  C   UNL     1       0.257  10.071  21.381  0.00  0.00    +0.000 A 
ATOM     16  C   UNL     1       0.394  10.557  20.078  0.00  0.00    +0.000 A 
ATOM     17  C   UNL     1       1.073   9.801  19.116  0.00  0.00    +0.000 A 
BRANCH  15  18
ATOM     18  C   UNL     1      -0.477  10.817  22.357  0.00  0.00    +0.000 C 
ATOM     19  N   UNL     1      -1.075  11.414  23.154  0.00  0.00    +0.000 NA
ENDBRANCH  15  18
ENDBRANCH   2  12
TORSDOF 5
ENDMDL
