MODEL 1
REMARK VINA RESULT:      -8.6      0.000      0.000
REMARK  Name = 
REMARK  1 active torsions:
REMARK  status: ('A' for Active; 'I' for Inactive)
REMARK    1  A    between atoms: C_9  and  N_10
REMARK                            x       y       z     vdW  Elec       q    Type
REMARK                         _______ _______ _______ _____ _____    ______ ____
ROOT
ATOM      1  N   UNL     1       7.933   6.393  19.030  0.00  0.00    +0.000 N 
ATOM      2  C   UNL     1       7.074   5.713  18.195  0.00  0.00    +0.000 A 
ATOM      3  N   UNL     1       5.931   5.260  18.743  0.00  0.00    +0.000 NA
ATOM      4  C   UNL     1       4.976   4.656  17.977  0.00  0.00    +0.000 A 
ATOM      5  N   UNL     1       3.811   4.186  18.551  0.00  0.00    +0.000 N 
ATOM      6  C   UNL     1       2.552   4.063  17.816  0.00  0.00    +0.000 C 
ATOM      7  C   UNL     1       1.932   2.705  18.140  0.00  0.00    +0.000 C 
ATOM      8  C   UNL     1       1.757   2.524  19.650  0.00  0.00    +0.000 C 
ATOM      9  C   UNL     1       3.080   2.759  20.399  0.00  0.00    +0.000 C 
ATOM     10  C   UNL     1       3.695   4.129  20.006  0.00  0.00    +0.000 C 
ATOM     11  C   UNL     1       5.311   4.521  16.630  0.00  0.00    +0.000 A 
ATOM     12  O   UNL     1       4.593   3.930  15.633  0.00  0.00    +0.000 OA
ATOM     13  C   UNL     1       5.323   4.040  14.494  0.00  0.00    +0.000 A 
ATOM     14  C   UNL     1       4.914   3.584  13.242  0.00  0.00    +0.000 A 
ATOM     15  C   UNL     1       5.806   3.781  12.185  0.00  0.00    +0.000 A 
ATOM     16  C   UNL     1       7.033   4.401  12.404  0.00  0.00    +0.000 A 
ATOM     17  F   UNL     1       7.865   4.570  11.365  0.00  0.00    +0.000 F 
ATOM     18  C   UNL     1       7.414   4.850  13.672  0.00  0.00    +0.000 A 
ATOM     19  F   UNL     1       8.602   5.445  13.841  0.00  0.00    +0.000 F 
ATOM     20  C   UNL     1       6.535   4.669  14.748  0.00  0.00    +0.000 A 
ATOM     21  C   UNL     1       6.523   4.978  16.136  0.00  0.00    +0.000 A 
ATOM     22  N   UNL     1       7.445   5.586  16.918  0.00  0.00    +0.000 NA
ATOM     23  H   UNL     1       7.774   6.197  20.006  0.00  0.00    +0.000 HD
ATOM     24  H   UNL     1       8.880   6.428  18.679  0.00  0.00    +0.000 HD
ENDROOT
BRANCH   9  25
ATOM     25  N   UNL     1       2.854   2.624  21.844  0.00  0.00    +0.000 NA
ATOM     26  H   UNL     1       1.904   2.293  22.015  0.00  0.00    +0.000 HD
ATOM     27  H   UNL     1       2.914   3.545  22.277  0.00  0.00    +0.000 HD
ENDBRANCH   9  25
TORSDOF 1
ENDMDL
MODEL 2
REMARK VINA RESULT:      -8.1      5.191      7.630
REMARK  Name = 
REMARK  1 active torsions:
REMARK  status: ('A' for Active; 'I' for Inactive)
REMARK    1  A    between atoms: C_9  and  N_10
REMARK                            x       y       z     vdW  Elec       q    Type
REMARK                         _______ _______ _______ _____ _____    ______ ____
ROOT
ATOM      1  N   UNL     1       2.299   3.696  21.530  0.00  0.00    +0.000 N 
ATOM      2  C   UNL     1       2.503   4.795  20.725  0.00  0.00    +0.000 A 
ATOM      3  N   UNL     1       3.461   4.689  19.786  0.00  0.00    +0.000 NA
ATOM      4  C   UNL     1       3.673   5.691  18.882  0.00  0.00    +0.000 A 
ATOM      5  N   UNL     1       4.665   5.574  17.929  0.00  0.00    +0.000 N 
ATOM      6  C   UNL     1       4.612   6.256  16.635  0.00  0.00    +0.000 C 
ATOM      7  C   UNL     1       5.979   6.881  16.360  0.00  0.00    +0.000 C 
ATOM      8  C   UNL     1       7.091   5.831  16.432  0.00  0.00    +0.000 C 
ATOM      9  C   UNL     1       7.052   5.066  17.766  0.00  0.00    +0.000 C 
ATOM     10  C   UNL     1       5.635   4.487  18.025  0.00  0.00    +0.000 C 
ATOM     11  C   UNL     1       2.859   6.810  19.053  0.00  0.00    +0.000 A 
ATOM     12  O   UNL     1       2.860   7.974  18.345  0.00  0.00    +0.000 OA
ATOM     13  C   UNL     1       1.895   8.768  18.876  0.00  0.00    +0.000 A 
ATOM     14  C   UNL     1       1.562  10.036  18.406  0.00  0.00    +0.000 A 
ATOM     15  C   UNL     1       0.542  10.706  19.086  0.00  0.00    +0.000 A 
ATOM     16  C   UNL     1      -0.088  10.110  20.176  0.00  0.00    +0.000 A 
ATOM     17  F   UNL     1      -1.061  10.786  20.807  0.00  0.00    +0.000 F 
ATOM     18  C   UNL     1       0.267   8.835  20.623  0.00  0.00    +0.000 A 
ATOM     19  F   UNL     1      -0.365   8.295  21.673  0.00  0.00    +0.000 F 
ATOM     20  C   UNL     1       1.284   8.140  19.954  0.00  0.00    +0.000 A 
ATOM     21  C   UNL     1       1.914   6.869  20.066  0.00  0.00    +0.000 A 
ATOM     22  N   UNL     1       1.717   5.855  20.939  0.00  0.00    +0.000 NA
ATOM     23  H   UNL     1       3.088   3.068  21.547  0.00  0.00    +0.000 HD
ATOM     24  H   UNL     1       1.823   3.919  22.392  0.00  0.00    +0.000 HD
ENDROOT
BRANCH   9  25
ATOM     25  N   UNL     1       8.102   4.038  17.771  0.00  0.00    +0.000 NA
ATOM     26  H   UNL     1       8.038   3.484  18.625  0.00  0.00    +0.000 HD
ATOM     27  H   UNL     1       9.013   4.493  17.797  0.00  0.00    +0.000 HD
ENDBRANCH   9  25
TORSDOF 1
ENDMDL
MODEL 3
REMARK VINA RESULT:      -8.0      3.338      6.470
REMARK  Name = 
REMARK  1 active torsions:
REMARK  status: ('A' for Active; 'I' for Inactive)
REMARK    1  A    between atoms: C_9  and  N_10
REMARK                            x       y       z     vdW  Elec       q    Type
REMARK                         _______ _______ _______ _____ _____    ______ ____
ROOT
ATOM      1  N   UNL     1       8.014   5.652  19.843  0.00  0.00    +0.000 N 
ATOM      2  C   UNL     1       6.985   5.198  19.047  0.00  0.00    +0.000 A 
ATOM      3  N   UNL     1       7.270   4.996  17.747  0.00  0.00    +0.000 NA
ATOM      4  C   UNL     1       6.342   4.460  16.900  0.00  0.00    +0.000 A 
ATOM      5  N   UNL     1       6.642   4.267  15.566  0.00  0.00    +0.000 N 
ATOM      6  C   UNL     1       6.001   3.239  14.746  0.00  0.00    +0.000 C 
ATOM      7  C   UNL     1       5.607   3.864  13.407  0.00  0.00    +0.000 C 
ATOM      8  C   UNL     1       6.815   4.503  12.719  0.00  0.00    +0.000 C 
ATOM      9  C   UNL     1       7.523   5.505  13.649  0.00  0.00    +0.000 C 
ATOM     10  C   UNL     1       7.864   4.841  15.010  0.00  0.00    +0.000 C 
ATOM     11  C   UNL     1       5.104   4.196  17.486  0.00  0.00    +0.000 A 
ATOM     12  O   UNL     1       3.977   3.705  16.898  0.00  0.00    +0.000 OA
ATOM     13  C   UNL     1       3.026   3.620  17.864  0.00  0.00    +0.000 A 
ATOM     14  C   UNL     1       1.736   3.131  17.666  0.00  0.00    +0.000 A 
ATOM     15  C   UNL     1       0.895   3.126  18.781  0.00  0.00    +0.000 A 
ATOM     16  C   UNL     1       1.350   3.594  20.011  0.00  0.00    +0.000 A 
ATOM     17  F   UNL     1       0.511   3.576  21.059  0.00  0.00    +0.000 F 
ATOM     18  C   UNL     1       2.651   4.076  20.177  0.00  0.00    +0.000 A 
ATOM     19  F   UNL     1       3.052   4.514  21.378  0.00  0.00    +0.000 F 
ATOM     20  C   UNL     1       3.516   4.087  19.076  0.00  0.00    +0.000 A 
ATOM     21  C   UNL     1       4.866   4.461  18.826  0.00  0.00    +0.000 A 
ATOM     22  N   UNL     1       5.810   4.980  19.644  0.00  0.00    +0.000 NA
ATOM     23  H   UNL     1       8.757   6.087  19.318  0.00  0.00    +0.000 HD
ATOM     24  H   UNL     1       7.692   6.082  20.698  0.00  0.00    +0.000 HD
ENDROOT
BRANCH   9  25
ATOM     25  N   UNL     1       8.702   6.055  12.967  0.00  0.00    +0.000 NA
ATOM     26  H   UNL     1       9.388   6.361  13.658  0.00  0.00    +0.000 HD
ATOM     27  H   UNL     1       8.428   6.891  12.452  0.00  0.00    +0.000 HD
ENDBRANCH   9  25
TORSDOF 1
ENDMDL
MODEL 4
REMARK VINA RESULT:      -7.3      5.175      6.763
REMARK  Name = 
REMARK  1 active torsions:
REMARK  status: ('A' for Active; 'I' for Inactive)
REMARK    1  A    between atoms: C_9  and  N_10
REMARK                            x       y       z     vdW  Elec       q    Type
REMARK                         _______ _______ _______ _____ _____    ______ ____
ROOT
ATOM      1  N   UNL     1       5.205   7.003  16.003  0.00  0.00    +0.000 N 
ATOM      2  C   UNL     1       4.237   7.072  16.981  0.00  0.00    +0.000 A 
ATOM      3  N   UNL     1       4.011   5.950  17.688  0.00  0.00    +0.000 NA
ATOM      4  C   UNL     1       3.137   5.946  18.737  0.00  0.00    +0.000 A 
ATOM      5  N   UNL     1       2.904   4.787  19.450  0.00  0.00    +0.000 N 
ATOM      6  C   UNL     1       2.480   4.782  20.850  0.00  0.00    +0.000 C 
ATOM      7  C   UNL     1       1.342   3.774  21.009  0.00  0.00    +0.000 C 
ATOM      8  C   UNL     1       1.760   2.388  20.512  0.00  0.00    +0.000 C 
ATOM      9  C   UNL     1       2.295   2.448  19.071  0.00  0.00    +0.000 C 
ATOM     10  C   UNL     1       3.416   3.515  18.947  0.00  0.00    +0.000 C 
ATOM     11  C   UNL     1       2.494   7.163  18.964  0.00  0.00    +0.000 A 
ATOM     12  O   UNL     1       1.549   7.460  19.899  0.00  0.00    +0.000 OA
ATOM     13  C   UNL     1       1.220   8.768  19.735  0.00  0.00    +0.000 A 
ATOM     14  C   UNL     1       0.305   9.461  20.524  0.00  0.00    +0.000 A 
ATOM     15  C   UNL     1       0.093  10.803  20.199  0.00  0.00    +0.000 A 
ATOM     16  C   UNL     1       0.774  11.388  19.135  0.00  0.00    +0.000 A 
ATOM     17  F   UNL     1       0.541  12.679  18.851  0.00  0.00    +0.000 F 
ATOM     18  C   UNL     1       1.688  10.666  18.363  0.00  0.00    +0.000 A 
ATOM     19  F   UNL     1       2.326  11.265  17.349  0.00  0.00    +0.000 F 
ATOM     20  C   UNL     1       1.923   9.319  18.672  0.00  0.00    +0.000 A 
ATOM     21  C   UNL     1       2.748   8.273  18.173  0.00  0.00    +0.000 A 
ATOM     22  N   UNL     1       3.631   8.251  17.148  0.00  0.00    +0.000 NA
ATOM     23  H   UNL     1       5.403   6.059  15.708  0.00  0.00    +0.000 HD
ATOM     24  H   UNL     1       5.121   7.732  15.310  0.00  0.00    +0.000 HD
ENDROOT
BRANCH   9  25
ATOM     25  N   UNL     1       2.729   1.108  18.655  0.00  0.00    +0.000 NA
ATOM     26  H   UNL     1       2.499   0.961  17.671  0.00  0.00    +0.000 HD
ATOM     27  H   UNL     1       2.199   0.410  19.175  0.00  0.00    +0.000 HD
ENDBRANCH   9  25
TORSDOF 1
ENDMDL
MODEL 5
REMARK VINA RESULT:      -7.0      5.727      7.777
REMARK  Name = 
REMARK  1 active torsions:
REMARK  status: ('A' for Active; 'I' for Inactive)
REMARK    1  A    between atoms: C_9  and  N_10
REMARK                            x       y       z     vdW  Elec       q    Type
REMARK                         _______ _______ _______ _____ _____    ______ ____
ROOT
ATOM      1  N   UNL     1       4.063   7.860  16.629  0.00  0.00    +0.000 N 
ATOM      2  C   UNL     1       3.275   7.636  17.737  0.00  0.00    +0.000 A 
ATOM      3  N   UNL     1       3.270   6.386  18.233  0.00  0.00    +0.000 NA
ATOM      4  C   UNL     1       2.593   6.089  19.381  0.00  0.00    +0.000 A 
ATOM      5  N   UNL     1       2.587   4.800  19.876  0.00  0.00    +0.000 N 
ATOM      6  C   UNL     1       2.411   4.491  21.296  0.00  0.00    +0.000 C 
ATOM      7  C   UNL     1       1.408   3.345  21.422  0.00  0.00    +0.000 C 
ATOM      8  C   UNL     1       1.852   2.130  20.603  0.00  0.00    +0.000 C 
ATOM      9  C   UNL     1       2.124   2.514  19.137  0.00  0.00    +0.000 C 
ATOM     10  C   UNL     1       3.112   3.709  19.059  0.00  0.00    +0.000 C 
ATOM     11  C   UNL     1       1.897   7.161  19.940  0.00  0.00    +0.000 A 
ATOM     12  O   UNL     1       1.104   7.170  21.048  0.00  0.00    +0.000 OA
ATOM     13  C   UNL     1       0.642   8.438  21.199  0.00  0.00    +0.000 A 
ATOM     14  C   UNL     1      -0.181   8.864  22.240  0.00  0.00    +0.000 A 
ATOM     15  C   UNL     1      -0.559  10.208  22.225  0.00  0.00    +0.000 A 
ATOM     16  C   UNL     1      -0.124  11.052  21.206  0.00  0.00    +0.000 A 
ATOM     17  F   UNL     1      -0.511  12.337  21.223  0.00  0.00    +0.000 F 
ATOM     18  C   UNL     1       0.702  10.595  20.177  0.00  0.00    +0.000 A 
ATOM     19  F   UNL     1       1.103  11.439  19.217  0.00  0.00    +0.000 F 
ATOM     20  C   UNL     1       1.101   9.252  20.173  0.00  0.00    +0.000 A 
ATOM     21  C   UNL     1       1.915   8.418  19.356  0.00  0.00    +0.000 A 
ATOM     22  N   UNL     1       2.607   8.686  18.225  0.00  0.00    +0.000 NA
ATOM     23  H   UNL     1       4.286   7.015  16.126  0.00  0.00    +0.000 HD
ATOM     24  H   UNL     1       3.798   8.688  16.115  0.00  0.00    +0.000 HD
ENDROOT
BRANCH   9  25
ATOM     25  N   UNL     1       2.593   1.332  18.402  0.00  0.00    +0.000 NA
ATOM     26  H   UNL     1       2.532   0.507  19.000  0.00  0.00    +0.000 HD
ATOM     27  H   UNL     1       3.582   1.448  18.183  0.00  0.00    +0.000 HD
ENDBRANCH   9  25
TORSDOF 1
ENDMDL
MODEL 6
REMARK VINA RESULT:      -6.7     10.702     12.412
REMARK  Name = 
REMARK  1 active torsions:
REMARK  status: ('A' for Active; 'I' for Inactive)
REMARK    1  A    between atoms: C_9  and  N_10
REMARK                            x       y       z     vdW  Elec       q    Type
REMARK                         _______ _______ _______ _____ _____    ______ ____
ROOT
ATOM      1  N   UNL     1      -3.690  10.018  14.280  0.00  0.00    +0.000 N 
ATOM      2  C   UNL     1      -3.509  10.530  15.546  0.00  0.00    +0.000 A 
ATOM      3  N   UNL     1      -4.518  11.264  16.051  0.00  0.00    +0.000 NA
ATOM      4  C   UNL     1      -4.469  11.737  17.332  0.00  0.00    +0.000 A 
ATOM      5  N   UNL     1      -5.505  12.497  17.836  0.00  0.00    +0.000 N 
ATOM      6  C   UNL     1      -5.827  12.561  19.262  0.00  0.00    +0.000 C 
ATOM      7  C   UNL     1      -6.062  14.022  19.641  0.00  0.00    +0.000 C 
ATOM      8  C   UNL     1      -7.144  14.654  18.761  0.00  0.00    +0.000 C 
ATOM      9  C   UNL     1      -6.821  14.479  17.267  0.00  0.00    +0.000 C 
ATOM     10  C   UNL     1      -6.546  12.987  16.937  0.00  0.00    +0.000 C 
ATOM     11  C   UNL     1      -3.295  11.432  18.020  0.00  0.00    +0.000 A 
ATOM     12  O   UNL     1      -2.936  11.795  19.283  0.00  0.00    +0.000 OA
ATOM     13  C   UNL     1      -1.706  11.268  19.517  0.00  0.00    +0.000 A 
ATOM     14  C   UNL     1      -1.005  11.391  20.715  0.00  0.00    +0.000 A 
ATOM     15  C   UNL     1       0.252  10.784  20.766  0.00  0.00    +0.000 A 
ATOM     16  C   UNL     1       0.752  10.103  19.660  0.00  0.00    +0.000 A 
ATOM     17  F   UNL     1       1.965   9.535  19.745  0.00  0.00    +0.000 F 
ATOM     18  C   UNL     1       0.023   9.996  18.472  0.00  0.00    +0.000 A 
ATOM     19  F   UNL     1       0.538   9.329  17.431  0.00  0.00    +0.000 F 
ATOM     20  C   UNL     1      -1.243  10.591  18.397  0.00  0.00    +0.000 A 
ATOM     21  C   UNL     1      -2.277  10.701  17.426  0.00  0.00    +0.000 A 
ATOM     22  N   UNL     1      -2.360  10.234  16.160  0.00  0.00    +0.000 NA
ATOM     23  H   UNL     1      -4.397  10.506  13.753  0.00  0.00    +0.000 HD
ATOM     24  H   UNL     1      -2.823   9.762  13.829  0.00  0.00    +0.000 HD
ENDROOT
BRANCH   9  25
ATOM     25  N   UNL     1      -7.908  15.054  16.462  0.00  0.00    +0.000 NA
ATOM     26  H   UNL     1      -8.171  14.402  15.722  0.00  0.00    +0.000 HD
ATOM     27  H   UNL     1      -7.565  15.891  15.991  0.00  0.00    +0.000 HD
ENDBRANCH   9  25
TORSDOF 1
ENDMDL
MODEL 7
REMARK VINA RESULT:      -6.6      7.639      9.117
REMARK  Name = 
REMARK  1 active torsions:
REMARK  status: ('A' for Active; 'I' for Inactive)
REMARK    1  A    between atoms: C_9  and  N_10
REMARK                            x       y       z     vdW  Elec       q    Type
REMARK                         _______ _______ _______ _____ _____    ______ ____
ROOT
ATOM      1  N   UNL     1      -0.399   9.288  23.835  0.00  0.00    +0.000 N 
ATOM      2  C   UNL     1       0.113   9.444  22.565  0.00  0.00    +0.000 A 
ATOM      3  N   UNL     1       0.056  10.681  22.038  0.00  0.00    +0.000 NA
ATOM      4  C   UNL     1       0.620  10.953  20.824  0.00  0.00    +0.000 A 
ATOM      5  N   UNL     1       0.547  12.223  20.287  0.00  0.00    +0.000 N 
ATOM      6  C   UNL     1       1.538  12.751  19.350  0.00  0.00    +0.000 C 
ATOM      7  C   UNL     1       0.801  13.442  18.203  0.00  0.00    +0.000 C 
ATOM      8  C   UNL     1      -0.151  14.519  18.727  0.00  0.00    +0.000 C 
ATOM      9  C   UNL     1      -1.113  13.948  19.784  0.00  0.00    +0.000 C 
ATOM     10  C   UNL     1      -0.324  13.219  20.905  0.00  0.00    +0.000 C 
ATOM     11  C   UNL     1       1.198   9.852  20.191  0.00  0.00    +0.000 A 
ATOM     12  O   UNL     1       1.796   9.796  18.968  0.00  0.00    +0.000 OA
ATOM     13  C   UNL     1       2.205   8.515  18.780  0.00  0.00    +0.000 A 
ATOM     14  C   UNL     1       2.890   8.057  17.657  0.00  0.00    +0.000 A 
ATOM     15  C   UNL     1       3.224   6.701  17.640  0.00  0.00    +0.000 A 
ATOM     16  C   UNL     1       2.873   5.875  18.705  0.00  0.00    +0.000 A 
ATOM     17  F   UNL     1       3.208   4.576  18.651  0.00  0.00    +0.000 F 
ATOM     18  C   UNL     1       2.187   6.365  19.819  0.00  0.00    +0.000 A 
ATOM     19  F   UNL     1       1.871   5.539  20.825  0.00  0.00    +0.000 F 
ATOM     20  C   UNL     1       1.846   7.723  19.862  0.00  0.00    +0.000 A 
ATOM     21  C   UNL     1       1.191   8.595  20.776  0.00  0.00    +0.000 A 
ATOM     22  N   UNL     1       0.636   8.359  21.987  0.00  0.00    +0.000 NA
ATOM     23  H   UNL     1      -1.040  10.021  24.095  0.00  0.00    +0.000 HD
ATOM     24  H   UNL     1      -0.625   8.329  24.056  0.00  0.00    +0.000 HD
ENDROOT
BRANCH   9  25
ATOM     25  N   UNL     1      -1.973  15.025  20.295  0.00  0.00    +0.000 NA
ATOM     26  H   UNL     1      -2.952  14.790  20.132  0.00  0.00    +0.000 HD
ATOM     27  H   UNL     1      -1.794  15.874  19.761  0.00  0.00    +0.000 HD
ENDBRANCH   9  25
TORSDOF 1
ENDMDL
MODEL 8
REMARK VINA RESULT:      -6.5     10.543     11.710
REMARK  Name = 
REMARK  1 active torsions:
REMARK  status: ('A' for Active; 'I' for Inactive)
REMARK    1  A    between atoms: C_9  and  N_10
REMARK                            x       y       z     vdW  Elec       q    Type
REMARK                         _______ _______ _______ _____ _____    ______ ____
ROOT
ATOM      1  N   UNL     1       0.988  10.571  21.492  0.00  0.00    +0.000 N 
ATOM      2  C   UNL     1      -0.210  10.972  20.944  0.00  0.00    +0.000 A 
ATOM      3  N   UNL     1      -0.969  11.797  21.688  0.00  0.00    +0.000 NA
ATOM      4  C   UNL     1      -2.130  12.321  21.193  0.00  0.00    +0.000 A 
ATOM      5  N   UNL     1      -2.906  13.159  21.968  0.00  0.00    +0.000 N 
ATOM      6  C   UNL     1      -3.791  14.178  21.403  0.00  0.00    +0.000 C 
ATOM      7  C   UNL     1      -5.135  14.108  22.126  0.00  0.00    +0.000 C 
ATOM      8  C   UNL     1      -4.956  14.253  23.639  0.00  0.00    +0.000 C 
ATOM      9  C   UNL     1      -3.942  13.231  24.183  0.00  0.00    +0.000 C 
ATOM     10  C   UNL     1      -2.609  13.307  23.391  0.00  0.00    +0.000 C 
ATOM     11  C   UNL     1      -2.458  11.895  19.906  0.00  0.00    +0.000 A 
ATOM     12  O   UNL     1      -3.559  12.205  19.166  0.00  0.00    +0.000 OA
ATOM     13  C   UNL     1      -3.442  11.554  17.980  0.00  0.00    +0.000 A 
ATOM     14  C   UNL     1      -4.358  11.641  16.934  0.00  0.00    +0.000 A 
ATOM     15  C   UNL     1      -4.069  10.893  15.790  0.00  0.00    +0.000 A 
ATOM     16  C   UNL     1      -2.920  10.108  15.731  0.00  0.00    +0.000 A 
ATOM     17  F   UNL     1      -2.678   9.401  14.617  0.00  0.00    +0.000 F 
ATOM     18  C   UNL     1      -2.019  10.045  16.797  0.00  0.00    +0.000 A 
ATOM     19  F   UNL     1      -0.922   9.282  16.701  0.00  0.00    +0.000 F 
ATOM     20  C   UNL     1      -2.283  10.790  17.954  0.00  0.00    +0.000 A 
ATOM     21  C   UNL     1      -1.647  11.013  19.207  0.00  0.00    +0.000 A 
ATOM     22  N   UNL     1      -0.496  10.521  19.719  0.00  0.00    +0.000 NA
ATOM     23  H   UNL     1       1.017  10.669  22.495  0.00  0.00    +0.000 HD
ATOM     24  H   UNL     1       1.359   9.734  21.065  0.00  0.00    +0.000 HD
ENDROOT
BRANCH   9  25
ATOM     25  N   UNL     1      -3.765  13.440  25.626  0.00  0.00    +0.000 NA
ATOM     26  H   UNL     1      -4.617  13.171  26.121  0.00  0.00    +0.000 HD
ATOM     27  H   UNL     1      -3.637  14.435  25.805  0.00  0.00    +0.000 HD
ENDBRANCH   9  25
TORSDOF 1
ENDMDL
MODEL 9
REMARK VINA RESULT:      -6.5     11.052     12.857
REMARK  Name = 
REMARK  1 active torsions:
REMARK  status: ('A' for Active; 'I' for Inactive)
REMARK    1  A    between atoms: C_9  and  N_10
REMARK                            x       y       z     vdW  Elec       q    Type
REMARK                         _______ _______ _______ _____ _____    ______ ____
ROOT
ATOM      1  N   UNL     1       6.900  17.302  19.922  0.00  0.00    +0.000 N 
ATOM      2  C   UNL     1       7.384  16.101  20.392  0.00  0.00    +0.000 A 
ATOM      3  N   UNL     1       8.449  15.586  19.751  0.00  0.00    +0.000 NA
ATOM      4  C   UNL     1       9.056  14.447  20.199  0.00  0.00    +0.000 A 
ATOM      5  N   UNL     1      10.141  13.922  19.528  0.00  0.00    +0.000 N 
ATOM      6  C   UNL     1      11.168  13.110  20.182  0.00  0.00    +0.000 C 
ATOM      7  C   UNL     1      11.459  11.895  19.302  0.00  0.00    +0.000 C 
ATOM      8  C   UNL     1      11.855  12.321  17.886  0.00  0.00    +0.000 C 
ATOM      9  C   UNL     1      10.799  13.255  17.268  0.00  0.00    +0.000 C 
ATOM     10  C   UNL     1      10.503  14.449  18.215  0.00  0.00    +0.000 C 
ATOM     11  C   UNL     1       8.456  13.871  21.319  0.00  0.00    +0.000 A 
ATOM     12  O   UNL     1       8.800  12.723  21.967  0.00  0.00    +0.000 OA
ATOM     13  C   UNL     1       7.927  12.567  22.996  0.00  0.00    +0.000 A 
ATOM     14  C   UNL     1       7.966  11.523  23.918  0.00  0.00    +0.000 A 
ATOM     15  C   UNL     1       6.979  11.528  24.907  0.00  0.00    +0.000 A 
ATOM     16  C   UNL     1       6.018  12.536  24.940  0.00  0.00    +0.000 A 
ATOM     17  F   UNL     1       5.083  12.505  25.902  0.00  0.00    +0.000 F 
ATOM     18  C   UNL     1       6.007  13.571  24.001  0.00  0.00    +0.000 A 
ATOM     19  F   UNL     1       5.069  14.524  24.069  0.00  0.00    +0.000 F 
ATOM     20  C   UNL     1       6.990  13.592  23.003  0.00  0.00    +0.000 A 
ATOM     21  C   UNL     1       7.336  14.436  21.911  0.00  0.00    +0.000 A 
ATOM     22  N   UNL     1       6.765  15.573  21.452  0.00  0.00    +0.000 NA
ATOM     23  H   UNL     1       7.179  17.497  18.973  0.00  0.00    +0.000 HD
ATOM     24  H   UNL     1       5.949  17.484  20.207  0.00  0.00    +0.000 HD
ENDROOT
BRANCH   9  25
ATOM     25  N   UNL     1      11.243  13.677  15.933  0.00  0.00    +0.000 NA
ATOM     26  H   UNL     1      12.083  14.251  16.014  0.00  0.00    +0.000 HD
ATOM     27  H   UNL     1      10.530  14.278  15.520  0.00  0.00    +0.000 HD
ENDBRANCH   9  25
TORSDOF 1
ENDMDL
