MODEL 1
REMARK VINA RESULT:      -8.5      0.000      0.000
REMARK  Name = 
REMARK  5 active torsions:
REMARK  status: ('A' for Active; 'I' for Inactive)
REMARK    1  A    between atoms: C_1  and  C_2
REMARK    2  A    between atoms: C_5  and  N_6
REMARK    3  A    between atoms: C_7  and  C_9
REMARK    4  A    between atoms: C_14  and  C_15
REMARK    5  A    between atoms: C_22  and  C_23
REMARK                            x       y       z     vdW  Elec       q    Type
REMARK                         _______ _______ _______ _____ _____    ______ ____
ROOT
ATOM      1  C   UNL     1       3.609   4.517  19.373  0.00  0.00    +0.000 A 
ATOM      2  S   UNL     1       3.076   3.035  20.064  0.00  0.00    +0.000 S 
ATOM      3  C   UNL     1       4.642   2.378  19.869  0.00  0.00    +0.000 A 
ATOM      4  N   UNL     1       4.916   1.118  20.236  0.00  0.00    +0.000 N 
ATOM      5  N   UNL     1       5.536   3.192  19.371  0.00  0.00    +0.000 NA
ATOM      6  C   UNL     1       4.968   4.433  19.093  0.00  0.00    +0.000 A 
ATOM      7  H   UNL     1       4.297   0.654  20.888  0.00  0.00    +0.000 HD
ATOM      8  H   UNL     1       5.898   0.889  20.348  0.00  0.00    +0.000 HD
ENDROOT
BRANCH   6   9
ATOM      9  C   UNL     1       5.821   5.519  18.600  0.00  0.00    +0.000 A 
ATOM     10  C   UNL     1       5.392   6.314  17.524  0.00  0.00    +0.000 A 
ATOM     11  C   UNL     1       6.226   7.298  16.982  0.00  0.00    +0.000 A 
ATOM     12  C   UNL     1       7.499   7.505  17.510  0.00  0.00    +0.000 A 
ATOM     13  C   UNL     1       7.936   6.734  18.582  0.00  0.00    +0.000 A 
ATOM     14  C   UNL     1       7.109   5.740  19.112  0.00  0.00    +0.000 A 
ENDBRANCH   6   9
BRANCH   1  16
ATOM     15  N   UNL     1       2.623   6.579  20.097  0.00  0.00    +0.000 N 
ATOM     16  C   UNL     1       2.668   5.591  19.117  0.00  0.00    +0.000 C 
ATOM     17  O   UNL     1       1.992   5.609  18.095  0.00  0.00    +0.000 OA
ATOM     18  H   UNL     1       3.200   6.427  20.913  0.00  0.00    +0.000 HD
BRANCH  15  23
ATOM     19  C   UNL     1      -0.424  11.452  20.126  0.00  0.00    +0.000 C 
ATOM     20  C   UNL     1       0.353  10.165  20.137  0.00  0.00    +0.000 A 
ATOM     21  C   UNL     1       1.076   9.803  18.998  0.00  0.00    +0.000 A 
ATOM     22  C   UNL     1       1.821   8.625  18.963  0.00  0.00    +0.000 A 
ATOM     23  C   UNL     1       1.870   7.775  20.068  0.00  0.00    +0.000 A 
ATOM     24  C   UNL     1       1.143   8.131  21.214  0.00  0.00    +0.000 A 
ATOM     25  C   UNL     1       0.377   9.314  21.260  0.00  0.00    +0.000 A 
ATOM     26  C   UNL     1      -0.406   9.655  22.499  0.00  0.00    +0.000 C 
ENDBRANCH  15  23
ENDBRANCH   1  16
TORSDOF 3
ENDMDL
MODEL 2
REMARK VINA RESULT:      -8.4      2.796      6.680
REMARK  Name = 
REMARK  5 active torsions:
REMARK  status: ('A' for Active; 'I' for Inactive)
REMARK    1  A    between atoms: C_1  and  C_2
REMARK    2  A    between atoms: C_5  and  N_6
REMARK    3  A    between atoms: C_7  and  C_9
REMARK    4  A    between atoms: C_14  and  C_15
REMARK    5  A    between atoms: C_22  and  C_23
REMARK                            x       y       z     vdW  Elec       q    Type
REMARK                         _______ _______ _______ _____ _____    ______ ____
ROOT
ATOM      1  C   UNL     1       3.732   4.123  19.613  0.00  0.00    +0.000 A 
ATOM      2  S   UNL     1       3.535   2.595  20.377  0.00  0.00    +0.000 S 
ATOM      3  C   UNL     1       2.201   3.204  21.255  0.00  0.00    +0.000 A 
ATOM      4  N   UNL     1       1.539   2.435  22.132  0.00  0.00    +0.000 N 
ATOM      5  N   UNL     1       1.869   4.440  20.990  0.00  0.00    +0.000 NA
ATOM      6  C   UNL     1       2.726   4.984  20.036  0.00  0.00    +0.000 A 
ATOM      7  H   UNL     1       1.631   1.430  22.066  0.00  0.00    +0.000 HD
ATOM      8  H   UNL     1       0.618   2.760  22.405  0.00  0.00    +0.000 HD
ENDROOT
BRANCH   6   9
ATOM      9  C   UNL     1       2.477   6.341  19.538  0.00  0.00    +0.000 A 
ATOM     10  C   UNL     1       1.893   7.301  20.381  0.00  0.00    +0.000 A 
ATOM     11  C   UNL     1       1.567   8.574  19.900  0.00  0.00    +0.000 A 
ATOM     12  C   UNL     1       1.825   8.908  18.573  0.00  0.00    +0.000 A 
ATOM     13  C   UNL     1       2.413   7.973  17.727  0.00  0.00    +0.000 A 
ATOM     14  C   UNL     1       2.723   6.696  18.203  0.00  0.00    +0.000 A 
ENDBRANCH   6   9
BRANCH   1  16
ATOM     15  N   UNL     1       4.579   4.228  17.372  0.00  0.00    +0.000 N 
ATOM     16  C   UNL     1       4.857   4.366  18.730  0.00  0.00    +0.000 C 
ATOM     17  O   UNL     1       5.953   4.687  19.175  0.00  0.00    +0.000 OA
ATOM     18  H   UNL     1       3.647   3.917  17.135  0.00  0.00    +0.000 HD
BRANCH  15  23
ATOM     19  C   UNL     1       8.024   5.253  12.887  0.00  0.00    +0.000 C 
ATOM     20  C   UNL     1       7.118   4.957  14.050  0.00  0.00    +0.000 A 
ATOM     21  C   UNL     1       7.372   5.571  15.278  0.00  0.00    +0.000 A 
ATOM     22  C   UNL     1       6.555   5.338  16.383  0.00  0.00    +0.000 A 
ATOM     23  C   UNL     1       5.454   4.487  16.292  0.00  0.00    +0.000 A 
ATOM     24  C   UNL     1       5.194   3.864  15.062  0.00  0.00    +0.000 A 
ATOM     25  C   UNL     1       6.019   4.082  13.939  0.00  0.00    +0.000 A 
ATOM     26  C   UNL     1       5.721   3.382  12.641  0.00  0.00    +0.000 C 
ENDBRANCH  15  23
ENDBRANCH   1  16
TORSDOF 3
ENDMDL
MODEL 3
REMARK VINA RESULT:      -8.4      1.983      3.693
REMARK  Name = 
REMARK  5 active torsions:
REMARK  status: ('A' for Active; 'I' for Inactive)
REMARK    1  A    between atoms: C_1  and  C_2
REMARK    2  A    between atoms: C_5  and  N_6
REMARK    3  A    between atoms: C_7  and  C_9
REMARK    4  A    between atoms: C_14  and  C_15
REMARK    5  A    between atoms: C_22  and  C_23
REMARK                            x       y       z     vdW  Elec       q    Type
REMARK                         _______ _______ _______ _____ _____    ______ ____
ROOT
ATOM      1  C   UNL     1       4.452   6.046  18.037  0.00  0.00    +0.000 A 
ATOM      2  S   UNL     1       6.055   6.321  17.477  0.00  0.00    +0.000 S 
ATOM      3  C   UNL     1       6.524   4.781  18.055  0.00  0.00    +0.000 A 
ATOM      4  N   UNL     1       7.787   4.349  17.929  0.00  0.00    +0.000 N 
ATOM      5  N   UNL     1       5.570   4.067  18.591  0.00  0.00    +0.000 NA
ATOM      6  C   UNL     1       4.366   4.768  18.577  0.00  0.00    +0.000 A 
ATOM      7  H   UNL     1       8.388   4.790  17.245  0.00  0.00    +0.000 HD
ATOM      8  H   UNL     1       7.930   3.351  18.038  0.00  0.00    +0.000 HD
ENDROOT
BRANCH   6   9
ATOM      9  C   UNL     1       3.147   4.111  19.062  0.00  0.00    +0.000 A 
ATOM     10  C   UNL     1       2.281   3.481  18.152  0.00  0.00    +0.000 A 
ATOM     11  C   UNL     1       1.071   2.925  18.581  0.00  0.00    +0.000 A 
ATOM     12  C   UNL     1       0.712   2.985  19.926  0.00  0.00    +0.000 A 
ATOM     13  C   UNL     1       1.562   3.595  20.842  0.00  0.00    +0.000 A 
ATOM     14  C   UNL     1       2.762   4.165  20.410  0.00  0.00    +0.000 A 
ENDBRANCH   6   9
BRANCH   1  16
ATOM     15  N   UNL     1       2.743   7.320  19.133  0.00  0.00    +0.000 N 
ATOM     16  C   UNL     1       3.453   7.094  17.957  0.00  0.00    +0.000 C 
ATOM     17  O   UNL     1       3.284   7.728  16.922  0.00  0.00    +0.000 OA
ATOM     18  H   UNL     1       2.947   6.701  19.906  0.00  0.00    +0.000 HD
BRANCH  15  23
ATOM     19  C   UNL     1      -1.132  11.421  20.228  0.00  0.00    +0.000 C 
ATOM     20  C   UNL     1      -0.132  10.330  19.962  0.00  0.00    +0.000 A 
ATOM     21  C   UNL     1       0.417  10.214  18.683  0.00  0.00    +0.000 A 
ATOM     22  C   UNL     1       1.356   9.227  18.389  0.00  0.00    +0.000 A 
ATOM     23  C   UNL     1       1.780   8.328  19.367  0.00  0.00    +0.000 A 
ATOM     24  C   UNL     1       1.230   8.436  20.654  0.00  0.00    +0.000 A 
ATOM     25  C   UNL     1       0.271   9.423  20.962  0.00  0.00    +0.000 A 
ATOM     26  C   UNL     1      -0.312   9.498  22.347  0.00  0.00    +0.000 C 
ENDBRANCH  15  23
ENDBRANCH   1  16
TORSDOF 3
ENDMDL
MODEL 4
REMARK VINA RESULT:      -8.3      0.080      1.007
REMARK  Name = 
REMARK  5 active torsions:
REMARK  status: ('A' for Active; 'I' for Inactive)
REMARK    1  A    between atoms: C_1  and  C_2
REMARK    2  A    between atoms: C_5  and  N_6
REMARK    3  A    between atoms: C_7  and  C_9
REMARK    4  A    between atoms: C_14  and  C_15
REMARK    5  A    between atoms: C_22  and  C_23
REMARK                            x       y       z     vdW  Elec       q    Type
REMARK                         _______ _______ _______ _____ _____    ______ ____
ROOT
ATOM      1  C   UNL     1       3.617   4.504  19.367  0.00  0.00    +0.000 A 
ATOM      2  S   UNL     1       3.108   3.052  20.134  0.00  0.00    +0.000 S 
ATOM      3  C   UNL     1       4.661   2.379  19.896  0.00  0.00    +0.000 A 
ATOM      4  N   UNL     1       4.945   1.131  20.297  0.00  0.00    +0.000 N 
ATOM      5  N   UNL     1       5.536   3.167  19.330  0.00  0.00    +0.000 NA
ATOM      6  C   UNL     1       4.963   4.401  19.032  0.00  0.00    +0.000 A 
ATOM      7  H   UNL     1       4.353   0.695  20.992  0.00  0.00    +0.000 HD
ATOM      8  H   UNL     1       5.930   0.899  20.375  0.00  0.00    +0.000 HD
ENDROOT
BRANCH   6   9
ATOM      9  C   UNL     1       5.799   5.463  18.463  0.00  0.00    +0.000 A 
ATOM     10  C   UNL     1       7.091   5.685  18.969  0.00  0.00    +0.000 A 
ATOM     11  C   UNL     1       7.872   6.748  18.502  0.00  0.00    +0.000 A 
ATOM     12  C   UNL     1       7.376   7.600  17.517  0.00  0.00    +0.000 A 
ATOM     13  C   UNL     1       6.104   7.388  16.997  0.00  0.00    +0.000 A 
ATOM     14  C   UNL     1       5.318   6.337  17.477  0.00  0.00    +0.000 A 
ENDBRANCH   6   9
BRANCH   1  16
ATOM     15  N   UNL     1       2.648   6.579  20.076  0.00  0.00    +0.000 N 
ATOM     16  C   UNL     1       2.672   5.574  19.112  0.00  0.00    +0.000 C 
ATOM     17  O   UNL     1       1.974   5.574  18.105  0.00  0.00    +0.000 OA
ATOM     18  H   UNL     1       3.242   6.441  20.882  0.00  0.00    +0.000 HD
BRANCH  15  23
ATOM     19  C   UNL     1      -0.402  11.451  20.086  0.00  0.00    +0.000 C 
ATOM     20  C   UNL     1       0.376  10.164  20.102  0.00  0.00    +0.000 A 
ATOM     21  C   UNL     1       1.107   9.803  18.968  0.00  0.00    +0.000 A 
ATOM     22  C   UNL     1       1.853   8.625  18.937  0.00  0.00    +0.000 A 
ATOM     23  C   UNL     1       1.894   7.775  20.042  0.00  0.00    +0.000 A 
ATOM     24  C   UNL     1       1.159   8.130  21.184  0.00  0.00    +0.000 A 
ATOM     25  C   UNL     1       0.392   9.312  21.224  0.00  0.00    +0.000 A 
ATOM     26  C   UNL     1      -0.400   9.652  22.458  0.00  0.00    +0.000 C 
ENDBRANCH  15  23
ENDBRANCH   1  16
TORSDOF 3
ENDMDL
MODEL 5
REMARK VINA RESULT:      -8.3      2.012      3.836
REMARK  Name = 
REMARK  5 active torsions:
REMARK  status: ('A' for Active; 'I' for Inactive)
REMARK    1  A    between atoms: C_1  and  C_2
REMARK    2  A    between atoms: C_5  and  N_6
REMARK    3  A    between atoms: C_7  and  C_9
REMARK    4  A    between atoms: C_14  and  C_15
REMARK    5  A    between atoms: C_22  and  C_23
REMARK                            x       y       z     vdW  Elec       q    Type
REMARK                         _______ _______ _______ _____ _____    ______ ____
ROOT
ATOM      1  C   UNL     1       4.284   6.163  18.064  0.00  0.00    +0.000 A 
ATOM      2  S   UNL     1       5.877   6.416  17.466  0.00  0.00    +0.000 S 
ATOM      3  C   UNL     1       6.318   4.843  17.966  0.00  0.00    +0.000 A 
ATOM      4  N   UNL     1       7.563   4.381  17.785  0.00  0.00    +0.000 N 
ATOM      5  N   UNL     1       5.360   4.133  18.504  0.00  0.00    +0.000 NA
ATOM      6  C   UNL     1       4.177   4.867  18.555  0.00  0.00    +0.000 A 
ATOM      7  H   UNL     1       8.156   4.833  17.101  0.00  0.00    +0.000 HD
ATOM      8  H   UNL     1       7.681   3.376  17.849  0.00  0.00    +0.000 HD
ENDROOT
BRANCH   6   9
ATOM      9  C   UNL     1       2.955   4.225  19.051  0.00  0.00    +0.000 A 
ATOM     10  C   UNL     1       2.685   4.202  20.429  0.00  0.00    +0.000 A 
ATOM     11  C   UNL     1       1.571   3.520  20.931  0.00  0.00    +0.000 A 
ATOM     12  C   UNL     1       0.708   2.856  20.062  0.00  0.00    +0.000 A 
ATOM     13  C   UNL     1       0.954   2.877  18.694  0.00  0.00    +0.000 A 
ATOM     14  C   UNL     1       2.076   3.544  18.195  0.00  0.00    +0.000 A 
ENDBRANCH   6   9
BRANCH   1  16
ATOM     15  N   UNL     1       2.594   7.392  19.239  0.00  0.00    +0.000 N 
ATOM     16  C   UNL     1       3.313   7.241  18.056  0.00  0.00    +0.000 C 
ATOM     17  O   UNL     1       3.174   7.960  17.073  0.00  0.00    +0.000 OA
ATOM     18  H   UNL     1       2.772   6.708  19.962  0.00  0.00    +0.000 HD
BRANCH  15  23
ATOM     19  C   UNL     1      -1.181  11.502  20.612  0.00  0.00    +0.000 C 
ATOM     20  C   UNL     1      -0.207  10.409  20.273  0.00  0.00    +0.000 A 
ATOM     21  C   UNL     1       0.299  10.333  18.973  0.00  0.00    +0.000 A 
ATOM     22  C   UNL     1       1.213   9.345  18.612  0.00  0.00    +0.000 A 
ATOM     23  C   UNL     1       1.654   8.404  19.542  0.00  0.00    +0.000 A 
ATOM     24  C   UNL     1       1.149   8.472  20.849  0.00  0.00    +0.000 A 
ATOM     25  C   UNL     1       0.215   9.460  21.225  0.00  0.00    +0.000 A 
ATOM     26  C   UNL     1      -0.321   9.491  22.630  0.00  0.00    +0.000 C 
ENDBRANCH  15  23
ENDBRANCH   1  16
TORSDOF 3
ENDMDL
MODEL 6
REMARK VINA RESULT:      -8.2      2.768      6.701
REMARK  Name = 
REMARK  5 active torsions:
REMARK  status: ('A' for Active; 'I' for Inactive)
REMARK    1  A    between atoms: C_1  and  C_2
REMARK    2  A    between atoms: C_5  and  N_6
REMARK    3  A    between atoms: C_7  and  C_9
REMARK    4  A    between atoms: C_14  and  C_15
REMARK    5  A    between atoms: C_22  and  C_23
REMARK                            x       y       z     vdW  Elec       q    Type
REMARK                         _______ _______ _______ _____ _____    ______ ____
ROOT
ATOM      1  C   UNL     1       3.658   4.370  19.598  0.00  0.00    +0.000 A 
ATOM      2  S   UNL     1       3.609   2.809  20.317  0.00  0.00    +0.000 S 
ATOM      3  C   UNL     1       2.253   3.276  21.247  0.00  0.00    +0.000 A 
ATOM      4  N   UNL     1       1.682   2.428  22.115  0.00  0.00    +0.000 N 
ATOM      5  N   UNL     1       1.812   4.487  21.030  0.00  0.00    +0.000 NA
ATOM      6  C   UNL     1       2.595   5.129  20.074  0.00  0.00    +0.000 A 
ATOM      7  H   UNL     1       1.856   1.436  22.014  0.00  0.00    +0.000 HD
ATOM      8  H   UNL     1       0.745   2.665  22.420  0.00  0.00    +0.000 HD
ENDROOT
BRANCH   6   9
ATOM      9  C   UNL     1       2.220   6.475  19.625  0.00  0.00    +0.000 A 
ATOM     10  C   UNL     1       2.450   6.859  18.294  0.00  0.00    +0.000 A 
ATOM     11  C   UNL     1       2.181   8.164  17.867  0.00  0.00    +0.000 A 
ATOM     12  C   UNL     1       1.674   9.103  18.763  0.00  0.00    +0.000 A 
ATOM     13  C   UNL     1       1.430   8.737  20.082  0.00  0.00    +0.000 A 
ATOM     14  C   UNL     1       1.715   7.438  20.512  0.00  0.00    +0.000 A 
ENDBRANCH   6   9
BRANCH   1  16
ATOM     15  N   UNL     1       4.647   4.177  17.423  0.00  0.00    +0.000 N 
ATOM     16  C   UNL     1       4.734   4.734  18.697  0.00  0.00    +0.000 C 
ATOM     17  O   UNL     1       5.628   5.492  19.053  0.00  0.00    +0.000 OA
ATOM     18  H   UNL     1       3.883   3.534  17.267  0.00  0.00    +0.000 HD
BRANCH  15  23
ATOM     19  C   UNL     1       8.004   5.169  12.864  0.00  0.00    +0.000 C 
ATOM     20  C   UNL     1       7.119   4.883  14.045  0.00  0.00    +0.000 A 
ATOM     21  C   UNL     1       7.452   5.428  15.287  0.00  0.00    +0.000 A 
ATOM     22  C   UNL     1       6.658   5.201  16.410  0.00  0.00    +0.000 A 
ATOM     23  C   UNL     1       5.502   4.425  16.324  0.00  0.00    +0.000 A 
ATOM     24  C   UNL     1       5.162   3.872  15.080  0.00  0.00    +0.000 A 
ATOM     25  C   UNL     1       5.962   4.085  13.939  0.00  0.00    +0.000 A 
ATOM     26  C   UNL     1       5.579   3.460  12.625  0.00  0.00    +0.000 C 
ENDBRANCH  15  23
ENDBRANCH   1  16
TORSDOF 3
ENDMDL
MODEL 7
REMARK VINA RESULT:      -8.1      2.616      4.236
REMARK  Name = 
REMARK  5 active torsions:
REMARK  status: ('A' for Active; 'I' for Inactive)
REMARK    1  A    between atoms: C_1  and  C_2
REMARK    2  A    between atoms: C_5  and  N_6
REMARK    3  A    between atoms: C_7  and  C_9
REMARK    4  A    between atoms: C_14  and  C_15
REMARK    5  A    between atoms: C_22  and  C_23
REMARK                            x       y       z     vdW  Elec       q    Type
REMARK                         _______ _______ _______ _____ _____    ______ ____
ROOT
ATOM      1  C   UNL     1       4.787   5.410  16.624  0.00  0.00    +0.000 A 
ATOM      2  S   UNL     1       5.685   5.740  15.194  0.00  0.00    +0.000 S 
ATOM      3  C   UNL     1       5.859   4.063  14.914  0.00  0.00    +0.000 A 
ATOM      4  N   UNL     1       6.543   3.604  13.855  0.00  0.00    +0.000 N 
ATOM      5  N   UNL     1       5.265   3.282  15.778  0.00  0.00    +0.000 NA
ATOM      6  C   UNL     1       4.628   4.036  16.761  0.00  0.00    +0.000 A 
ATOM      7  H   UNL     1       6.703   4.225  13.072  0.00  0.00    +0.000 HD
ATOM      8  H   UNL     1       6.378   2.636  13.602  0.00  0.00    +0.000 HD
ENDROOT
BRANCH   6   9
ATOM      9  C   UNL     1       3.831   3.353  17.786  0.00  0.00    +0.000 A 
ATOM     10  C   UNL     1       2.523   2.933  17.492  0.00  0.00    +0.000 A 
ATOM     11  C   UNL     1       1.715   2.358  18.479  0.00  0.00    +0.000 A 
ATOM     12  C   UNL     1       2.205   2.189  19.773  0.00  0.00    +0.000 A 
ATOM     13  C   UNL     1       3.501   2.589  20.078  0.00  0.00    +0.000 A 
ATOM     14  C   UNL     1       4.301   3.179  19.096  0.00  0.00    +0.000 A 
ENDBRANCH   6   9
BRANCH   1  16
ATOM     15  N   UNL     1       3.016   6.499  17.818  0.00  0.00    +0.000 N 
ATOM     16  C   UNL     1       4.372   6.490  17.499  0.00  0.00    +0.000 C 
ATOM     17  O   UNL     1       5.182   7.304  17.926  0.00  0.00    +0.000 OA
ATOM     18  H   UNL     1       2.445   5.797  17.368  0.00  0.00    +0.000 HD
BRANCH  15  23
ATOM     19  C   UNL     1       0.258  10.113  21.334  0.00  0.00    +0.000 C 
ATOM     20  C   UNL     1       0.990   9.192  20.398  0.00  0.00    +0.000 A 
ATOM     21  C   UNL     1       1.481   7.981  20.890  0.00  0.00    +0.000 A 
ATOM     22  C   UNL     1       2.157   7.087  20.061  0.00  0.00    +0.000 A 
ATOM     23  C   UNL     1       2.357   7.375  18.711  0.00  0.00    +0.000 A 
ATOM     24  C   UNL     1       1.868   8.591  18.210  0.00  0.00    +0.000 A 
ATOM     25  C   UNL     1       1.193   9.509  19.041  0.00  0.00    +0.000 A 
ATOM     26  C   UNL     1       0.700  10.813  18.474  0.00  0.00    +0.000 C 
ENDBRANCH  15  23
ENDBRANCH   1  16
TORSDOF 3
ENDMDL
MODEL 8
REMARK VINA RESULT:      -8.0      2.477      3.967
REMARK  Name = 
REMARK  5 active torsions:
REMARK  status: ('A' for Active; 'I' for Inactive)
REMARK    1  A    between atoms: C_1  and  C_2
REMARK    2  A    between atoms: C_5  and  N_6
REMARK    3  A    between atoms: C_7  and  C_9
REMARK    4  A    between atoms: C_14  and  C_15
REMARK    5  A    between atoms: C_22  and  C_23
REMARK                            x       y       z     vdW  Elec       q    Type
REMARK                         _______ _______ _______ _____ _____    ______ ____
ROOT
ATOM      1  C   UNL     1       4.243   5.736  17.199  0.00  0.00    +0.000 A 
ATOM      2  S   UNL     1       5.376   5.639  15.908  0.00  0.00    +0.000 S 
ATOM      3  C   UNL     1       5.414   3.938  16.065  0.00  0.00    +0.000 A 
ATOM      4  N   UNL     1       6.198   3.186  15.279  0.00  0.00    +0.000 N 
ATOM      5  N   UNL     1       4.619   3.438  16.974  0.00  0.00    +0.000 NA
ATOM      6  C   UNL     1       3.923   4.453  17.627  0.00  0.00    +0.000 A 
ATOM      7  H   UNL     1       6.538   3.579  14.411  0.00  0.00    +0.000 HD
ATOM      8  H   UNL     1       5.973   2.198  15.237  0.00  0.00    +0.000 HD
ENDROOT
BRANCH   6   9
ATOM      9  C   UNL     1       2.914   4.100  18.632  0.00  0.00    +0.000 A 
ATOM     10  C   UNL     1       3.196   4.271  19.998  0.00  0.00    +0.000 A 
ATOM     11  C   UNL     1       2.283   3.860  20.976  0.00  0.00    +0.000 A 
ATOM     12  C   UNL     1       1.074   3.278  20.603  0.00  0.00    +0.000 A 
ATOM     13  C   UNL     1       0.774   3.111  19.255  0.00  0.00    +0.000 A 
ATOM     14  C   UNL     1       1.693   3.506  18.279  0.00  0.00    +0.000 A 
ENDBRANCH   6   9
BRANCH   1  16
ATOM     15  N   UNL     1       2.479   7.090  18.094  0.00  0.00    +0.000 N 
ATOM     16  C   UNL     1       3.816   7.024  17.710  0.00  0.00    +0.000 C 
ATOM     17  O   UNL     1       4.602   7.960  17.803  0.00  0.00    +0.000 OA
ATOM     18  H   UNL     1       1.924   6.262  17.928  0.00  0.00    +0.000 HD
BRANCH  15  23
ATOM     19  C   UNL     1      -0.127  11.504  20.694  0.00  0.00    +0.000 C 
ATOM     20  C   UNL     1       0.544  10.331  20.035  0.00  0.00    +0.000 A 
ATOM     21  C   UNL     1       0.731  10.349  18.651  0.00  0.00    +0.000 A 
ATOM     22  C   UNL     1       1.357   9.291  17.994  0.00  0.00    +0.000 A 
ATOM     23  C   UNL     1       1.820   8.183  18.703  0.00  0.00    +0.000 A 
ATOM     24  C   UNL     1       1.633   8.156  20.093  0.00  0.00    +0.000 A 
ATOM     25  C   UNL     1       0.992   9.215  20.768  0.00  0.00    +0.000 A 
ATOM     26  C   UNL     1       0.791   9.143  22.258  0.00  0.00    +0.000 C 
ENDBRANCH  15  23
ENDBRANCH   1  16
TORSDOF 3
ENDMDL
MODEL 9
REMARK VINA RESULT:      -8.0      2.528      3.876
REMARK  Name = 
REMARK  5 active torsions:
REMARK  status: ('A' for Active; 'I' for Inactive)
REMARK    1  A    between atoms: C_1  and  C_2
REMARK    2  A    between atoms: C_5  and  N_6
REMARK    3  A    between atoms: C_7  and  C_9
REMARK    4  A    between atoms: C_14  and  C_15
REMARK    5  A    between atoms: C_22  and  C_23
REMARK                            x       y       z     vdW  Elec       q    Type
REMARK                         _______ _______ _______ _____ _____    ______ ____
ROOT
ATOM      1  C   UNL     1       4.347   5.786  17.030  0.00  0.00    +0.000 A 
ATOM      2  S   UNL     1       5.422   5.764  15.688  0.00  0.00    +0.000 S 
ATOM      3  C   UNL     1       5.485   4.057  15.764  0.00  0.00    +0.000 A 
ATOM      4  N   UNL     1       6.241   3.353  14.909  0.00  0.00    +0.000 N 
ATOM      5  N   UNL     1       4.735   3.506  16.681  0.00  0.00    +0.000 NA
ATOM      6  C   UNL     1       4.058   4.481  17.411  0.00  0.00    +0.000 A 
ATOM      7  H   UNL     1       6.538   3.790  14.047  0.00  0.00    +0.000 HD
ATOM      8  H   UNL     1       6.024   2.365  14.831  0.00  0.00    +0.000 HD
ENDROOT
BRANCH   6   9
ATOM      9  C   UNL     1       3.098   4.069  18.441  0.00  0.00    +0.000 A 
ATOM     10  C   UNL     1       1.848   3.549  18.066  0.00  0.00    +0.000 A 
ATOM     11  C   UNL     1       0.885   3.232  19.030  0.00  0.00    +0.000 A 
ATOM     12  C   UNL     1       1.158   3.425  20.382  0.00  0.00    +0.000 A 
ATOM     13  C   UNL     1       2.394   3.929  20.772  0.00  0.00    +0.000 A 
ATOM     14  C   UNL     1       3.350   4.262  19.808  0.00  0.00    +0.000 A 
ENDBRANCH   6   9
BRANCH   1  16
ATOM     15  N   UNL     1       2.575   7.125  17.933  0.00  0.00    +0.000 N 
ATOM     16  C   UNL     1       3.930   7.044  17.620  0.00  0.00    +0.000 C 
ATOM     17  O   UNL     1       4.736   7.941  17.831  0.00  0.00    +0.000 OA
ATOM     18  H   UNL     1       2.006   6.332  17.670  0.00  0.00    +0.000 HD
BRANCH  15  23
ATOM     19  C   UNL     1      -0.036  11.413  20.731  0.00  0.00    +0.000 C 
ATOM     20  C   UNL     1       0.635  10.272  20.019  0.00  0.00    +0.000 A 
ATOM     21  C   UNL     1       0.828  10.357  18.638  0.00  0.00    +0.000 A 
ATOM     22  C   UNL     1       1.456   9.330  17.934  0.00  0.00    +0.000 A 
ATOM     23  C   UNL     1       1.915   8.188  18.591  0.00  0.00    +0.000 A 
ATOM     24  C   UNL     1       1.722   8.095  19.977  0.00  0.00    +0.000 A 
ATOM     25  C   UNL     1       1.079   9.121  20.700  0.00  0.00    +0.000 A 
ATOM     26  C   UNL     1       0.871   8.978  22.184  0.00  0.00    +0.000 C 
ENDBRANCH  15  23
ENDBRANCH   1  16
TORSDOF 3
ENDMDL
