MODEL 1
REMARK VINA RESULT:      -8.2      0.000      0.000
REMARK  Name = 
REMARK  6 active torsions:
REMARK  status: ('A' for Active; 'I' for Inactive)
REMARK    1  A    between atoms: C_2  and  O_3
REMARK    2  A    between atoms: C_2  and  C_4
REMARK    3  A    between atoms: C_9  and  N_10
REMARK    4  A    between atoms: C_12  and  C_13
REMARK    5  A    between atoms: C_19  and  C_20
REMARK    6  A    between atoms: C_20  and  N_21
REMARK                            x       y       z     vdW  Elec       q    Type
REMARK                         _______ _______ _______ _____ _____    ______ ____
ROOT
ATOM      1  N   UNL     1       2.227   6.109  19.272  0.00  0.00    +0.000 N 
ATOM      2  N   UNL     1       1.381   7.102  19.648  0.00  0.00    +0.000 NA
ATOM      3  C   UNL     1       1.862   8.170  18.994  0.00  0.00    +0.000 A 
ATOM      4  N   UNL     1       3.005   7.936  18.288  0.00  0.00    +0.000 NA
ATOM      5  C   UNL     1       3.211   6.638  18.435  0.00  0.00    +0.000 A 
ENDROOT
BRANCH   1  11
ATOM      6  C   UNL     1       1.659   3.696  19.131  0.00  0.00    +0.000 A 
ATOM      7  C   UNL     1       1.531   2.449  19.778  0.00  0.00    +0.000 A 
ATOM      8  C   UNL     1       1.776   2.329  21.143  0.00  0.00    +0.000 A 
ATOM      9  C   UNL     1       2.191   3.440  21.869  0.00  0.00    +0.000 A 
ATOM     10  C   UNL     1       2.363   4.673  21.234  0.00  0.00    +0.000 A 
ATOM     11  C   UNL     1       2.108   4.817  19.860  0.00  0.00    +0.000 A 
BRANCH   6  13
ATOM     12  O   UNL     1       0.732   4.438  17.065  0.00  0.00    +0.000 OA
ATOM     13  C   UNL     1       1.502   3.696  17.650  0.00  0.00    +0.000 C 
BRANCH  13  14
ATOM     14  O   UNL     1       2.379   2.881  17.025  0.00  0.00    +0.000 OA
ATOM     15  H   UNL     1       2.088   2.555  16.153  0.00  0.00    +0.000 HD
ENDBRANCH  13  14
ENDBRANCH   6  13
ENDBRANCH   1  11
BRANCH   3  16
ATOM     16  C   UNL     1       1.221   9.515  19.002  0.00  0.00    +0.000 C 
ATOM     17  C   UNL     1       0.077   9.679  18.004  0.00  0.00    +0.000 C 
ATOM     18  C   UNL     1      -0.646  10.934  18.479  0.00  0.00    +0.000 C 
ATOM     19  C   UNL     1      -0.424  11.001  19.989  0.00  0.00    +0.000 C 
ATOM     20  C   UNL     1       0.575   9.897  20.332  0.00  0.00    +0.000 C 
ENDBRANCH   3  16
BRANCH   5  21
ATOM     21  C   UNL     1       4.192   5.848  17.628  0.00  0.00    +0.000 C 
BRANCH  21  22
ATOM     22  N   UNL     1       5.598   6.164  17.932  0.00  0.00    +0.000 N 
ATOM     23  C   UNL     1       6.260   7.195  17.125  0.00  0.00    +0.000 C 
ATOM     24  C   UNL     1       7.772   7.291  17.293  0.00  0.00    +0.000 C 
ATOM     25  C   UNL     1       8.178   6.973  18.717  0.00  0.00    +0.000 C 
ATOM     26  C   UNL     1       7.743   5.560  19.046  0.00  0.00    +0.000 C 
ATOM     27  C   UNL     1       6.287   5.275  18.742  0.00  0.00    +0.000 C 
ATOM     28  O   UNL     1       5.759   4.268  19.216  0.00  0.00    +0.000 OA
ENDBRANCH  21  22
ENDBRANCH   5  21
TORSDOF 6
ENDMDL
MODEL 2
REMARK VINA RESULT:      -8.1      2.020      5.314
REMARK  Name = 
REMARK  6 active torsions:
REMARK  status: ('A' for Active; 'I' for Inactive)
REMARK    1  A    between atoms: C_2  and  O_3
REMARK    2  A    between atoms: C_2  and  C_4
REMARK    3  A    between atoms: C_9  and  N_10
REMARK    4  A    between atoms: C_12  and  C_13
REMARK    5  A    between atoms: C_19  and  C_20
REMARK    6  A    between atoms: C_20  and  N_21
REMARK                            x       y       z     vdW  Elec       q    Type
REMARK                         _______ _______ _______ _____ _____    ______ ____
ROOT
ATOM      1  N   UNL     1       4.251   5.723  16.995  0.00  0.00    +0.000 N 
ATOM      2  N   UNL     1       4.108   7.055  17.216  0.00  0.00    +0.000 NA
ATOM      3  C   UNL     1       3.002   7.118  17.972  0.00  0.00    +0.000 A 
ATOM      4  N   UNL     1       2.389   5.917  18.181  0.00  0.00    +0.000 NA
ATOM      5  C   UNL     1       3.192   5.044  17.599  0.00  0.00    +0.000 A 
ENDROOT
BRANCH   1  11
ATOM      6  C   UNL     1       6.628   5.201  16.504  0.00  0.00    +0.000 A 
ATOM      7  C   UNL     1       7.598   4.760  15.579  0.00  0.00    +0.000 A 
ATOM      8  C   UNL     1       7.241   4.447  14.270  0.00  0.00    +0.000 A 
ATOM      9  C   UNL     1       5.909   4.530  13.881  0.00  0.00    +0.000 A 
ATOM     10  C   UNL     1       4.930   4.925  14.798  0.00  0.00    +0.000 A 
ATOM     11  C   UNL     1       5.272   5.257  16.118  0.00  0.00    +0.000 A 
BRANCH   6  13
ATOM     12  O   UNL     1       7.459   6.459  18.349  0.00  0.00    +0.000 OA
ATOM     13  C   UNL     1       7.085   5.385  17.909  0.00  0.00    +0.000 C 
BRANCH  13  14
ATOM     14  O   UNL     1       6.928   4.278  18.667  0.00  0.00    +0.000 OA
ATOM     15  H   UNL     1       6.400   3.569  18.256  0.00  0.00    +0.000 HD
ENDBRANCH  13  14
ENDBRANCH   6  13
ENDBRANCH   1  11
BRANCH   3  16
ATOM     16  C   UNL     1       2.462   8.373  18.565  0.00  0.00    +0.000 C 
ATOM     17  C   UNL     1       1.425   9.088  17.702  0.00  0.00    +0.000 C 
ATOM     18  C   UNL     1       0.755  10.061  18.666  0.00  0.00    +0.000 C 
ATOM     19  C   UNL     1       0.849   9.416  20.048  0.00  0.00    +0.000 C 
ATOM     20  C   UNL     1       1.731   8.180  19.892  0.00  0.00    +0.000 C 
ENDBRANCH   3  16
BRANCH   5  21
ATOM     21  C   UNL     1       3.095   3.561  17.784  0.00  0.00    +0.000 C 
BRANCH  21  22
ATOM     22  N   UNL     1       2.644   3.162  19.127  0.00  0.00    +0.000 N 
ATOM     23  C   UNL     1       1.244   3.415  19.485  0.00  0.00    +0.000 C 
ATOM     24  C   UNL     1       0.899   3.238  20.960  0.00  0.00    +0.000 C 
ATOM     25  C   UNL     1       1.718   2.122  21.575  0.00  0.00    +0.000 C 
ATOM     26  C   UNL     1       3.187   2.471  21.458  0.00  0.00    +0.000 C 
ATOM     27  C   UNL     1       3.622   2.856  20.060  0.00  0.00    +0.000 C 
ATOM     28  O   UNL     1       4.824   2.890  19.791  0.00  0.00    +0.000 OA
ENDBRANCH  21  22
ENDBRANCH   5  21
TORSDOF 6
ENDMDL
MODEL 3
REMARK VINA RESULT:      -8.1      2.100      5.569
REMARK  Name = 
REMARK  6 active torsions:
REMARK  status: ('A' for Active; 'I' for Inactive)
REMARK    1  A    between atoms: C_2  and  O_3
REMARK    2  A    between atoms: C_2  and  C_4
REMARK    3  A    between atoms: C_9  and  N_10
REMARK    4  A    between atoms: C_12  and  C_13
REMARK    5  A    between atoms: C_19  and  C_20
REMARK    6  A    between atoms: C_20  and  N_21
REMARK                            x       y       z     vdW  Elec       q    Type
REMARK                         _______ _______ _______ _____ _____    ______ ____
ROOT
ATOM      1  N   UNL     1       4.371   5.779  16.956  0.00  0.00    +0.000 N 
ATOM      2  N   UNL     1       4.162   7.112  17.110  0.00  0.00    +0.000 NA
ATOM      3  C   UNL     1       3.099   7.157  17.927  0.00  0.00    +0.000 A 
ATOM      4  N   UNL     1       2.572   5.939  18.240  0.00  0.00    +0.000 NA
ATOM      5  C   UNL     1       3.390   5.078  17.660  0.00  0.00    +0.000 A 
ENDROOT
BRANCH   1  11
ATOM      6  C   UNL     1       6.744   5.399  16.335  0.00  0.00    +0.000 A 
ATOM      7  C   UNL     1       7.683   4.956  15.379  0.00  0.00    +0.000 A 
ATOM      8  C   UNL     1       7.267   4.506  14.130  0.00  0.00    +0.000 A 
ATOM      9  C   UNL     1       5.909   4.453  13.834  0.00  0.00    +0.000 A 
ATOM     10  C   UNL     1       4.964   4.849  14.785  0.00  0.00    +0.000 A 
ATOM     11  C   UNL     1       5.366   5.319  16.046  0.00  0.00    +0.000 A 
BRANCH   6  13
ATOM     12  O   UNL     1       7.701   4.896  18.459  0.00  0.00    +0.000 OA
ATOM     13  C   UNL     1       7.277   5.737  17.684  0.00  0.00    +0.000 C 
BRANCH  13  14
ATOM     14  O   UNL     1       7.351   7.067  17.906  0.00  0.00    +0.000 OA
ATOM     15  H   UNL     1       6.553   7.463  18.303  0.00  0.00    +0.000 HD
ENDBRANCH  13  14
ENDBRANCH   6  13
ENDBRANCH   1  11
BRANCH   3  16
ATOM     16  C   UNL     1       2.521   8.414  18.480  0.00  0.00    +0.000 C 
ATOM     17  C   UNL     1       1.453   9.062  17.602  0.00  0.00    +0.000 C 
ATOM     18  C   UNL     1       0.758  10.045  18.537  0.00  0.00    +0.000 C 
ATOM     19  C   UNL     1       0.884   9.453  19.939  0.00  0.00    +0.000 C 
ATOM     20  C   UNL     1       1.808   8.243  19.819  0.00  0.00    +0.000 C 
ENDBRANCH   3  16
BRANCH   5  21
ATOM     21  C   UNL     1       3.392   3.607  17.934  0.00  0.00    +0.000 C 
BRANCH  21  22
ATOM     22  N   UNL     1       2.732   3.240  19.197  0.00  0.00    +0.000 N 
ATOM     23  C   UNL     1       3.581   2.961  20.360  0.00  0.00    +0.000 C 
ATOM     24  C   UNL     1       2.875   2.328  21.554  0.00  0.00    +0.000 C 
ATOM     25  C   UNL     1       1.455   2.841  21.676  0.00  0.00    +0.000 C 
ATOM     26  C   UNL     1       0.695   2.481  20.416  0.00  0.00    +0.000 C 
ATOM     27  C   UNL     1       1.392   2.891  19.136  0.00  0.00    +0.000 C 
ATOM     28  O   UNL     1       0.755   2.902  18.080  0.00  0.00    +0.000 OA
ENDBRANCH  21  22
ENDBRANCH   5  21
TORSDOF 6
ENDMDL
MODEL 4
REMARK VINA RESULT:      -8.1      3.366      7.552
REMARK  Name = 
REMARK  6 active torsions:
REMARK  status: ('A' for Active; 'I' for Inactive)
REMARK    1  A    between atoms: C_2  and  O_3
REMARK    2  A    between atoms: C_2  and  C_4
REMARK    3  A    between atoms: C_9  and  N_10
REMARK    4  A    between atoms: C_12  and  C_13
REMARK    5  A    between atoms: C_19  and  C_20
REMARK    6  A    between atoms: C_20  and  N_21
REMARK                            x       y       z     vdW  Elec       q    Type
REMARK                         _______ _______ _______ _____ _____    ______ ____
ROOT
ATOM      1  N   UNL     1       6.670   6.014  16.695  0.00  0.00    +0.000 N 
ATOM      2  N   UNL     1       7.181   5.543  15.529  0.00  0.00    +0.000 NA
ATOM      3  C   UNL     1       6.322   4.567  15.197  0.00  0.00    +0.000 A 
ATOM      4  N   UNL     1       5.341   4.337  16.116  0.00  0.00    +0.000 NA
ATOM      5  C   UNL     1       5.542   5.266  17.035  0.00  0.00    +0.000 A 
ENDROOT
BRANCH   1  11
ATOM      6  C   UNL     1       7.985   6.725  18.677  0.00  0.00    +0.000 A 
ATOM      7  C   UNL     1       8.651   7.756  19.374  0.00  0.00    +0.000 A 
ATOM      8  C   UNL     1       8.659   9.057  18.881  0.00  0.00    +0.000 A 
ATOM      9  C   UNL     1       8.041   9.337  17.667  0.00  0.00    +0.000 A 
ATOM     10  C   UNL     1       7.414   8.318  16.943  0.00  0.00    +0.000 A 
ATOM     11  C   UNL     1       7.383   7.002  17.432  0.00  0.00    +0.000 A 
BRANCH   6  13
ATOM     12  O   UNL     1       8.404   4.384  18.516  0.00  0.00    +0.000 OA
ATOM     13  C   UNL     1       8.143   5.347  19.218  0.00  0.00    +0.000 C 
BRANCH  13  14
ATOM     14  O   UNL     1       8.087   5.297  20.566  0.00  0.00    +0.000 OA
ATOM     15  H   UNL     1       7.688   4.486  20.932  0.00  0.00    +0.000 HD
ENDBRANCH  13  14
ENDBRANCH   6  13
ENDBRANCH   1  11
BRANCH   3  16
ATOM     16  C   UNL     1       6.390   3.786  13.929  0.00  0.00    +0.000 C 
ATOM     17  C   UNL     1       5.052   3.623  13.212  0.00  0.00    +0.000 C 
ATOM     18  C   UNL     1       5.442   3.176  11.808  0.00  0.00    +0.000 C 
ATOM     19  C   UNL     1       6.819   3.781  11.541  0.00  0.00    +0.000 C 
ATOM     20  C   UNL     1       7.282   4.405  12.855  0.00  0.00    +0.000 C 
ENDBRANCH   3  16
BRANCH   5  21
ATOM     21  C   UNL     1       4.562   5.601  18.117  0.00  0.00    +0.000 C 
BRANCH  21  22
ATOM     22  N   UNL     1       3.594   4.527  18.390  0.00  0.00    +0.000 N 
ATOM     23  C   UNL     1       2.184   4.775  18.066  0.00  0.00    +0.000 C 
ATOM     24  C   UNL     1       1.194   3.752  18.614  0.00  0.00    +0.000 C 
ATOM     25  C   UNL     1       1.804   2.366  18.632  0.00  0.00    +0.000 C 
ATOM     26  C   UNL     1       3.029   2.382  19.524  0.00  0.00    +0.000 C 
ATOM     27  C   UNL     1       4.014   3.485  19.201  0.00  0.00    +0.000 C 
ATOM     28  O   UNL     1       5.154   3.429  19.666  0.00  0.00    +0.000 OA
ENDBRANCH  21  22
ENDBRANCH   5  21
TORSDOF 6
ENDMDL
MODEL 5
REMARK VINA RESULT:      -8.0      3.184      7.525
REMARK  Name = 
REMARK  6 active torsions:
REMARK  status: ('A' for Active; 'I' for Inactive)
REMARK    1  A    between atoms: C_2  and  O_3
REMARK    2  A    between atoms: C_2  and  C_4
REMARK    3  A    between atoms: C_9  and  N_10
REMARK    4  A    between atoms: C_12  and  C_13
REMARK    5  A    between atoms: C_19  and  C_20
REMARK    6  A    between atoms: C_20  and  N_21
REMARK                            x       y       z     vdW  Elec       q    Type
REMARK                         _______ _______ _______ _____ _____    ______ ____
ROOT
ATOM      1  N   UNL     1       6.596   6.095  16.680  0.00  0.00    +0.000 N 
ATOM      2  N   UNL     1       7.131   5.545  15.560  0.00  0.00    +0.000 NA
ATOM      3  C   UNL     1       6.219   4.625  15.212  0.00  0.00    +0.000 A 
ATOM      4  N   UNL     1       5.175   4.503  16.082  0.00  0.00    +0.000 NA
ATOM      5  C   UNL     1       5.397   5.447  16.980  0.00  0.00    +0.000 A 
ENDROOT
BRANCH   1  11
ATOM      6  C   UNL     1       7.953   6.743  18.656  0.00  0.00    +0.000 A 
ATOM      7  C   UNL     1       8.652   7.745  19.361  0.00  0.00    +0.000 A 
ATOM      8  C   UNL     1       8.685   9.054  18.888  0.00  0.00    +0.000 A 
ATOM      9  C   UNL     1       8.059   9.369  17.686  0.00  0.00    +0.000 A 
ATOM     10  C   UNL     1       7.398   8.377  16.955  0.00  0.00    +0.000 A 
ATOM     11  C   UNL     1       7.342   7.054  17.423  0.00  0.00    +0.000 A 
BRANCH   6  13
ATOM     12  O   UNL     1       8.304   4.394  18.451  0.00  0.00    +0.000 OA
ATOM     13  C   UNL     1       8.084   5.352  19.173  0.00  0.00    +0.000 C 
BRANCH  13  14
ATOM     14  O   UNL     1       8.054   5.284  20.521  0.00  0.00    +0.000 OA
ATOM     15  H   UNL     1       8.678   5.877  20.977  0.00  0.00    +0.000 HD
ENDBRANCH  13  14
ENDBRANCH   6  13
ENDBRANCH   1  11
BRANCH   3  16
ATOM     16  C   UNL     1       6.295   3.794  13.977  0.00  0.00    +0.000 C 
ATOM     17  C   UNL     1       4.981   3.681  13.207  0.00  0.00    +0.000 C 
ATOM     18  C   UNL     1       5.404   3.161  11.838  0.00  0.00    +0.000 C 
ATOM     19  C   UNL     1       6.825   3.675  11.612  0.00  0.00    +0.000 C 
ATOM     20  C   UNL     1       7.267   4.320  12.924  0.00  0.00    +0.000 C 
ENDBRANCH   3  16
BRANCH   5  21
ATOM     21  C   UNL     1       4.389   5.894  17.993  0.00  0.00    +0.000 C 
BRANCH  21  22
ATOM     22  N   UNL     1       3.786   4.788  18.754  0.00  0.00    +0.000 N 
ATOM     23  C   UNL     1       4.686   3.850  19.433  0.00  0.00    +0.000 C 
ATOM     24  C   UNL     1       4.031   2.583  19.972  0.00  0.00    +0.000 C 
ATOM     25  C   UNL     1       2.622   2.865  20.451  0.00  0.00    +0.000 C 
ATOM     26  C   UNL     1       1.802   3.377  19.285  0.00  0.00    +0.000 C 
ATOM     27  C   UNL     1       2.442   4.528  18.537  0.00  0.00    +0.000 C 
ATOM     28  O   UNL     1       1.757   5.196  17.760  0.00  0.00    +0.000 OA
ENDBRANCH  21  22
ENDBRANCH   5  21
TORSDOF 6
ENDMDL
MODEL 6
REMARK VINA RESULT:      -7.9      2.890      6.102
REMARK  Name = 
REMARK  6 active torsions:
REMARK  status: ('A' for Active; 'I' for Inactive)
REMARK    1  A    between atoms: C_2  and  O_3
REMARK    2  A    between atoms: C_2  and  C_4
REMARK    3  A    between atoms: C_9  and  N_10
REMARK    4  A    between atoms: C_12  and  C_13
REMARK    5  A    between atoms: C_19  and  C_20
REMARK    6  A    between atoms: C_20  and  N_21
REMARK                            x       y       z     vdW  Elec       q    Type
REMARK                         _______ _______ _______ _____ _____    ______ ____
ROOT
ATOM      1  N   UNL     1       4.223   3.867  17.191  0.00  0.00    +0.000 N 
ATOM      2  N   UNL     1       4.578   3.375  15.976  0.00  0.00    +0.000 NA
ATOM      3  C   UNL     1       5.650   4.114  15.654  0.00  0.00    +0.000 A 
ATOM      4  N   UNL     1       5.952   5.097  16.551  0.00  0.00    +0.000 NA
ATOM      5  C   UNL     1       5.079   4.917  17.527  0.00  0.00    +0.000 A 
ENDROOT
BRANCH   1  11
ATOM      6  C   UNL     1       3.031   2.308  18.711  0.00  0.00    +0.000 A 
ATOM      7  C   UNL     1       1.815   1.875  19.280  0.00  0.00    +0.000 A 
ATOM      8  C   UNL     1       0.610   2.470  18.919  0.00  0.00    +0.000 A 
ATOM      9  C   UNL     1       0.608   3.531  18.021  0.00  0.00    +0.000 A 
ATOM     10  C   UNL     1       1.809   4.000  17.480  0.00  0.00    +0.000 A 
ATOM     11  C   UNL     1       3.033   3.403  17.822  0.00  0.00    +0.000 A 
BRANCH   6  13
ATOM     12  O   UNL     1       4.934   2.215  20.143  0.00  0.00    +0.000 OA
ATOM     13  C   UNL     1       4.275   1.698  19.257  0.00  0.00    +0.000 C 
BRANCH  13  14
ATOM     14  O   UNL     1       4.526   0.469  18.757  0.00  0.00    +0.000 OA
ATOM     15  H   UNL     1       3.734  -0.064  18.559  0.00  0.00    +0.000 HD
ENDBRANCH  13  14
ENDBRANCH   6  13
ENDBRANCH   1  11
BRANCH   3  16
ATOM     16  C   UNL     1       6.478   3.902  14.434  0.00  0.00    +0.000 C 
ATOM     17  C   UNL     1       5.680   3.572  13.174  0.00  0.00    +0.000 C 
ATOM     18  C   UNL     1       6.671   3.807  12.041  0.00  0.00    +0.000 C 
ATOM     19  C   UNL     1       7.632   4.885  12.539  0.00  0.00    +0.000 C 
ATOM     20  C   UNL     1       7.299   5.118  14.011  0.00  0.00    +0.000 C 
ENDBRANCH   3  16
BRANCH   5  21
ATOM     21  C   UNL     1       5.173   5.575  18.868  0.00  0.00    +0.000 C 
BRANCH  21  22
ATOM     22  N   UNL     1       3.909   6.181  19.318  0.00  0.00    +0.000 N 
ATOM     23  C   UNL     1       3.150   5.489  20.366  0.00  0.00    +0.000 C 
ATOM     24  C   UNL     1       1.734   6.004  20.601  0.00  0.00    +0.000 C 
ATOM     25  C   UNL     1       1.660   7.500  20.382  0.00  0.00    +0.000 C 
ATOM     26  C   UNL     1       2.057   7.807  18.953  0.00  0.00    +0.000 C 
ATOM     27  C   UNL     1       3.371   7.186  18.530  0.00  0.00    +0.000 C 
ATOM     28  O   UNL     1       3.923   7.585  17.503  0.00  0.00    +0.000 OA
ENDBRANCH  21  22
ENDBRANCH   5  21
TORSDOF 6
ENDMDL
MODEL 7
REMARK VINA RESULT:      -7.9      2.025      5.305
REMARK  Name = 
REMARK  6 active torsions:
REMARK  status: ('A' for Active; 'I' for Inactive)
REMARK    1  A    between atoms: C_2  and  O_3
REMARK    2  A    between atoms: C_2  and  C_4
REMARK    3  A    between atoms: C_9  and  N_10
REMARK    4  A    between atoms: C_12  and  C_13
REMARK    5  A    between atoms: C_19  and  C_20
REMARK    6  A    between atoms: C_20  and  N_21
REMARK                            x       y       z     vdW  Elec       q    Type
REMARK                         _______ _______ _______ _____ _____    ______ ____
ROOT
ATOM      1  N   UNL     1       4.209   6.604  17.363  0.00  0.00    +0.000 N 
ATOM      2  N   UNL     1       3.639   7.744  16.894  0.00  0.00    +0.000 NA
ATOM      3  C   UNL     1       2.757   8.056  17.855  0.00  0.00    +0.000 A 
ATOM      4  N   UNL     1       2.675   7.146  18.868  0.00  0.00    +0.000 NA
ATOM      5  C   UNL     1       3.609   6.257  18.575  0.00  0.00    +0.000 A 
ENDROOT
BRANCH   1  11
ATOM      6  C   UNL     1       6.526   6.125  16.612  0.00  0.00    +0.000 A 
ATOM      7  C   UNL     1       7.391   5.409  15.757  0.00  0.00    +0.000 A 
ATOM      8  C   UNL     1       6.884   4.527  14.808  0.00  0.00    +0.000 A 
ATOM      9  C   UNL     1       5.511   4.316  14.728  0.00  0.00    +0.000 A 
ATOM     10  C   UNL     1       4.643   4.987  15.596  0.00  0.00    +0.000 A 
ATOM     11  C   UNL     1       5.136   5.891  16.551  0.00  0.00    +0.000 A 
BRANCH   6  13
ATOM     12  O   UNL     1       7.536   6.476  18.741  0.00  0.00    +0.000 OA
ATOM     13  C   UNL     1       7.170   6.943  17.676  0.00  0.00    +0.000 C 
BRANCH  13  14
ATOM     14  O   UNL     1       7.410   8.216  17.294  0.00  0.00    +0.000 OA
ATOM     15  H   UNL     1       6.753   8.868  17.600  0.00  0.00    +0.000 HD
ENDBRANCH  13  14
ENDBRANCH   6  13
ENDBRANCH   1  11
BRANCH   3  16
ATOM     16  C   UNL     1       1.926   9.293  17.861  0.00  0.00    +0.000 C 
ATOM     17  C   UNL     1       1.032   9.451  19.089  0.00  0.00    +0.000 C 
ATOM     18  C   UNL     1       0.624  10.920  19.057  0.00  0.00    +0.000 C 
ATOM     19  C   UNL     1       1.771  11.660  18.371  0.00  0.00    +0.000 C 
ATOM     20  C   UNL     1       2.730  10.591  17.851  0.00  0.00    +0.000 C 
ENDBRANCH   3  16
BRANCH   5  21
ATOM     21  C   UNL     1       4.094   5.206  19.523  0.00  0.00    +0.000 C 
BRANCH  21  22
ATOM     22  N   UNL     1       3.098   4.161  19.807  0.00  0.00    +0.000 N 
ATOM     23  C   UNL     1       2.336   4.259  21.057  0.00  0.00    +0.000 C 
ATOM     24  C   UNL     1       1.524   3.024  21.432  0.00  0.00    +0.000 C 
ATOM     25  C   UNL     1       0.989   2.334  20.194  0.00  0.00    +0.000 C 
ATOM     26  C   UNL     1       2.157   1.903  19.331  0.00  0.00    +0.000 C 
ATOM     27  C   UNL     1       3.151   3.007  19.040  0.00  0.00    +0.000 C 
ATOM     28  O   UNL     1       3.977   2.852  18.139  0.00  0.00    +0.000 OA
ENDBRANCH  21  22
ENDBRANCH   5  21
TORSDOF 6
ENDMDL
MODEL 8
REMARK VINA RESULT:      -7.8      1.661      4.898
REMARK  Name = 
REMARK  6 active torsions:
REMARK  status: ('A' for Active; 'I' for Inactive)
REMARK    1  A    between atoms: C_2  and  O_3
REMARK    2  A    between atoms: C_2  and  C_4
REMARK    3  A    between atoms: C_9  and  N_10
REMARK    4  A    between atoms: C_12  and  C_13
REMARK    5  A    between atoms: C_19  and  C_20
REMARK    6  A    between atoms: C_20  and  N_21
REMARK                            x       y       z     vdW  Elec       q    Type
REMARK                         _______ _______ _______ _____ _____    ______ ____
ROOT
ATOM      1  N   UNL     1       3.829   6.079  17.562  0.00  0.00    +0.000 N 
ATOM      2  N   UNL     1       3.781   7.411  17.822  0.00  0.00    +0.000 NA
ATOM      3  C   UNL     1       2.507   7.598  18.199  0.00  0.00    +0.000 A 
ATOM      4  N   UNL     1       1.723   6.484  18.122  0.00  0.00    +0.000 NA
ATOM      5  C   UNL     1       2.561   5.529  17.756  0.00  0.00    +0.000 A 
ENDROOT
BRANCH   1  11
ATOM      6  C   UNL     1       6.168   5.278  17.794  0.00  0.00    +0.000 A 
ATOM      7  C   UNL     1       7.322   4.739  17.187  0.00  0.00    +0.000 A 
ATOM      8  C   UNL     1       7.357   4.497  15.817  0.00  0.00    +0.000 A 
ATOM      9  C   UNL     1       6.229   4.749  15.044  0.00  0.00    +0.000 A 
ATOM     10  C   UNL     1       5.064   5.244  15.637  0.00  0.00    +0.000 A 
ATOM     11  C   UNL     1       5.014   5.508  17.016  0.00  0.00    +0.000 A 
BRANCH   6  13
ATOM     12  O   UNL     1       7.213   5.451  19.929  0.00  0.00    +0.000 OA
ATOM     13  C   UNL     1       6.183   5.379  19.280  0.00  0.00    +0.000 C 
BRANCH  13  14
ATOM     14  O   UNL     1       4.950   5.502  19.815  0.00  0.00    +0.000 OA
ATOM     15  H   UNL     1       4.703   4.801  20.446  0.00  0.00    +0.000 HD
ENDBRANCH  13  14
ENDBRANCH   6  13
ENDBRANCH   1  11
BRANCH   3  16
ATOM     16  C   UNL     1       1.958   8.895  18.683  0.00  0.00    +0.000 C 
ATOM     17  C   UNL     1       0.836   9.471  17.822  0.00  0.00    +0.000 C 
ATOM     18  C   UNL     1       0.195  10.527  18.715  0.00  0.00    +0.000 C 
ATOM     19  C   UNL     1       0.408  10.050  20.150  0.00  0.00    +0.000 C 
ATOM     20  C   UNL     1       1.327   8.833  20.073  0.00  0.00    +0.000 C 
ENDBRANCH   3  16
BRANCH   5  21
ATOM     21  C   UNL     1       2.237   4.068  17.796  0.00  0.00    +0.000 C 
BRANCH  21  22
ATOM     22  N   UNL     1       2.254   3.496  19.152  0.00  0.00    +0.000 N 
ATOM     23  C   UNL     1       1.265   3.988  20.118  0.00  0.00    +0.000 C 
ATOM     24  C   UNL     1       1.496   3.570  21.566  0.00  0.00    +0.000 C 
ATOM     25  C   UNL     1       2.098   2.182  21.638  0.00  0.00    +0.000 C 
ATOM     26  C   UNL     1       3.430   2.188  20.917  0.00  0.00    +0.000 C 
ATOM     27  C   UNL     1       3.372   2.763  19.517  0.00  0.00    +0.000 C 
ATOM     28  O   UNL     1       4.314   2.569  18.747  0.00  0.00    +0.000 OA
ENDBRANCH  21  22
ENDBRANCH   5  21
TORSDOF 6
ENDMDL
MODEL 9
REMARK VINA RESULT:      -7.7      0.890      1.308
REMARK  Name = 
REMARK  6 active torsions:
REMARK  status: ('A' for Active; 'I' for Inactive)
REMARK    1  A    between atoms: C_2  and  O_3
REMARK    2  A    between atoms: C_2  and  C_4
REMARK    3  A    between atoms: C_9  and  N_10
REMARK    4  A    between atoms: C_12  and  C_13
REMARK    5  A    between atoms: C_19  and  C_20
REMARK    6  A    between atoms: C_20  and  N_21
REMARK                            x       y       z     vdW  Elec       q    Type
REMARK                         _______ _______ _______ _____ _____    ______ ____
ROOT
ATOM      1  N   UNL     1       2.212   6.167  19.194  0.00  0.00    +0.000 N 
ATOM      2  N   UNL     1       1.408   7.183  19.600  0.00  0.00    +0.000 NA
ATOM      3  C   UNL     1       1.877   8.232  18.908  0.00  0.00    +0.000 A 
ATOM      4  N   UNL     1       2.976   7.964  18.146  0.00  0.00    +0.000 NA
ATOM      5  C   UNL     1       3.162   6.664  18.300  0.00  0.00    +0.000 A 
ENDROOT
BRANCH   1  11
ATOM      6  C   UNL     1       1.636   3.754  19.100  0.00  0.00    +0.000 A 
ATOM      7  C   UNL     1       1.512   2.518  19.770  0.00  0.00    +0.000 A 
ATOM      8  C   UNL     1       1.773   2.420  21.133  0.00  0.00    +0.000 A 
ATOM      9  C   UNL     1       2.201   3.541  21.835  0.00  0.00    +0.000 A 
ATOM     10  C   UNL     1       2.368   4.764  21.177  0.00  0.00    +0.000 A 
ATOM     11  C   UNL     1       2.097   4.886  19.805  0.00  0.00    +0.000 A 
BRANCH   6  13
ATOM     12  O   UNL     1       0.695   4.473  17.032  0.00  0.00    +0.000 OA
ATOM     13  C   UNL     1       1.461   3.729  17.621  0.00  0.00    +0.000 C 
BRANCH  13  14
ATOM     14  O   UNL     1       2.317   2.890  17.001  0.00  0.00    +0.000 OA
ATOM     15  H   UNL     1       2.882   3.305  16.323  0.00  0.00    +0.000 HD
ENDBRANCH  13  14
ENDBRANCH   6  13
ENDBRANCH   1  11
BRANCH   3  16
ATOM     16  C   UNL     1       1.266   9.591  18.931  0.00  0.00    +0.000 C 
ATOM     17  C   UNL     1       0.032   9.747  18.044  0.00  0.00    +0.000 C 
ATOM     18  C   UNL     1      -0.616  11.033  18.544  0.00  0.00    +0.000 C 
ATOM     19  C   UNL     1      -0.245  11.145  20.021  0.00  0.00    +0.000 C 
ATOM     20  C   UNL     1       0.762  10.032  20.303  0.00  0.00    +0.000 C 
ENDBRANCH   3  16
BRANCH   5  21
ATOM     21  C   UNL     1       4.083   5.842  17.454  0.00  0.00    +0.000 C 
BRANCH  21  22
ATOM     22  N   UNL     1       5.477   5.841  17.927  0.00  0.00    +0.000 N 
ATOM     23  C   UNL     1       5.762   5.211  19.221  0.00  0.00    +0.000 C 
ATOM     24  C   UNL     1       7.154   5.473  19.788  0.00  0.00    +0.000 C 
ATOM     25  C   UNL     1       8.178   5.575  18.677  0.00  0.00    +0.000 C 
ATOM     26  C   UNL     1       7.801   6.725  17.766  0.00  0.00    +0.000 C 
ATOM     27  C   UNL     1       6.367   6.684  17.281  0.00  0.00    +0.000 C 
ATOM     28  O   UNL     1       6.032   7.397  16.333  0.00  0.00    +0.000 OA
ENDBRANCH  21  22
ENDBRANCH   5  21
TORSDOF 6
ENDMDL
