MODEL 1
REMARK VINA RESULT:      -8.3      0.000      0.000
REMARK  Name = 
REMARK  3 active torsions:
REMARK  status: ('A' for Active; 'I' for Inactive)
REMARK    1  A    between atoms: C_5  and  C_6
REMARK    2  A    between atoms: N_8  and  N_9
REMARK    3  A    between atoms: C_10  and  C_11
REMARK                            x       y       z     vdW  Elec       q    Type
REMARK                         _______ _______ _______ _____ _____    ______ ____
ROOT
ATOM      1  C   UNL     1       6.636   4.615  16.112  0.00  0.00    +0.000 C 
ATOM      2  O   UNL     1       7.493   4.679  15.229  0.00  0.00    +0.000 OA
ATOM      3  N   UNL     1       5.671   3.629  16.087  0.00  0.00    +0.000 N 
ATOM      4  H   UNL     1       5.676   2.978  15.307  0.00  0.00    +0.000 HD
ENDROOT
BRANCH   1   9
ATOM      5  O   UNL     1       8.115   5.305  20.491  0.00  0.00    +0.000 OA
ATOM      6  C   UNL     1       7.722   5.643  19.390  0.00  0.00    +0.000 C 
ATOM      7  C   UNL     1       7.957   6.975  18.735  0.00  0.00    +0.000 C 
ATOM      8  C   UNL     1       7.635   6.687  17.274  0.00  0.00    +0.000 C 
ATOM      9  C   UNL     1       6.602   5.566  17.326  0.00  0.00    +0.000 C 
ATOM     10  N   UNL     1       6.941   4.886  18.552  0.00  0.00    +0.000 N 
ATOM     11  H   UNL     1       6.680   3.931  18.770  0.00  0.00    +0.000 HD
ENDBRANCH   1   9
BRANCH   3  12
ATOM     12  N   UNL     1       4.801   3.499  17.112  0.00  0.00    +0.000 NA
ATOM     13  C   UNL     1       3.643   4.062  16.996  0.00  0.00    +0.000 C 
BRANCH  13  14
ATOM     14  C   UNL     1       2.679   3.939  18.104  0.00  0.00    +0.000 A 
ATOM     15  C   UNL     1       2.485   5.004  18.992  0.00  0.00    +0.000 A 
ATOM     16  C   UNL     1       1.590   4.861  20.043  0.00  0.00    +0.000 A 
ATOM     17  F   UNL     1       1.406   5.879  20.892  0.00  0.00    +0.000 F 
ATOM     18  C   UNL     1       0.887   3.674  20.227  0.00  0.00    +0.000 A 
ATOM     19  C   UNL     1       1.074   2.616  19.335  0.00  0.00    +0.000 A 
ATOM     20  C   UNL     1       1.969   2.756  18.275  0.00  0.00    +0.000 A 
ATOM     21  F   UNL     1       2.139   1.730  17.430  0.00  0.00    +0.000 F 
ENDBRANCH  13  14
ENDBRANCH   3  12
TORSDOF 3
ENDMDL
MODEL 2
REMARK VINA RESULT:      -8.2      1.396      1.471
REMARK  Name = 
REMARK  3 active torsions:
REMARK  status: ('A' for Active; 'I' for Inactive)
REMARK    1  A    between atoms: C_5  and  C_6
REMARK    2  A    between atoms: N_8  and  N_9
REMARK    3  A    between atoms: C_10  and  C_11
REMARK                            x       y       z     vdW  Elec       q    Type
REMARK                         _______ _______ _______ _____ _____    ______ ____
ROOT
ATOM      1  C   UNL     1       6.550   4.627  16.098  0.00  0.00    +0.000 C 
ATOM      2  O   UNL     1       7.297   4.780  15.131  0.00  0.00    +0.000 OA
ATOM      3  N   UNL     1       5.655   3.576  16.139  0.00  0.00    +0.000 N 
ATOM      4  H   UNL     1       5.617   2.954  15.338  0.00  0.00    +0.000 HD
ENDROOT
BRANCH   1   9
ATOM      5  O   UNL     1       8.451   5.270  20.319  0.00  0.00    +0.000 OA
ATOM      6  C   UNL     1       7.920   5.618  19.280  0.00  0.00    +0.000 C 
ATOM      7  C   UNL     1       7.998   6.983  18.657  0.00  0.00    +0.000 C 
ATOM      8  C   UNL     1       7.536   6.722  17.228  0.00  0.00    +0.000 C 
ATOM      9  C   UNL     1       6.588   5.533  17.346  0.00  0.00    +0.000 C 
ATOM     10  N   UNL     1       7.102   4.838  18.501  0.00  0.00    +0.000 N 
ATOM     11  H   UNL     1       6.927   3.860  18.707  0.00  0.00    +0.000 HD
ENDBRANCH   1   9
BRANCH   3  12
ATOM     12  N   UNL     1       4.916   3.353  17.247  0.00  0.00    +0.000 NA
ATOM     13  C   UNL     1       3.699   3.785  17.257  0.00  0.00    +0.000 C 
BRANCH  13  14
ATOM     14  C   UNL     1       2.873   3.559  18.457  0.00  0.00    +0.000 A 
ATOM     15  C   UNL     1       3.443   3.013  19.614  0.00  0.00    +0.000 A 
ATOM     16  C   UNL     1       2.645   2.785  20.725  0.00  0.00    +0.000 A 
ATOM     17  F   UNL     1       3.191   2.262  21.830  0.00  0.00    +0.000 F 
ATOM     18  C   UNL     1       1.287   3.088  20.705  0.00  0.00    +0.000 A 
ATOM     19  C   UNL     1       0.721   3.641  19.553  0.00  0.00    +0.000 A 
ATOM     20  C   UNL     1       1.519   3.876  18.436  0.00  0.00    +0.000 A 
ATOM     21  F   UNL     1       0.960   4.404  17.338  0.00  0.00    +0.000 F 
ENDBRANCH  13  14
ENDBRANCH   3  12
TORSDOF 3
ENDMDL
MODEL 3
REMARK VINA RESULT:      -8.0      0.985      1.893
REMARK  Name = 
REMARK  3 active torsions:
REMARK  status: ('A' for Active; 'I' for Inactive)
REMARK    1  A    between atoms: C_5  and  C_6
REMARK    2  A    between atoms: N_8  and  N_9
REMARK    3  A    between atoms: C_10  and  C_11
REMARK                            x       y       z     vdW  Elec       q    Type
REMARK                         _______ _______ _______ _____ _____    ______ ____
ROOT
ATOM      1  C   UNL     1       6.698   4.813  15.969  0.00  0.00    +0.000 C 
ATOM      2  O   UNL     1       7.545   4.966  15.088  0.00  0.00    +0.000 OA
ATOM      3  N   UNL     1       5.715   3.852  15.842  0.00  0.00    +0.000 N 
ATOM      4  H   UNL     1       5.701   3.297  14.992  0.00  0.00    +0.000 HD
ENDROOT
BRANCH   1   9
ATOM      5  O   UNL     1       8.523   5.164  20.257  0.00  0.00    +0.000 OA
ATOM      6  C   UNL     1       7.997   5.580  19.241  0.00  0.00    +0.000 C 
ATOM      7  C   UNL     1       8.044   6.993  18.732  0.00  0.00    +0.000 C 
ATOM      8  C   UNL     1       7.609   6.836  17.280  0.00  0.00    +0.000 C 
ATOM      9  C   UNL     1       6.694   5.615  17.287  0.00  0.00    +0.000 C 
ATOM     10  N   UNL     1       7.212   4.844  18.389  0.00  0.00    +0.000 N 
ATOM     11  H   UNL     1       7.062   3.848  18.513  0.00  0.00    +0.000 HD
ENDBRANCH   1   9
BRANCH   3  12
ATOM     12  N   UNL     1       4.855   3.617  16.856  0.00  0.00    +0.000 NA
ATOM     13  C   UNL     1       3.878   4.446  17.023  0.00  0.00    +0.000 C 
BRANCH  13  14
ATOM     14  C   UNL     1       2.930   4.214  18.127  0.00  0.00    +0.000 A 
ATOM     15  C   UNL     1       1.909   3.266  17.994  0.00  0.00    +0.000 A 
ATOM     16  C   UNL     1       1.011   3.079  19.035  0.00  0.00    +0.000 A 
ATOM     17  F   UNL     1       0.034   2.173  18.906  0.00  0.00    +0.000 F 
ATOM     18  C   UNL     1       1.110   3.823  20.207  0.00  0.00    +0.000 A 
ATOM     19  C   UNL     1       2.135   4.763  20.343  0.00  0.00    +0.000 A 
ATOM     20  C   UNL     1       3.042   4.951  19.301  0.00  0.00    +0.000 A 
ATOM     21  F   UNL     1       4.017   5.858  19.446  0.00  0.00    +0.000 F 
ENDBRANCH  13  14
ENDBRANCH   3  12
TORSDOF 3
ENDMDL
MODEL 4
REMARK VINA RESULT:      -7.8      1.632      1.748
REMARK  Name = 
REMARK  3 active torsions:
REMARK  status: ('A' for Active; 'I' for Inactive)
REMARK    1  A    between atoms: C_5  and  C_6
REMARK    2  A    between atoms: N_8  and  N_9
REMARK    3  A    between atoms: C_10  and  C_11
REMARK                            x       y       z     vdW  Elec       q    Type
REMARK                         _______ _______ _______ _____ _____    ______ ____
ROOT
ATOM      1  C   UNL     1       6.244   4.453  16.275  0.00  0.00    +0.000 C 
ATOM      2  O   UNL     1       7.089   4.306  15.390  0.00  0.00    +0.000 OA
ATOM      3  N   UNL     1       5.139   3.629  16.338  0.00  0.00    +0.000 N 
ATOM      4  H   UNL     1       5.034   2.920  15.619  0.00  0.00    +0.000 HD
ENDROOT
BRANCH   1   9
ATOM      5  O   UNL     1       8.069   5.365  20.480  0.00  0.00    +0.000 OA
ATOM      6  C   UNL     1       7.633   5.646  19.378  0.00  0.00    +0.000 C 
ATOM      7  C   UNL     1       7.938   6.891  18.595  0.00  0.00    +0.000 C 
ATOM      8  C   UNL     1       7.494   6.513  17.187  0.00  0.00    +0.000 C 
ATOM      9  C   UNL     1       6.374   5.500  17.400  0.00  0.00    +0.000 C 
ATOM     10  N   UNL     1       6.736   4.896  18.659  0.00  0.00    +0.000 N 
ATOM     11  H   UNL     1       6.409   3.990  18.976  0.00  0.00    +0.000 HD
ENDBRANCH   1   9
BRANCH   3  12
ATOM     12  N   UNL     1       4.274   3.726  17.371  0.00  0.00    +0.000 NA
ATOM     13  C   UNL     1       4.082   2.676  18.098  0.00  0.00    +0.000 C 
BRANCH  13  14
ATOM     14  C   UNL     1       3.138   2.755  19.227  0.00  0.00    +0.000 A 
ATOM     15  C   UNL     1       1.828   3.204  19.023  0.00  0.00    +0.000 A 
ATOM     16  C   UNL     1       0.961   3.294  20.102  0.00  0.00    +0.000 A 
ATOM     17  F   UNL     1      -0.291   3.725  19.906  0.00  0.00    +0.000 F 
ATOM     18  C   UNL     1       1.378   2.948  21.384  0.00  0.00    +0.000 A 
ATOM     19  C   UNL     1       2.682   2.492  21.586  0.00  0.00    +0.000 A 
ATOM     20  C   UNL     1       3.555   2.395  20.504  0.00  0.00    +0.000 A 
ATOM     21  F   UNL     1       4.805   1.958  20.715  0.00  0.00    +0.000 F 
ENDBRANCH  13  14
ENDBRANCH   3  12
TORSDOF 3
ENDMDL
MODEL 5
REMARK VINA RESULT:      -7.7      1.778      3.114
REMARK  Name = 
REMARK  3 active torsions:
REMARK  status: ('A' for Active; 'I' for Inactive)
REMARK    1  A    between atoms: C_5  and  C_6
REMARK    2  A    between atoms: N_8  and  N_9
REMARK    3  A    between atoms: C_10  and  C_11
REMARK                            x       y       z     vdW  Elec       q    Type
REMARK                         _______ _______ _______ _____ _____    ______ ____
ROOT
ATOM      1  C   UNL     1       7.428   4.441  17.639  0.00  0.00    +0.000 C 
ATOM      2  O   UNL     1       8.659   4.488  17.655  0.00  0.00    +0.000 OA
ATOM      3  N   UNL     1       6.720   4.129  18.781  0.00  0.00    +0.000 N 
ATOM      4  H   UNL     1       7.246   3.916  19.623  0.00  0.00    +0.000 HD
ENDROOT
BRANCH   1   9
ATOM      5  O   UNL     1       7.555   5.441  13.075  0.00  0.00    +0.000 OA
ATOM      6  C   UNL     1       7.055   5.020  14.102  0.00  0.00    +0.000 C 
ATOM      7  C   UNL     1       5.954   4.003  14.199  0.00  0.00    +0.000 C 
ATOM      8  C   UNL     1       6.039   3.561  15.655  0.00  0.00    +0.000 C 
ATOM      9  C   UNL     1       6.586   4.779  16.391  0.00  0.00    +0.000 C 
ATOM     10  N   UNL     1       7.370   5.433  15.372  0.00  0.00    +0.000 N 
ATOM     11  H   UNL     1       8.115   6.096  15.558  0.00  0.00    +0.000 HD
ENDBRANCH   1   9
BRANCH   3  12
ATOM     12  N   UNL     1       5.371   4.182  18.783  0.00  0.00    +0.000 NA
ATOM     13  C   UNL     1       4.729   3.226  19.368  0.00  0.00    +0.000 C 
BRANCH  13  14
ATOM     14  C   UNL     1       3.256   3.259  19.379  0.00  0.00    +0.000 A 
ATOM     15  C   UNL     1       2.577   4.258  20.086  0.00  0.00    +0.000 A 
ATOM     16  C   UNL     1       1.190   4.259  20.104  0.00  0.00    +0.000 A 
ATOM     17  F   UNL     1       0.542   5.215  20.782  0.00  0.00    +0.000 F 
ATOM     18  C   UNL     1       0.465   3.280  19.431  0.00  0.00    +0.000 A 
ATOM     19  C   UNL     1       1.143   2.289  18.718  0.00  0.00    +0.000 A 
ATOM     20  C   UNL     1       2.537   2.286  18.693  0.00  0.00    +0.000 A 
ATOM     21  F   UNL     1       3.172   1.326  18.006  0.00  0.00    +0.000 F 
ENDBRANCH  13  14
ENDBRANCH   3  12
TORSDOF 3
ENDMDL
MODEL 6
REMARK VINA RESULT:      -7.6      2.059      3.437
REMARK  Name = 
REMARK  3 active torsions:
REMARK  status: ('A' for Active; 'I' for Inactive)
REMARK    1  A    between atoms: C_5  and  C_6
REMARK    2  A    between atoms: N_8  and  N_9
REMARK    3  A    between atoms: C_10  and  C_11
REMARK                            x       y       z     vdW  Elec       q    Type
REMARK                         _______ _______ _______ _____ _____    ______ ____
ROOT
ATOM      1  C   UNL     1       7.485   4.488  17.679  0.00  0.00    +0.000 C 
ATOM      2  O   UNL     1       8.717   4.520  17.687  0.00  0.00    +0.000 OA
ATOM      3  N   UNL     1       6.780   4.213  18.833  0.00  0.00    +0.000 N 
ATOM      4  H   UNL     1       7.308   4.015  19.677  0.00  0.00    +0.000 HD
ENDROOT
BRANCH   1   9
ATOM      5  O   UNL     1       7.606   5.466  13.111  0.00  0.00    +0.000 OA
ATOM      6  C   UNL     1       7.111   5.041  14.138  0.00  0.00    +0.000 C 
ATOM      7  C   UNL     1       6.026   4.006  14.238  0.00  0.00    +0.000 C 
ATOM      8  C   UNL     1       6.116   3.573  15.697  0.00  0.00    +0.000 C 
ATOM      9  C   UNL     1       6.640   4.805  16.428  0.00  0.00    +0.000 C 
ATOM     10  N   UNL     1       7.416   5.466  15.408  0.00  0.00    +0.000 N 
ATOM     11  H   UNL     1       8.148   6.143  15.592  0.00  0.00    +0.000 HD
ENDBRANCH   1   9
BRANCH   3  12
ATOM     12  N   UNL     1       5.431   4.284  18.841  0.00  0.00    +0.000 NA
ATOM     13  C   UNL     1       4.776   3.265  19.290  0.00  0.00    +0.000 C 
BRANCH  13  14
ATOM     14  C   UNL     1       3.303   3.316  19.303  0.00  0.00    +0.000 A 
ATOM     15  C   UNL     1       2.603   3.808  18.195  0.00  0.00    +0.000 A 
ATOM     16  C   UNL     1       1.218   3.870  18.236  0.00  0.00    +0.000 A 
ATOM     17  F   UNL     1       0.549   4.341  17.176  0.00  0.00    +0.000 F 
ATOM     18  C   UNL     1       0.516   3.454  19.363  0.00  0.00    +0.000 A 
ATOM     19  C   UNL     1       1.215   2.956  20.466  0.00  0.00    +0.000 A 
ATOM     20  C   UNL     1       2.606   2.887  20.428  0.00  0.00    +0.000 A 
ATOM     21  F   UNL     1       3.262   2.408  21.494  0.00  0.00    +0.000 F 
ENDBRANCH  13  14
ENDBRANCH   3  12
TORSDOF 3
ENDMDL
MODEL 7
REMARK VINA RESULT:      -7.5      1.867      3.196
REMARK  Name = 
REMARK  3 active torsions:
REMARK  status: ('A' for Active; 'I' for Inactive)
REMARK    1  A    between atoms: C_5  and  C_6
REMARK    2  A    between atoms: N_8  and  N_9
REMARK    3  A    between atoms: C_10  and  C_11
REMARK                            x       y       z     vdW  Elec       q    Type
REMARK                         _______ _______ _______ _____ _____    ______ ____
ROOT
ATOM      1  C   UNL     1       7.720   6.353  18.544  0.00  0.00    +0.000 C 
ATOM      2  O   UNL     1       8.603   7.112  18.947  0.00  0.00    +0.000 OA
ATOM      3  N   UNL     1       7.043   5.531  19.421  0.00  0.00    +0.000 N 
ATOM      4  H   UNL     1       7.313   5.556  20.400  0.00  0.00    +0.000 HD
ENDROOT
BRANCH   1   9
ATOM      5  O   UNL     1       6.127   3.603  15.117  0.00  0.00    +0.000 OA
ATOM      6  C   UNL     1       6.278   4.653  15.712  0.00  0.00    +0.000 C 
ATOM      7  C   UNL     1       5.377   5.853  15.635  0.00  0.00    +0.000 C 
ATOM      8  C   UNL     1       5.793   6.659  16.860  0.00  0.00    +0.000 C 
ATOM      9  C   UNL     1       7.260   6.298  17.072  0.00  0.00    +0.000 C 
ATOM     10  N   UNL     1       7.334   4.963  16.533  0.00  0.00    +0.000 N 
ATOM     11  H   UNL     1       8.057   4.290  16.763  0.00  0.00    +0.000 HD
ENDBRANCH   1   9
BRANCH   3  12
ATOM     12  N   UNL     1       6.006   4.780  18.991  0.00  0.00    +0.000 NA
ATOM     13  C   UNL     1       4.868   4.925  19.585  0.00  0.00    +0.000 C 
BRANCH  13  14
ATOM     14  C   UNL     1       3.723   4.112  19.137  0.00  0.00    +0.000 A 
ATOM     15  C   UNL     1       2.756   4.662  18.287  0.00  0.00    +0.000 A 
ATOM     16  C   UNL     1       1.673   3.889  17.895  0.00  0.00    +0.000 A 
ATOM     17  F   UNL     1       0.749   4.416  17.083  0.00  0.00    +0.000 F 
ATOM     18  C   UNL     1       1.534   2.577  18.337  0.00  0.00    +0.000 A 
ATOM     19  C   UNL     1       2.503   2.026  19.179  0.00  0.00    +0.000 A 
ATOM     20  C   UNL     1       3.596   2.797  19.571  0.00  0.00    +0.000 A 
ATOM     21  F   UNL     1       4.516   2.254  20.381  0.00  0.00    +0.000 F 
ENDBRANCH  13  14
ENDBRANCH   3  12
TORSDOF 3
ENDMDL
MODEL 8
REMARK VINA RESULT:      -7.4      1.871      3.289
REMARK  Name = 
REMARK  3 active torsions:
REMARK  status: ('A' for Active; 'I' for Inactive)
REMARK    1  A    between atoms: C_5  and  C_6
REMARK    2  A    between atoms: N_8  and  N_9
REMARK    3  A    between atoms: C_10  and  C_11
REMARK                            x       y       z     vdW  Elec       q    Type
REMARK                         _______ _______ _______ _____ _____    ______ ____
ROOT
ATOM      1  C   UNL     1       6.944   6.161  17.964  0.00  0.00    +0.000 C 
ATOM      2  O   UNL     1       7.870   6.974  17.964  0.00  0.00    +0.000 OA
ATOM      3  N   UNL     1       6.387   5.729  19.151  0.00  0.00    +0.000 N 
ATOM      4  H   UNL     1       6.780   6.083  20.017  0.00  0.00    +0.000 HD
ENDROOT
BRANCH   1   9
ATOM      5  O   UNL     1       7.610   5.235  13.432  0.00  0.00    +0.000 OA
ATOM      6  C   UNL     1       7.095   5.094  14.526  0.00  0.00    +0.000 C 
ATOM      7  C   UNL     1       6.414   3.854  15.033  0.00  0.00    +0.000 C 
ATOM      8  C   UNL     1       6.360   4.097  16.536  0.00  0.00    +0.000 C 
ATOM      9  C   UNL     1       6.299   5.615  16.674  0.00  0.00    +0.000 C 
ATOM     10  N   UNL     1       6.993   6.064  15.493  0.00  0.00    +0.000 N 
ATOM     11  H   UNL     1       7.412   6.981  15.386  0.00  0.00    +0.000 HD
ENDBRANCH   1   9
BRANCH   3  12
ATOM     12  N   UNL     1       5.304   4.922  19.141  0.00  0.00    +0.000 NA
ATOM     13  C   UNL     1       4.191   5.400  19.591  0.00  0.00    +0.000 C 
BRANCH  13  14
ATOM     14  C   UNL     1       2.997   4.536  19.596  0.00  0.00    +0.000 A 
ATOM     15  C   UNL     1       2.523   3.993  20.797  0.00  0.00    +0.000 A 
ATOM     16  C   UNL     1       1.411   3.164  20.778  0.00  0.00    +0.000 A 
ATOM     17  F   UNL     1       0.959   2.644  21.927  0.00  0.00    +0.000 F 
ATOM     18  C   UNL     1       0.764   2.861  19.584  0.00  0.00    +0.000 A 
ATOM     19  C   UNL     1       1.233   3.409  18.388  0.00  0.00    +0.000 A 
ATOM     20  C   UNL     1       2.346   4.247  18.401  0.00  0.00    +0.000 A 
ATOM     21  F   UNL     1       2.784   4.764  17.245  0.00  0.00    +0.000 F 
ENDBRANCH  13  14
ENDBRANCH   3  12
TORSDOF 3
ENDMDL
MODEL 9
REMARK VINA RESULT:      -7.4      3.031      5.085
REMARK  Name = 
REMARK  3 active torsions:
REMARK  status: ('A' for Active; 'I' for Inactive)
REMARK    1  A    between atoms: C_5  and  C_6
REMARK    2  A    between atoms: N_8  and  N_9
REMARK    3  A    between atoms: C_10  and  C_11
REMARK                            x       y       z     vdW  Elec       q    Type
REMARK                         _______ _______ _______ _____ _____    ______ ____
ROOT
ATOM      1  C   UNL     1       6.930   4.929  13.718  0.00  0.00    +0.000 C 
ATOM      2  O   UNL     1       7.837   5.496  13.107  0.00  0.00    +0.000 OA
ATOM      3  N   UNL     1       6.406   5.479  14.870  0.00  0.00    +0.000 N 
ATOM      4  H   UNL     1       6.808   6.348  15.207  0.00  0.00    +0.000 HD
ENDROOT
BRANCH   1   9
ATOM      5  O   UNL     1       3.586   3.082  11.026  0.00  0.00    +0.000 OA
ATOM      6  C   UNL     1       4.650   3.094  11.616  0.00  0.00    +0.000 C 
ATOM      7  C   UNL     1       5.854   2.256  11.290  0.00  0.00    +0.000 C 
ATOM      8  C   UNL     1       6.970   2.974  12.040  0.00  0.00    +0.000 C 
ATOM      9  C   UNL     1       6.272   3.621  13.232  0.00  0.00    +0.000 C 
ATOM     10  N   UNL     1       4.939   3.843  12.730  0.00  0.00    +0.000 N 
ATOM     11  H   UNL     1       4.284   4.513  13.118  0.00  0.00    +0.000 HD
ENDBRANCH   1   9
BRANCH   3  12
ATOM     12  N   UNL     1       5.342   4.908  15.476  0.00  0.00    +0.000 NA
ATOM     13  C   UNL     1       5.172   5.135  16.737  0.00  0.00    +0.000 C 
BRANCH  13  14
ATOM     14  C   UNL     1       4.022   4.518  17.421  0.00  0.00    +0.000 A 
ATOM     15  C   UNL     1       3.988   3.136  17.641  0.00  0.00    +0.000 A 
ATOM     16  C   UNL     1       2.886   2.571  18.266  0.00  0.00    +0.000 A 
ATOM     17  F   UNL     1       2.854   1.249  18.474  0.00  0.00    +0.000 F 
ATOM     18  C   UNL     1       1.813   3.359  18.674  0.00  0.00    +0.000 A 
ATOM     19  C   UNL     1       1.852   4.739  18.463  0.00  0.00    +0.000 A 
ATOM     20  C   UNL     1       2.959   5.312  17.840  0.00  0.00    +0.000 A 
ATOM     21  F   UNL     1       2.979   6.637  17.642  0.00  0.00    +0.000 F 
ENDBRANCH  13  14
ENDBRANCH   3  12
TORSDOF 3
ENDMDL
