MODEL 1
REMARK VINA RESULT:      -8.7      0.000      0.000
REMARK  Name = 
REMARK  13 active torsions:
REMARK  status: ('A' for Active; 'I' for Inactive)
REMARK    1  A    between atoms: C_1  and  C_2
REMARK    2  A    between atoms: C_2  and  C_3
REMARK    3  A    between atoms: C_3  and  C_4
REMARK    4  A    between atoms: N_9  and  C_10
REMARK    5  A    between atoms: C_12  and  C_13
REMARK    6  A    between atoms: C_16  and  C_17
REMARK    7  A    between atoms: C_24  and  C_25
REMARK    8  A    between atoms: C_25  and  C_26
REMARK    9  A    between atoms: C_25  and  C_30
REMARK   10  A    between atoms: C_26  and  C_27
REMARK   11  A    between atoms: C_27  and  C_28
REMARK   12  A    between atoms: C_27  and  C_29
REMARK   13  A    between atoms: C_30  and  O_32
REMARK                            x       y       z     vdW  Elec       q    Type
REMARK                         _______ _______ _______ _____ _____    ______ ____
ROOT
ATOM      1  C   UNL     1       4.724   4.489  17.381  0.00  0.00    +0.000 A 
ATOM      2  C   UNL     1       5.576   5.504  17.865  0.00  0.00    +0.000 A 
ATOM      3  C   UNL     1       6.630   6.083  17.112  0.00  0.00    +0.000 A 
ATOM      4  C   UNL     1       6.843   5.610  15.813  0.00  0.00    +0.000 A 
ATOM      5  C   UNL     1       6.071   4.573  15.280  0.00  0.00    +0.000 A 
ATOM      6  C   UNL     1       5.046   4.051  16.091  0.00  0.00    +0.000 A 
ENDROOT
BRANCH   1  12
ATOM      7  C   UNL     1       2.405   4.564  18.623  0.00  0.00    +0.000 C 
ATOM      8  C   UNL     1       2.471   4.624  20.166  0.00  0.00    +0.000 C 
ATOM      9  C   UNL     1       2.656   3.231  20.762  0.00  0.00    +0.000 C 
ATOM     10  C   UNL     1       3.873   2.537  20.163  0.00  0.00    +0.000 C 
ATOM     11  C   UNL     1       3.824   2.552  18.636  0.00  0.00    +0.000 C 
ATOM     12  N   UNL     1       3.692   3.940  18.136  0.00  0.00    +0.000 N 
BRANCH   7  13
ATOM     13  C   UNL     1       1.929   5.903  18.040  0.00  0.00    +0.000 C 
BRANCH  13  15
ATOM     14  C   UNL     1       1.843   8.418  18.306  0.00  0.00    +0.000 C 
ATOM     15  C   UNL     1       2.603   7.144  18.651  0.00  0.00    +0.000 C 
ENDBRANCH  13  15
ENDBRANCH   7  13
ENDBRANCH   1  12
BRANCH   3  16
ATOM     16  C   UNL     1       7.441   7.195  17.662  0.00  0.00    +0.000 A 
ATOM     17  C   UNL     1       8.261   7.034  18.792  0.00  0.00    +0.000 A 
ATOM     18  C   UNL     1       8.931   8.123  19.368  0.00  0.00    +0.000 A 
ATOM     19  C   UNL     1       8.807   9.405  18.819  0.00  0.00    +0.000 A 
ATOM     20  C   UNL     1       8.042   9.566  17.658  0.00  0.00    +0.000 A 
ATOM     21  C   UNL     1       7.371   8.478  17.092  0.00  0.00    +0.000 A 
BRANCH  19  22
ATOM     22  C   UNL     1       9.449  10.611  19.463  0.00  0.00    +0.000 C 
ATOM     23  F   UNL     1       8.890  11.796  19.089  0.00  0.00    +0.000 F 
ATOM     24  F   UNL     1       9.381  10.576  20.821  0.00  0.00    +0.000 F 
ATOM     25  F   UNL     1      10.774  10.714  19.159  0.00  0.00    +0.000 F 
ENDBRANCH  19  22
ENDBRANCH   3  16
BRANCH   5  26
ATOM     26  C   UNL     1       6.389   4.035  13.883  0.00  0.00    +0.000 C 
BRANCH  26  27
ATOM     27  C   UNL     1       7.346   4.823  12.966  0.00  0.00    +0.000 C 
ATOM     28  O   UNL     1       7.475   4.718  11.753  0.00  0.00    +0.000 OA
BRANCH  27  29
ATOM     29  O   UNL     1       8.121   5.704  13.642  0.00  0.00    +0.000 OA
ATOM     30  H   UNL     1       8.101   5.606  14.609  0.00  0.00    +0.000 HD
ENDBRANCH  27  29
ENDBRANCH  26  27
BRANCH  26  31
ATOM     31  C   UNL     1       5.120   3.574  13.116  0.00  0.00    +0.000 C 
BRANCH  31  32
ATOM     32  C   UNL     1       5.304   3.108  11.653  0.00  0.00    +0.000 C 
ATOM     33  C   UNL     1       5.904   1.710  11.504  0.00  0.00    +0.000 C 
ATOM     34  C   UNL     1       3.947   3.133  10.932  0.00  0.00    +0.000 C 
ENDBRANCH  31  32
ENDBRANCH  26  31
ENDBRANCH   5  26
TORSDOF 10
ENDMDL
MODEL 2
REMARK VINA RESULT:      -8.4      6.176      9.821
REMARK  Name = 
REMARK  13 active torsions:
REMARK  status: ('A' for Active; 'I' for Inactive)
REMARK    1  A    between atoms: C_1  and  C_2
REMARK    2  A    between atoms: C_2  and  C_3
REMARK    3  A    between atoms: C_3  and  C_4
REMARK    4  A    between atoms: N_9  and  C_10
REMARK    5  A    between atoms: C_12  and  C_13
REMARK    6  A    between atoms: C_16  and  C_17
REMARK    7  A    between atoms: C_24  and  C_25
REMARK    8  A    between atoms: C_25  and  C_26
REMARK    9  A    between atoms: C_25  and  C_30
REMARK   10  A    between atoms: C_26  and  C_27
REMARK   11  A    between atoms: C_27  and  C_28
REMARK   12  A    between atoms: C_27  and  C_29
REMARK   13  A    between atoms: C_30  and  O_32
REMARK                            x       y       z     vdW  Elec       q    Type
REMARK                         _______ _______ _______ _____ _____    ______ ____
ROOT
ATOM      1  C   UNL     1       0.375  11.539  19.229  0.00  0.00    +0.000 A 
ATOM      2  C   UNL     1       1.304  10.476  19.227  0.00  0.00    +0.000 A 
ATOM      3  C   UNL     1       1.110   9.252  18.537  0.00  0.00    +0.000 A 
ATOM      4  C   UNL     1      -0.081   9.085  17.822  0.00  0.00    +0.000 A 
ATOM      5  C   UNL     1      -1.071  10.073  17.816  0.00  0.00    +0.000 A 
ATOM      6  C   UNL     1      -0.803  11.258  18.526  0.00  0.00    +0.000 A 
ENDROOT
BRANCH   1  12
ATOM      7  C   UNL     1       0.022  13.222  21.220  0.00  0.00    +0.000 C 
ATOM      8  C   UNL     1      -0.870  14.446  20.914  0.00  0.00    +0.000 C 
ATOM      9  C   UNL     1      -0.072  15.550  20.227  0.00  0.00    +0.000 C 
ATOM     10  C   UNL     1       0.626  15.024  18.979  0.00  0.00    +0.000 C 
ATOM     11  C   UNL     1       1.446  13.771  19.288  0.00  0.00    +0.000 C 
ATOM     12  N   UNL     1       0.590  12.733  19.909  0.00  0.00    +0.000 N 
BRANCH   7  13
ATOM     13  C   UNL     1      -0.693  12.242  22.163  0.00  0.00    +0.000 C 
BRANCH  13  15
ATOM     14  C   UNL     1      -2.943  12.310  23.318  0.00  0.00    +0.000 C 
ATOM     15  C   UNL     1      -1.544  12.910  23.257  0.00  0.00    +0.000 C 
ENDBRANCH  13  15
ENDBRANCH   7  13
ENDBRANCH   1  12
BRANCH   3  16
ATOM     16  C   UNL     1       2.162   8.208  18.523  0.00  0.00    +0.000 A 
ATOM     17  C   UNL     1       3.098   8.104  17.480  0.00  0.00    +0.000 A 
ATOM     18  C   UNL     1       4.012   7.042  17.424  0.00  0.00    +0.000 A 
ATOM     19  C   UNL     1       4.022   6.059  18.421  0.00  0.00    +0.000 A 
ATOM     20  C   UNL     1       3.136   6.186  19.496  0.00  0.00    +0.000 A 
ATOM     21  C   UNL     1       2.222   7.244  19.543  0.00  0.00    +0.000 A 
BRANCH  19  22
ATOM     22  C   UNL     1       4.937   4.860  18.346  0.00  0.00    +0.000 C 
ATOM     23  F   UNL     1       5.799   4.761  19.396  0.00  0.00    +0.000 F 
ATOM     24  F   UNL     1       4.255   3.683  18.307  0.00  0.00    +0.000 F 
ATOM     25  F   UNL     1       5.716   4.876  17.227  0.00  0.00    +0.000 F 
ENDBRANCH  19  22
ENDBRANCH   3  16
BRANCH   5  26
ATOM     26  C   UNL     1      -2.390   9.816  17.084  0.00  0.00    +0.000 C 
BRANCH  26  27
ATOM     27  C   UNL     1      -2.647  10.492  15.722  0.00  0.00    +0.000 C 
ATOM     28  O   UNL     1      -3.193  10.009  14.739  0.00  0.00    +0.000 OA
BRANCH  27  29
ATOM     29  O   UNL     1      -2.173  11.760  15.662  0.00  0.00    +0.000 OA
ATOM     30  H   UNL     1      -1.400  11.932  16.228  0.00  0.00    +0.000 HD
ENDBRANCH  27  29
ENDBRANCH  26  27
BRANCH  26  31
ATOM     31  C   UNL     1      -3.626   9.936  18.018  0.00  0.00    +0.000 C 
BRANCH  31  32
ATOM     32  C   UNL     1      -4.408  11.270  17.994  0.00  0.00    +0.000 C 
ATOM     33  C   UNL     1      -5.928  11.112  17.951  0.00  0.00    +0.000 C 
ATOM     34  C   UNL     1      -4.041  12.102  19.232  0.00  0.00    +0.000 C 
ENDBRANCH  31  32
ENDBRANCH  26  31
ENDBRANCH   5  26
TORSDOF 10
ENDMDL
MODEL 3
REMARK VINA RESULT:      -8.3      6.875     10.735
REMARK  Name = 
REMARK  13 active torsions:
REMARK  status: ('A' for Active; 'I' for Inactive)
REMARK    1  A    between atoms: C_1  and  C_2
REMARK    2  A    between atoms: C_2  and  C_3
REMARK    3  A    between atoms: C_3  and  C_4
REMARK    4  A    between atoms: N_9  and  C_10
REMARK    5  A    between atoms: C_12  and  C_13
REMARK    6  A    between atoms: C_16  and  C_17
REMARK    7  A    between atoms: C_24  and  C_25
REMARK    8  A    between atoms: C_25  and  C_26
REMARK    9  A    between atoms: C_25  and  C_30
REMARK   10  A    between atoms: C_26  and  C_27
REMARK   11  A    between atoms: C_27  and  C_28
REMARK   12  A    between atoms: C_27  and  C_29
REMARK   13  A    between atoms: C_30  and  O_32
REMARK                            x       y       z     vdW  Elec       q    Type
REMARK                         _______ _______ _______ _____ _____    ______ ____
ROOT
ATOM      1  C   UNL     1      -0.518  12.565  19.279  0.00  0.00    +0.000 A 
ATOM      2  C   UNL     1       0.390  11.488  19.349  0.00  0.00    +0.000 A 
ATOM      3  C   UNL     1       0.173  10.224  18.742  0.00  0.00    +0.000 A 
ATOM      4  C   UNL     1      -1.022  10.032  18.040  0.00  0.00    +0.000 A 
ATOM      5  C   UNL     1      -1.993  11.035  17.966  0.00  0.00    +0.000 A 
ATOM      6  C   UNL     1      -1.702  12.260  18.595  0.00  0.00    +0.000 A 
ENDROOT
BRANCH   1  12
ATOM      7  C   UNL     1      -0.981  14.470  21.034  0.00  0.00    +0.000 C 
ATOM      8  C   UNL     1      -1.684  15.733  20.486  0.00  0.00    +0.000 C 
ATOM      9  C   UNL     1      -0.680  16.682  19.839  0.00  0.00    +0.000 C 
ATOM     10  C   UNL     1       0.135  15.969  18.767  0.00  0.00    +0.000 C 
ATOM     11  C   UNL     1       0.762  14.685  19.309  0.00  0.00    +0.000 C 
ATOM     12  N   UNL     1      -0.281  13.799  19.876  0.00  0.00    +0.000 N 
BRANCH   7  13
ATOM     13  C   UNL     1      -1.927  13.661  21.936  0.00  0.00    +0.000 C 
BRANCH  13  15
ATOM     14  C   UNL     1      -1.219  14.749  24.108  0.00  0.00    +0.000 C 
ATOM     15  C   UNL     1      -1.409  13.432  23.365  0.00  0.00    +0.000 C 
ENDBRANCH  13  15
ENDBRANCH   7  13
ENDBRANCH   1  12
BRANCH   3  16
ATOM     16  C   UNL     1       1.204   9.162  18.799  0.00  0.00    +0.000 A 
ATOM     17  C   UNL     1       2.067   8.900  17.721  0.00  0.00    +0.000 A 
ATOM     18  C   UNL     1       2.959   7.817  17.748  0.00  0.00    +0.000 A 
ATOM     19  C   UNL     1       3.019   6.973  18.863  0.00  0.00    +0.000 A 
ATOM     20  C   UNL     1       2.209   7.261  19.967  0.00  0.00    +0.000 A 
ATOM     21  C   UNL     1       1.317   8.338  19.932  0.00  0.00    +0.000 A 
BRANCH  19  22
ATOM     22  C   UNL     1       3.909   5.753  18.889  0.00  0.00    +0.000 C 
ATOM     23  F   UNL     1       3.497   4.756  18.057  0.00  0.00    +0.000 F 
ATOM     24  F   UNL     1       5.192   6.033  18.533  0.00  0.00    +0.000 F 
ATOM     25  F   UNL     1       3.981   5.193  20.130  0.00  0.00    +0.000 F 
ENDBRANCH  19  22
ENDBRANCH   3  16
BRANCH   5  26
ATOM     26  C   UNL     1      -3.317  10.755  17.253  0.00  0.00    +0.000 C 
BRANCH  26  27
ATOM     27  C   UNL     1      -3.322  10.502  15.732  0.00  0.00    +0.000 C 
ATOM     28  O   UNL     1      -3.206   9.431  15.151  0.00  0.00    +0.000 OA
BRANCH  27  29
ATOM     29  O   UNL     1      -3.451  11.639  15.006  0.00  0.00    +0.000 OA
ATOM     30  H   UNL     1      -2.643  12.176  14.944  0.00  0.00    +0.000 HD
ENDBRANCH  27  29
ENDBRANCH  26  27
BRANCH  26  31
ATOM     31  C   UNL     1      -4.441  11.745  17.665  0.00  0.00    +0.000 C 
BRANCH  31  32
ATOM     32  C   UNL     1      -5.341  11.343  18.857  0.00  0.00    +0.000 C 
ATOM     33  C   UNL     1      -5.449  12.401  19.955  0.00  0.00    +0.000 C 
ATOM     34  C   UNL     1      -6.755  11.026  18.347  0.00  0.00    +0.000 C 
ENDBRANCH  31  32
ENDBRANCH  26  31
ENDBRANCH   5  26
TORSDOF 10
ENDMDL
MODEL 4
REMARK VINA RESULT:      -8.3      6.619     10.401
REMARK  Name = 
REMARK  13 active torsions:
REMARK  status: ('A' for Active; 'I' for Inactive)
REMARK    1  A    between atoms: C_1  and  C_2
REMARK    2  A    between atoms: C_2  and  C_3
REMARK    3  A    between atoms: C_3  and  C_4
REMARK    4  A    between atoms: N_9  and  C_10
REMARK    5  A    between atoms: C_12  and  C_13
REMARK    6  A    between atoms: C_16  and  C_17
REMARK    7  A    between atoms: C_24  and  C_25
REMARK    8  A    between atoms: C_25  and  C_26
REMARK    9  A    between atoms: C_25  and  C_30
REMARK   10  A    between atoms: C_26  and  C_27
REMARK   11  A    between atoms: C_27  and  C_28
REMARK   12  A    between atoms: C_27  and  C_29
REMARK   13  A    between atoms: C_30  and  O_32
REMARK                            x       y       z     vdW  Elec       q    Type
REMARK                         _______ _______ _______ _____ _____    ______ ____
ROOT
ATOM      1  C   UNL     1       0.098  12.287  19.363  0.00  0.00    +0.000 A 
ATOM      2  C   UNL     1       0.948  11.161  19.382  0.00  0.00    +0.000 A 
ATOM      3  C   UNL     1       0.624   9.910  18.797  0.00  0.00    +0.000 A 
ATOM      4  C   UNL     1      -0.621   9.783  18.171  0.00  0.00    +0.000 A 
ATOM      5  C   UNL     1      -1.538  10.838  18.152  0.00  0.00    +0.000 A 
ATOM      6  C   UNL     1      -1.141  12.047  18.755  0.00  0.00    +0.000 A 
ENDROOT
BRANCH   1  12
ATOM      7  C   UNL     1       0.013  14.116  21.253  0.00  0.00    +0.000 C 
ATOM      8  C   UNL     1      -0.826  15.373  20.934  0.00  0.00    +0.000 C 
ATOM      9  C   UNL     1      -0.023  16.375  20.110  0.00  0.00    +0.000 C 
ATOM     10  C   UNL     1       0.535  15.725  18.850  0.00  0.00    +0.000 C 
ATOM     11  C   UNL     1       1.301  14.444  19.180  0.00  0.00    +0.000 C 
ATOM     12  N   UNL     1       0.439  13.507  19.938  0.00  0.00    +0.000 N 
BRANCH   7  13
ATOM     13  C   UNL     1      -0.677  13.247  22.316  0.00  0.00    +0.000 C 
BRANCH  13  15
ATOM     14  C   UNL     1      -3.023  12.356  21.996  0.00  0.00    +0.000 C 
ATOM     15  C   UNL     1      -2.180  13.524  22.492  0.00  0.00    +0.000 C 
ENDBRANCH  13  15
ENDBRANCH   7  13
ENDBRANCH   1  12
BRANCH   3  16
ATOM     16  C   UNL     1       1.597   8.792  18.795  0.00  0.00    +0.000 A 
ATOM     17  C   UNL     1       2.467   8.561  17.716  0.00  0.00    +0.000 A 
ATOM     18  C   UNL     1       3.299   7.432  17.681  0.00  0.00    +0.000 A 
ATOM     19  C   UNL     1       3.293   6.510  18.734  0.00  0.00    +0.000 A 
ATOM     20  C   UNL     1       2.476   6.763  19.842  0.00  0.00    +0.000 A 
ATOM     21  C   UNL     1       1.643   7.886  19.868  0.00  0.00    +0.000 A 
BRANCH  19  22
ATOM     22  C   UNL     1       4.116   5.245  18.688  0.00  0.00    +0.000 C 
ATOM     23  F   UNL     1       4.001   4.473  19.804  0.00  0.00    +0.000 F 
ATOM     24  F   UNL     1       3.784   4.442  17.640  0.00  0.00    +0.000 F 
ATOM     25  F   UNL     1       5.448   5.501  18.551  0.00  0.00    +0.000 F 
ENDBRANCH  19  22
ENDBRANCH   3  16
BRANCH   5  26
ATOM     26  C   UNL     1      -2.917  10.630  17.524  0.00  0.00    +0.000 C 
BRANCH  26  27
ATOM     27  C   UNL     1      -3.054  10.591  15.989  0.00  0.00    +0.000 C 
ATOM     28  O   UNL     1      -3.199  11.537  15.226  0.00  0.00    +0.000 OA
BRANCH  27  29
ATOM     29  O   UNL     1      -3.024   9.333  15.487  0.00  0.00    +0.000 OA
ATOM     30  H   UNL     1      -3.839   8.820  15.624  0.00  0.00    +0.000 HD
ENDBRANCH  27  29
ENDBRANCH  26  27
BRANCH  26  31
ATOM     31  C   UNL     1      -4.010  11.528  18.167  0.00  0.00    +0.000 C 
BRANCH  31  32
ATOM     32  C   UNL     1      -5.469  11.318  17.700  0.00  0.00    +0.000 C 
ATOM     33  C   UNL     1      -6.401  10.748  18.769  0.00  0.00    +0.000 C 
ATOM     34  C   UNL     1      -6.049  12.654  17.212  0.00  0.00    +0.000 C 
ENDBRANCH  31  32
ENDBRANCH  26  31
ENDBRANCH   5  26
TORSDOF 10
ENDMDL
MODEL 5
REMARK VINA RESULT:      -8.3      6.609     10.427
REMARK  Name = 
REMARK  13 active torsions:
REMARK  status: ('A' for Active; 'I' for Inactive)
REMARK    1  A    between atoms: C_1  and  C_2
REMARK    2  A    between atoms: C_2  and  C_3
REMARK    3  A    between atoms: C_3  and  C_4
REMARK    4  A    between atoms: N_9  and  C_10
REMARK    5  A    between atoms: C_12  and  C_13
REMARK    6  A    between atoms: C_16  and  C_17
REMARK    7  A    between atoms: C_24  and  C_25
REMARK    8  A    between atoms: C_25  and  C_26
REMARK    9  A    between atoms: C_25  and  C_30
REMARK   10  A    between atoms: C_26  and  C_27
REMARK   11  A    between atoms: C_27  and  C_28
REMARK   12  A    between atoms: C_27  and  C_29
REMARK   13  A    between atoms: C_30  and  O_32
REMARK                            x       y       z     vdW  Elec       q    Type
REMARK                         _______ _______ _______ _____ _____    ______ ____
ROOT
ATOM      1  C   UNL     1      -0.197  12.216  19.656  0.00  0.00    +0.000 A 
ATOM      2  C   UNL     1       0.665  11.101  19.571  0.00  0.00    +0.000 A 
ATOM      3  C   UNL     1       0.380   9.932  18.820  0.00  0.00    +0.000 A 
ATOM      4  C   UNL     1      -0.835   9.878  18.129  0.00  0.00    +0.000 A 
ATOM      5  C   UNL     1      -1.762  10.922  18.202  0.00  0.00    +0.000 A 
ATOM      6  C   UNL     1      -1.405  12.047  18.969  0.00  0.00    +0.000 A 
ENDROOT
BRANCH   1  12
ATOM      7  C   UNL     1      -0.359  13.777  21.768  0.00  0.00    +0.000 C 
ATOM      8  C   UNL     1      -1.220  15.049  21.599  0.00  0.00    +0.000 C 
ATOM      9  C   UNL     1      -0.423  16.167  20.932  0.00  0.00    +0.000 C 
ATOM     10  C   UNL     1       0.174  15.699  19.611  0.00  0.00    +0.000 C 
ATOM     11  C   UNL     1       0.962  14.401  19.786  0.00  0.00    +0.000 C 
ATOM     12  N   UNL     1       0.106  13.355  20.395  0.00  0.00    +0.000 N 
BRANCH   7  13
ATOM     13  C   UNL     1      -1.051  12.762  22.692  0.00  0.00    +0.000 C 
BRANCH  13  15
ATOM     14  C   UNL     1      -3.360  12.305  23.619  0.00  0.00    +0.000 C 
ATOM     15  C   UNL     1      -2.528  12.494  22.357  0.00  0.00    +0.000 C 
ENDBRANCH  13  15
ENDBRANCH   7  13
ENDBRANCH   1  12
BRANCH   3  16
ATOM     16  C   UNL     1       1.364   8.829  18.721  0.00  0.00    +0.000 A 
ATOM     17  C   UNL     1       1.543   7.893  19.754  0.00  0.00    +0.000 A 
ATOM     18  C   UNL     1       2.557   6.926  19.694  0.00  0.00    +0.000 A 
ATOM     19  C   UNL     1       3.415   6.862  18.589  0.00  0.00    +0.000 A 
ATOM     20  C   UNL     1       3.206   7.749  17.527  0.00  0.00    +0.000 A 
ATOM     21  C   UNL     1       2.198   8.715  17.595  0.00  0.00    +0.000 A 
BRANCH  19  22
ATOM     22  C   UNL     1       4.566   5.887  18.531  0.00  0.00    +0.000 C 
ATOM     23  F   UNL     1       5.018   5.498  19.756  0.00  0.00    +0.000 F 
ATOM     24  F   UNL     1       4.250   4.742  17.868  0.00  0.00    +0.000 F 
ATOM     25  F   UNL     1       5.649   6.405  17.885  0.00  0.00    +0.000 F 
ENDBRANCH  19  22
ENDBRANCH   3  16
BRANCH   5  26
ATOM     26  C   UNL     1      -3.111  10.787  17.493  0.00  0.00    +0.000 C 
BRANCH  26  27
ATOM     27  C   UNL     1      -3.147  10.545  15.970  0.00  0.00    +0.000 C 
ATOM     28  O   UNL     1      -2.967   9.490  15.376  0.00  0.00    +0.000 OA
BRANCH  27  29
ATOM     29  O   UNL     1      -3.390  11.672  15.260  0.00  0.00    +0.000 OA
ATOM     30  H   UNL     1      -4.330  11.844  15.079  0.00  0.00    +0.000 HD
ENDBRANCH  27  29
ENDBRANCH  26  27
BRANCH  26  31
ATOM     31  C   UNL     1      -4.123  11.888  17.915  0.00  0.00    +0.000 C 
BRANCH  31  32
ATOM     32  C   UNL     1      -5.220  11.493  18.930  0.00  0.00    +0.000 C 
ATOM     33  C   UNL     1      -5.390  12.472  20.092  0.00  0.00    +0.000 C 
ATOM     34  C   UNL     1      -6.568  11.364  18.203  0.00  0.00    +0.000 C 
ENDBRANCH  31  32
ENDBRANCH  26  31
ENDBRANCH   5  26
TORSDOF 10
ENDMDL
MODEL 6
REMARK VINA RESULT:      -8.3      0.531      1.185
REMARK  Name = 
REMARK  13 active torsions:
REMARK  status: ('A' for Active; 'I' for Inactive)
REMARK    1  A    between atoms: C_1  and  C_2
REMARK    2  A    between atoms: C_2  and  C_3
REMARK    3  A    between atoms: C_3  and  C_4
REMARK    4  A    between atoms: N_9  and  C_10
REMARK    5  A    between atoms: C_12  and  C_13
REMARK    6  A    between atoms: C_16  and  C_17
REMARK    7  A    between atoms: C_24  and  C_25
REMARK    8  A    between atoms: C_25  and  C_26
REMARK    9  A    between atoms: C_25  and  C_30
REMARK   10  A    between atoms: C_26  and  C_27
REMARK   11  A    between atoms: C_27  and  C_28
REMARK   12  A    between atoms: C_27  and  C_29
REMARK   13  A    between atoms: C_30  and  O_32
REMARK                            x       y       z     vdW  Elec       q    Type
REMARK                         _______ _______ _______ _____ _____    ______ ____
ROOT
ATOM      1  C   UNL     1       4.632   4.296  17.470  0.00  0.00    +0.000 A 
ATOM      2  C   UNL     1       5.401   5.398  17.901  0.00  0.00    +0.000 A 
ATOM      3  C   UNL     1       6.372   6.051  17.098  0.00  0.00    +0.000 A 
ATOM      4  C   UNL     1       6.587   5.565  15.804  0.00  0.00    +0.000 A 
ATOM      5  C   UNL     1       5.898   4.447  15.322  0.00  0.00    +0.000 A 
ATOM      6  C   UNL     1       4.951   3.855  16.180  0.00  0.00    +0.000 A 
ENDROOT
BRANCH   1  12
ATOM      7  C   UNL     1       2.402   4.220  18.865  0.00  0.00    +0.000 C 
ATOM      8  C   UNL     1       2.570   4.235  20.401  0.00  0.00    +0.000 C 
ATOM      9  C   UNL     1       2.858   2.835  20.936  0.00  0.00    +0.000 C 
ATOM     10  C   UNL     1       4.062   2.219  20.233  0.00  0.00    +0.000 C 
ATOM     11  C   UNL     1       3.909   2.280  18.714  0.00  0.00    +0.000 C 
ATOM     12  N   UNL     1       3.679   3.675  18.272  0.00  0.00    +0.000 N 
BRANCH   7  13
ATOM     13  C   UNL     1       1.826   5.553  18.362  0.00  0.00    +0.000 C 
BRANCH  13  15
ATOM     14  C   UNL     1       2.678   7.913  18.031  0.00  0.00    +0.000 C 
ATOM     15  C   UNL     1       2.414   6.802  19.040  0.00  0.00    +0.000 C 
ENDBRANCH  13  15
ENDBRANCH   7  13
ENDBRANCH   1  12
BRANCH   3  16
ATOM     16  C   UNL     1       7.093   7.247  17.594  0.00  0.00    +0.000 A 
ATOM     17  C   UNL     1       6.846   8.533  17.082  0.00  0.00    +0.000 A 
ATOM     18  C   UNL     1       7.617   9.635  17.480  0.00  0.00    +0.000 A 
ATOM     19  C   UNL     1       8.650   9.482  18.413  0.00  0.00    +0.000 A 
ATOM     20  C   UNL     1       8.863   8.219  18.975  0.00  0.00    +0.000 A 
ATOM     21  C   UNL     1       8.096   7.122  18.570  0.00  0.00    +0.000 A 
BRANCH  19  22
ATOM     22  C   UNL     1       9.549  10.632  18.798  0.00  0.00    +0.000 C 
ATOM     23  F   UNL     1      10.420  11.002  17.818  0.00  0.00    +0.000 F 
ATOM     24  F   UNL     1       8.853  11.754  19.125  0.00  0.00    +0.000 F 
ATOM     25  F   UNL     1      10.319  10.343  19.886  0.00  0.00    +0.000 F 
ENDBRANCH  19  22
ENDBRANCH   3  16
BRANCH   5  26
ATOM     26  C   UNL     1       6.220   3.904  13.929  0.00  0.00    +0.000 C 
BRANCH  26  27
ATOM     27  C   UNL     1       7.274   4.619  13.060  0.00  0.00    +0.000 C 
ATOM     28  O   UNL     1       7.590   5.801  13.089  0.00  0.00    +0.000 OA
BRANCH  27  29
ATOM     29  O   UNL     1       7.872   3.794  12.167  0.00  0.00    +0.000 OA
ATOM     30  H   UNL     1       8.179   2.948  12.537  0.00  0.00    +0.000 HD
ENDBRANCH  27  29
ENDBRANCH  26  27
BRANCH  26  31
ATOM     31  C   UNL     1       4.945   3.567  13.108  0.00  0.00    +0.000 C 
BRANCH  31  32
ATOM     32  C   UNL     1       5.137   3.174  11.625  0.00  0.00    +0.000 C 
ATOM     33  C   UNL     1       5.631   1.744  11.407  0.00  0.00    +0.000 C 
ATOM     34  C   UNL     1       3.809   3.349  10.872  0.00  0.00    +0.000 C 
ENDBRANCH  31  32
ENDBRANCH  26  31
ENDBRANCH   5  26
TORSDOF 10
ENDMDL
MODEL 7
REMARK VINA RESULT:      -8.2      6.625     10.381
REMARK  Name = 
REMARK  13 active torsions:
REMARK  status: ('A' for Active; 'I' for Inactive)
REMARK    1  A    between atoms: C_1  and  C_2
REMARK    2  A    between atoms: C_2  and  C_3
REMARK    3  A    between atoms: C_3  and  C_4
REMARK    4  A    between atoms: N_9  and  C_10
REMARK    5  A    between atoms: C_12  and  C_13
REMARK    6  A    between atoms: C_16  and  C_17
REMARK    7  A    between atoms: C_24  and  C_25
REMARK    8  A    between atoms: C_25  and  C_26
REMARK    9  A    between atoms: C_25  and  C_30
REMARK   10  A    between atoms: C_26  and  C_27
REMARK   11  A    between atoms: C_27  and  C_28
REMARK   12  A    between atoms: C_27  and  C_29
REMARK   13  A    between atoms: C_30  and  O_32
REMARK                            x       y       z     vdW  Elec       q    Type
REMARK                         _______ _______ _______ _____ _____    ______ ____
ROOT
ATOM      1  C   UNL     1      -0.100  12.475  19.253  0.00  0.00    +0.000 A 
ATOM      2  C   UNL     1       0.738  11.344  19.359  0.00  0.00    +0.000 A 
ATOM      3  C   UNL     1       0.420  10.067  18.827  0.00  0.00    +0.000 A 
ATOM      4  C   UNL     1      -0.804   9.919  18.167  0.00  0.00    +0.000 A 
ATOM      5  C   UNL     1      -1.708  10.981  18.062  0.00  0.00    +0.000 A 
ATOM      6  C   UNL     1      -1.320  12.215  18.616  0.00  0.00    +0.000 A 
ENDROOT
BRANCH   1  12
ATOM      7  C   UNL     1       1.417  14.612  19.483  0.00  0.00    +0.000 C 
ATOM      8  C   UNL     1       2.269  14.696  20.769  0.00  0.00    +0.000 C 
ATOM      9  C   UNL     1       1.453  15.248  21.935  0.00  0.00    +0.000 C 
ATOM     10  C   UNL     1       0.180  14.436  22.142  0.00  0.00    +0.000 C 
ATOM     11  C   UNL     1      -0.613  14.304  20.842  0.00  0.00    +0.000 C 
ATOM     12  N   UNL     1       0.235  13.719  19.777  0.00  0.00    +0.000 N 
BRANCH   7  13
ATOM     13  C   UNL     1       2.299  14.343  18.254  0.00  0.00    +0.000 C 
BRANCH  13  15
ATOM     14  C   UNL     1       3.188  16.523  17.327  0.00  0.00    +0.000 C 
ATOM     15  C   UNL     1       3.520  15.269  18.127  0.00  0.00    +0.000 C 
ENDBRANCH  13  15
ENDBRANCH   7  13
ENDBRANCH   1  12
BRANCH   3  16
ATOM     16  C   UNL     1       1.381   8.942  18.917  0.00  0.00    +0.000 A 
ATOM     17  C   UNL     1       2.225   8.595  17.848  0.00  0.00    +0.000 A 
ATOM     18  C   UNL     1       3.045   7.458  17.908  0.00  0.00    +0.000 A 
ATOM     19  C   UNL     1       3.050   6.643  19.047  0.00  0.00    +0.000 A 
ATOM     20  C   UNL     1       2.260   7.015  20.140  0.00  0.00    +0.000 A 
ATOM     21  C   UNL     1       1.440   8.145  20.073  0.00  0.00    +0.000 A 
BRANCH  19  22
ATOM     22  C   UNL     1       3.859   5.370  19.109  0.00  0.00    +0.000 C 
ATOM     23  F   UNL     1       5.182   5.570  19.364  0.00  0.00    +0.000 F 
ATOM     24  F   UNL     1       3.416   4.516  20.071  0.00  0.00    +0.000 F 
ATOM     25  F   UNL     1       3.810   4.670  17.940  0.00  0.00    +0.000 F 
ENDBRANCH  19  22
ENDBRANCH   3  16
BRANCH   5  26
ATOM     26  C   UNL     1      -3.067  10.752  17.398  0.00  0.00    +0.000 C 
BRANCH  26  27
ATOM     27  C   UNL     1      -3.148  10.606  15.865  0.00  0.00    +0.000 C 
ATOM     28  O   UNL     1      -3.405  11.475  15.043  0.00  0.00    +0.000 OA
BRANCH  27  29
ATOM     29  O   UNL     1      -2.919   9.339  15.442  0.00  0.00    +0.000 OA
ATOM     30  H   UNL     1      -3.685   8.743  15.508  0.00  0.00    +0.000 HD
ENDBRANCH  27  29
ENDBRANCH  26  27
BRANCH  26  31
ATOM     31  C   UNL     1      -4.164  11.714  17.933  0.00  0.00    +0.000 C 
BRANCH  31  32
ATOM     32  C   UNL     1      -5.634  11.378  17.588  0.00  0.00    +0.000 C 
ATOM     33  C   UNL     1      -6.408  10.695  18.715  0.00  0.00    +0.000 C 
ATOM     34  C   UNL     1      -6.376  12.666  17.200  0.00  0.00    +0.000 C 
ENDBRANCH  31  32
ENDBRANCH  26  31
ENDBRANCH   5  26
TORSDOF 10
ENDMDL
MODEL 8
REMARK VINA RESULT:      -8.2      6.688     10.382
REMARK  Name = 
REMARK  13 active torsions:
REMARK  status: ('A' for Active; 'I' for Inactive)
REMARK    1  A    between atoms: C_1  and  C_2
REMARK    2  A    between atoms: C_2  and  C_3
REMARK    3  A    between atoms: C_3  and  C_4
REMARK    4  A    between atoms: N_9  and  C_10
REMARK    5  A    between atoms: C_12  and  C_13
REMARK    6  A    between atoms: C_16  and  C_17
REMARK    7  A    between atoms: C_24  and  C_25
REMARK    8  A    between atoms: C_25  and  C_26
REMARK    9  A    between atoms: C_25  and  C_30
REMARK   10  A    between atoms: C_26  and  C_27
REMARK   11  A    between atoms: C_27  and  C_28
REMARK   12  A    between atoms: C_27  and  C_29
REMARK   13  A    between atoms: C_30  and  O_32
REMARK                            x       y       z     vdW  Elec       q    Type
REMARK                         _______ _______ _______ _____ _____    ______ ____
ROOT
ATOM      1  C   UNL     1      -0.346  11.823  20.350  0.00  0.00    +0.000 A 
ATOM      2  C   UNL     1       0.597  10.796  20.131  0.00  0.00    +0.000 A 
ATOM      3  C   UNL     1       0.447   9.775  19.157  0.00  0.00    +0.000 A 
ATOM      4  C   UNL     1      -0.712   9.781  18.374  0.00  0.00    +0.000 A 
ATOM      5  C   UNL     1      -1.715  10.738  18.565  0.00  0.00    +0.000 A 
ATOM      6  C   UNL     1      -1.491  11.717  19.551  0.00  0.00    +0.000 A 
ENDROOT
BRANCH   1  12
ATOM      7  C   UNL     1      -1.030  13.180  22.499  0.00  0.00    +0.000 C 
ATOM      8  C   UNL     1      -1.610  14.589  22.246  0.00  0.00    +0.000 C 
ATOM      9  C   UNL     1      -0.497  15.615  22.050  0.00  0.00    +0.000 C 
ATOM     10  C   UNL     1       0.456  15.181  20.943  0.00  0.00    +0.000 C 
ATOM     11  C   UNL     1       0.963  13.758  21.174  0.00  0.00    +0.000 C 
ATOM     12  N   UNL     1      -0.175  12.819  21.307  0.00  0.00    +0.000 N 
BRANCH   7  13
ATOM     13  C   UNL     1      -2.122  12.214  22.984  0.00  0.00    +0.000 C 
BRANCH  13  15
ATOM     14  C   UNL     1      -4.324  12.657  21.820  0.00  0.00    +0.000 C 
ATOM     15  C   UNL     1      -3.523  12.837  23.103  0.00  0.00    +0.000 C 
ENDBRANCH  13  15
ENDBRANCH   7  13
ENDBRANCH   1  12
BRANCH   3  16
ATOM     16  C   UNL     1       1.512   8.769  18.936  0.00  0.00    +0.000 A 
ATOM     17  C   UNL     1       2.277   8.738  17.757  0.00  0.00    +0.000 A 
ATOM     18  C   UNL     1       3.200   7.710  17.514  0.00  0.00    +0.000 A 
ATOM     19  C   UNL     1       3.393   6.691  18.454  0.00  0.00    +0.000 A 
ATOM     20  C   UNL     1       2.683   6.746  19.659  0.00  0.00    +0.000 A 
ATOM     21  C   UNL     1       1.758   7.769  19.892  0.00  0.00    +0.000 A 
BRANCH  19  22
ATOM     22  C   UNL     1       4.319   5.528  18.187  0.00  0.00    +0.000 C 
ATOM     23  F   UNL     1       4.648   5.379  16.873  0.00  0.00    +0.000 F 
ATOM     24  F   UNL     1       5.498   5.632  18.859  0.00  0.00    +0.000 F 
ATOM     25  F   UNL     1       3.776   4.338  18.570  0.00  0.00    +0.000 F 
ENDBRANCH  19  22
ENDBRANCH   3  16
BRANCH   5  26
ATOM     26  C   UNL     1      -3.000  10.661  17.738  0.00  0.00    +0.000 C 
BRANCH  26  27
ATOM     27  C   UNL     1      -2.911  10.619  16.199  0.00  0.00    +0.000 C 
ATOM     28  O   UNL     1      -2.931  11.565  15.422  0.00  0.00    +0.000 OA
BRANCH  27  29
ATOM     29  O   UNL     1      -2.822   9.359  15.708  0.00  0.00    +0.000 OA
ATOM     30  H   UNL     1      -3.053   9.272  14.767  0.00  0.00    +0.000 HD
ENDBRANCH  27  29
ENDBRANCH  26  27
BRANCH  26  31
ATOM     31  C   UNL     1      -4.080  11.670  18.215  0.00  0.00    +0.000 C 
BRANCH  31  32
ATOM     32  C   UNL     1      -5.536  11.422  17.757  0.00  0.00    +0.000 C 
ATOM     33  C   UNL     1      -6.398  10.668  18.769  0.00  0.00    +0.000 C 
ATOM     34  C   UNL     1      -6.213  12.767  17.450  0.00  0.00    +0.000 C 
ENDBRANCH  31  32
ENDBRANCH  26  31
ENDBRANCH   5  26
TORSDOF 10
ENDMDL
MODEL 9
REMARK VINA RESULT:      -8.2      3.601      6.028
REMARK  Name = 
REMARK  13 active torsions:
REMARK  status: ('A' for Active; 'I' for Inactive)
REMARK    1  A    between atoms: C_1  and  C_2
REMARK    2  A    between atoms: C_2  and  C_3
REMARK    3  A    between atoms: C_3  and  C_4
REMARK    4  A    between atoms: N_9  and  C_10
REMARK    5  A    between atoms: C_12  and  C_13
REMARK    6  A    between atoms: C_16  and  C_17
REMARK    7  A    between atoms: C_24  and  C_25
REMARK    8  A    between atoms: C_25  and  C_26
REMARK    9  A    between atoms: C_25  and  C_30
REMARK   10  A    between atoms: C_26  and  C_27
REMARK   11  A    between atoms: C_27  and  C_28
REMARK   12  A    between atoms: C_27  and  C_29
REMARK   13  A    between atoms: C_30  and  O_32
REMARK                            x       y       z     vdW  Elec       q    Type
REMARK                         _______ _______ _______ _____ _____    ______ ____
ROOT
ATOM      1  C   UNL     1       3.626   4.407  18.752  0.00  0.00    +0.000 A 
ATOM      2  C   UNL     1       2.879   5.551  19.105  0.00  0.00    +0.000 A 
ATOM      3  C   UNL     1       3.022   6.817  18.481  0.00  0.00    +0.000 A 
ATOM      4  C   UNL     1       3.970   6.940  17.459  0.00  0.00    +0.000 A 
ATOM      5  C   UNL     1       4.781   5.864  17.085  0.00  0.00    +0.000 A 
ATOM      6  C   UNL     1       4.579   4.642  17.753  0.00  0.00    +0.000 A 
ENDROOT
BRANCH   1  12
ATOM      7  C   UNL     1       2.355   2.672  20.267  0.00  0.00    +0.000 C 
ATOM      8  C   UNL     1       2.955   2.440  21.672  0.00  0.00    +0.000 C 
ATOM      9  C   UNL     1       4.102   1.435  21.621  0.00  0.00    +0.000 C 
ATOM     10  C   UNL     1       5.159   1.863  20.610  0.00  0.00    +0.000 C 
ATOM     11  C   UNL     1       4.535   2.156  19.246  0.00  0.00    +0.000 C 
ATOM     12  N   UNL     1       3.465   3.173  19.375  0.00  0.00    +0.000 N 
BRANCH   7  13
ATOM     13  C   UNL     1       1.029   3.443  20.355  0.00  0.00    +0.000 C 
BRANCH  13  15
ATOM     14  C   UNL     1       0.492   2.008  18.341  0.00  0.00    +0.000 C 
ATOM     15  C   UNL     1       0.078   3.221  19.166  0.00  0.00    +0.000 C 
ENDBRANCH  13  15
ENDBRANCH   7  13
ENDBRANCH   1  12
BRANCH   3  16
ATOM     16  C   UNL     1       2.153   7.957  18.857  0.00  0.00    +0.000 A 
ATOM     17  C   UNL     1       1.698   8.145  20.174  0.00  0.00    +0.000 A 
ATOM     18  C   UNL     1       0.784   9.162  20.490  0.00  0.00    +0.000 A 
ATOM     19  C   UNL     1       0.310  10.027  19.496  0.00  0.00    +0.000 A 
ATOM     20  C   UNL     1       0.805   9.887  18.195  0.00  0.00    +0.000 A 
ATOM     21  C   UNL     1       1.710   8.868  17.884  0.00  0.00    +0.000 A 
BRANCH  19  22
ATOM     22  C   UNL     1      -0.734  11.077  19.789  0.00  0.00    +0.000 C 
ATOM     23  F   UNL     1      -1.890  10.913  19.087  0.00  0.00    +0.000 F 
ATOM     24  F   UNL     1      -1.094  11.106  21.101  0.00  0.00    +0.000 F 
ATOM     25  F   UNL     1      -0.299  12.335  19.495  0.00  0.00    +0.000 F 
ENDBRANCH  19  22
ENDBRANCH   3  16
BRANCH   5  26
ATOM     26  C   UNL     1       5.857   6.065  16.015  0.00  0.00    +0.000 C 
BRANCH  26  27
ATOM     27  C   UNL     1       5.918   5.106  14.810  0.00  0.00    +0.000 C 
ATOM     28  O   UNL     1       5.066   4.305  14.447  0.00  0.00    +0.000 OA
BRANCH  27  29
ATOM     29  O   UNL     1       7.083   5.191  14.123  0.00  0.00    +0.000 OA
ATOM     30  H   UNL     1       7.292   4.412  13.579  0.00  0.00    +0.000 HD
ENDBRANCH  27  29
ENDBRANCH  26  27
BRANCH  26  31
ATOM     31  C   UNL     1       7.267   6.303  16.622  0.00  0.00    +0.000 C 
BRANCH  31  32
ATOM     32  C   UNL     1       7.338   6.947  18.026  0.00  0.00    +0.000 C 
ATOM     33  C   UNL     1       7.963   6.057  19.100  0.00  0.00    +0.000 C 
ATOM     34  C   UNL     1       8.142   8.254  17.950  0.00  0.00    +0.000 C 
ENDBRANCH  31  32
ENDBRANCH  26  31
ENDBRANCH   5  26
TORSDOF 10
ENDMDL
