MODEL 1
REMARK VINA RESULT:      -7.8      0.000      0.000
REMARK  Name = 
REMARK  7 active torsions:
REMARK  status: ('A' for Active; 'I' for Inactive)
REMARK    1  A    between atoms: C_1  and  O_2
REMARK    2  A    between atoms: O_2  and  C_3
REMARK    3  A    between atoms: C_8  and  C_9
REMARK    4  A    between atoms: C_12  and  C_13
REMARK    5  A    between atoms: C_21  and  C_22
REMARK    6  A    between atoms: C_25  and  S_26
REMARK    7  A    between atoms: S_26  and  C_27
REMARK                            x       y       z     vdW  Elec       q    Type
REMARK                         _______ _______ _______ _____ _____    ______ ____
ROOT
ATOM      1  C   UNL     1       6.293   2.988  12.092  0.00  0.00    +0.000 A 
ATOM      2  C   UNL     1       7.240   3.961  11.794  0.00  0.00    +0.000 A 
ATOM      3  C   UNL     1       7.541   4.942  12.740  0.00  0.00    +0.000 A 
ATOM      4  C   UNL     1       6.912   4.974  13.976  0.00  0.00    +0.000 A 
ATOM      5  N   UNL     1       7.266   5.918  14.860  0.00  0.00    +0.000 NA
ATOM      6  C   UNL     1       6.630   5.924  16.065  0.00  0.00    +0.000 A 
ATOM      7  C   UNL     1       5.583   5.012  16.336  0.00  0.00    +0.000 A 
ATOM      8  N   UNL     1       5.257   4.034  15.444  0.00  0.00    +0.000 NA
ATOM      9  C   UNL     1       5.926   4.008  14.273  0.00  0.00    +0.000 A 
ATOM     10  C   UNL     1       5.648   3.024  13.332  0.00  0.00    +0.000 A 
ENDROOT
BRANCH   6  11
ATOM     11  C   UNL     1       7.137   6.951  17.009  0.00  0.00    +0.000 A 
ATOM     12  C   UNL     1       7.942   6.605  18.104  0.00  0.00    +0.000 A 
ATOM     13  C   UNL     1       8.578   7.588  18.880  0.00  0.00    +0.000 A 
ATOM     14  C   UNL     1       8.472   8.955  18.570  0.00  0.00    +0.000 A 
ATOM     15  C   UNL     1       7.608   9.288  17.520  0.00  0.00    +0.000 A 
ATOM     16  C   UNL     1       6.894   8.316  16.817  0.00  0.00    +0.000 A 
BRANCH  14  17
ATOM     17  C   UNL     1       9.208  10.005  19.318  0.00  0.00    +0.000 A 
ATOM     18  C   UNL     1      10.277  10.718  18.747  0.00  0.00    +0.000 A 
ATOM     19  C   UNL     1      10.982  11.685  19.473  0.00  0.00    +0.000 A 
ATOM     20  C   UNL     1      10.615  11.977  20.786  0.00  0.00    +0.000 A 
ATOM     21  C   UNL     1       9.544  11.316  21.361  0.00  0.00    +0.000 A 
ATOM     22  C   UNL     1       8.857  10.335  20.641  0.00  0.00    +0.000 A 
ENDBRANCH  14  17
ENDBRANCH   6  11
BRANCH   7  23
ATOM     23  C   UNL     1       4.779   4.988  17.583  0.00  0.00    +0.000 A 
ATOM     24  C   UNL     1       4.953   3.983  18.563  0.00  0.00    +0.000 A 
ATOM     25  C   UNL     1       4.016   3.789  19.577  0.00  0.00    +0.000 A 
ATOM     26  C   UNL     1       2.953   4.681  19.701  0.00  0.00    +0.000 A 
ATOM     27  C   UNL     1       2.819   5.756  18.824  0.00  0.00    +0.000 A 
ATOM     28  C   UNL     1       3.731   5.904  17.777  0.00  0.00    +0.000 A 
BRANCH  26  29
ATOM     29  S   UNL     1       1.765   4.430  20.982  0.00  0.00    +0.000 S 
ATOM     30  C   UNL     1       0.664   3.252  20.245  0.00  0.00    +0.000 C 
ATOM     31  O   UNL     1       2.429   3.789  22.103  0.00  0.00    +0.000 OA
ATOM     32  O   UNL     1       1.037   5.672  21.162  0.00  0.00    +0.000 OA
ENDBRANCH  26  29
ENDBRANCH   7  23
BRANCH   1  34
ATOM     33  C   UNL     1       6.589   0.725  11.428  0.00  0.00    +0.000 C 
ATOM     34  O   UNL     1       5.910   1.966  11.269  0.00  0.00    +0.000 OA
ENDBRANCH   1  34
TORSDOF 5
ENDMDL
MODEL 2
REMARK VINA RESULT:      -7.7      8.395     12.554
REMARK  Name = 
REMARK  7 active torsions:
REMARK  status: ('A' for Active; 'I' for Inactive)
REMARK    1  A    between atoms: C_1  and  O_2
REMARK    2  A    between atoms: O_2  and  C_3
REMARK    3  A    between atoms: C_8  and  C_9
REMARK    4  A    between atoms: C_12  and  C_13
REMARK    5  A    between atoms: C_21  and  C_22
REMARK    6  A    between atoms: C_25  and  S_26
REMARK    7  A    between atoms: S_26  and  C_27
REMARK                            x       y       z     vdW  Elec       q    Type
REMARK                         _______ _______ _______ _____ _____    ______ ____
ROOT
ATOM      1  C   UNL     1      -3.264  14.346  24.589  0.00  0.00    +0.000 A 
ATOM      2  C   UNL     1      -3.809  13.067  24.553  0.00  0.00    +0.000 A 
ATOM      3  C   UNL     1      -3.220  12.090  23.749  0.00  0.00    +0.000 A 
ATOM      4  C   UNL     1      -2.100  12.364  22.977  0.00  0.00    +0.000 A 
ATOM      5  N   UNL     1      -1.554  11.378  22.251  0.00  0.00    +0.000 NA
ATOM      6  C   UNL     1      -0.456  11.679  21.504  0.00  0.00    +0.000 A 
ATOM      7  C   UNL     1       0.038  13.003  21.441  0.00  0.00    +0.000 A 
ATOM      8  N   UNL     1      -0.503  13.990  22.211  0.00  0.00    +0.000 NA
ATOM      9  C   UNL     1      -1.561  13.669  22.984  0.00  0.00    +0.000 A 
ATOM     10  C   UNL     1      -2.143  14.629  23.803  0.00  0.00    +0.000 A 
ENDROOT
BRANCH   6  11
ATOM     11  C   UNL     1       0.128  10.513  20.795  0.00  0.00    +0.000 A 
ATOM     12  C   UNL     1       0.257  10.494  19.399  0.00  0.00    +0.000 A 
ATOM     13  C   UNL     1       0.981   9.482  18.747  0.00  0.00    +0.000 A 
ATOM     14  C   UNL     1       1.643   8.470  19.465  0.00  0.00    +0.000 A 
ATOM     15  C   UNL     1       1.444   8.461  20.851  0.00  0.00    +0.000 A 
ATOM     16  C   UNL     1       0.637   9.407  21.485  0.00  0.00    +0.000 A 
BRANCH  14  17
ATOM     17  C   UNL     1       2.490   7.444  18.806  0.00  0.00    +0.000 A 
ATOM     18  C   UNL     1       2.533   6.111  19.254  0.00  0.00    +0.000 A 
ATOM     19  C   UNL     1       3.359   5.161  18.642  0.00  0.00    +0.000 A 
ATOM     20  C   UNL     1       4.146   5.519  17.548  0.00  0.00    +0.000 A 
ATOM     21  C   UNL     1       4.095   6.815  17.065  0.00  0.00    +0.000 A 
ATOM     22  C   UNL     1       3.288   7.768  17.692  0.00  0.00    +0.000 A 
ENDBRANCH  14  17
ENDBRANCH   6  11
BRANCH   7  23
ATOM     23  C   UNL     1       1.176  13.447  20.598  0.00  0.00    +0.000 A 
ATOM     24  C   UNL     1       2.491  13.541  21.111  0.00  0.00    +0.000 A 
ATOM     25  C   UNL     1       3.490  14.226  20.422  0.00  0.00    +0.000 A 
ATOM     26  C   UNL     1       3.222  14.718  19.146  0.00  0.00    +0.000 A 
ATOM     27  C   UNL     1       1.971  14.536  18.560  0.00  0.00    +0.000 A 
ATOM     28  C   UNL     1       0.960  13.901  19.286  0.00  0.00    +0.000 A 
BRANCH  26  29
ATOM     29  S   UNL     1       4.488  15.591  18.278  0.00  0.00    +0.000 S 
ATOM     30  C   UNL     1       3.579  16.356  16.963  0.00  0.00    +0.000 C 
ATOM     31  O   UNL     1       4.999  16.638  19.144  0.00  0.00    +0.000 OA
ATOM     32  O   UNL     1       5.382  14.609  17.693  0.00  0.00    +0.000 OA
ENDBRANCH  26  29
ENDBRANCH   7  23
BRANCH   1  34
ATOM     33  C   UNL     1      -3.391  16.700  24.888  0.00  0.00    +0.000 C 
ATOM     34  O   UNL     1      -3.728  15.392  25.336  0.00  0.00    +0.000 OA
ENDBRANCH   1  34
TORSDOF 5
ENDMDL
MODEL 3
REMARK VINA RESULT:      -7.7      8.719     12.877
REMARK  Name = 
REMARK  7 active torsions:
REMARK  status: ('A' for Active; 'I' for Inactive)
REMARK    1  A    between atoms: C_1  and  O_2
REMARK    2  A    between atoms: O_2  and  C_3
REMARK    3  A    between atoms: C_8  and  C_9
REMARK    4  A    between atoms: C_12  and  C_13
REMARK    5  A    between atoms: C_21  and  C_22
REMARK    6  A    between atoms: C_25  and  S_26
REMARK    7  A    between atoms: S_26  and  C_27
REMARK                            x       y       z     vdW  Elec       q    Type
REMARK                         _______ _______ _______ _____ _____    ______ ____
ROOT
ATOM      1  C   UNL     1      -3.918  14.604  24.216  0.00  0.00    +0.000 A 
ATOM      2  C   UNL     1      -4.257  13.266  24.381  0.00  0.00    +0.000 A 
ATOM      3  C   UNL     1      -3.465  12.278  23.795  0.00  0.00    +0.000 A 
ATOM      4  C   UNL     1      -2.343  12.598  23.044  0.00  0.00    +0.000 A 
ATOM      5  N   UNL     1      -1.599  11.607  22.533  0.00  0.00    +0.000 NA
ATOM      6  C   UNL     1      -0.504  11.953  21.800  0.00  0.00    +0.000 A 
ATOM      7  C   UNL     1      -0.215  13.311  21.527  0.00  0.00    +0.000 A 
ATOM      8  N   UNL     1      -0.959  14.311  22.081  0.00  0.00    +0.000 NA
ATOM      9  C   UNL     1      -2.012  13.956  22.845  0.00  0.00    +0.000 A 
ATOM     10  C   UNL     1      -2.796  14.932  23.450  0.00  0.00    +0.000 A 
ENDROOT
BRANCH   6  11
ATOM     11  C   UNL     1       0.304  10.797  21.340  0.00  0.00    +0.000 A 
ATOM     12  C   UNL     1       0.773   9.828  22.239  0.00  0.00    +0.000 A 
ATOM     13  C   UNL     1       1.368   8.639  21.784  0.00  0.00    +0.000 A 
ATOM     14  C   UNL     1       1.480   8.349  20.414  0.00  0.00    +0.000 A 
ATOM     15  C   UNL     1       1.075   9.357  19.530  0.00  0.00    +0.000 A 
ATOM     16  C   UNL     1       0.582  10.580  19.985  0.00  0.00    +0.000 A 
BRANCH  14  17
ATOM     17  C   UNL     1       2.020   7.061  19.910  0.00  0.00    +0.000 A 
ATOM     18  C   UNL     1       1.863   5.857  20.620  0.00  0.00    +0.000 A 
ATOM     19  C   UNL     1       2.404   4.654  20.148  0.00  0.00    +0.000 A 
ATOM     20  C   UNL     1       3.096   4.626  18.938  0.00  0.00    +0.000 A 
ATOM     21  C   UNL     1       3.234   5.790  18.202  0.00  0.00    +0.000 A 
ATOM     22  C   UNL     1       2.715   6.993  18.686  0.00  0.00    +0.000 A 
ENDBRANCH  14  17
ENDBRANCH   6  11
BRANCH   7  23
ATOM     23  C   UNL     1       0.904  13.787  20.677  0.00  0.00    +0.000 A 
ATOM     24  C   UNL     1       2.190  14.038  21.210  0.00  0.00    +0.000 A 
ATOM     25  C   UNL     1       3.145  14.754  20.489  0.00  0.00    +0.000 A 
ATOM     26  C   UNL     1       2.873  15.119  19.173  0.00  0.00    +0.000 A 
ATOM     27  C   UNL     1       1.660  14.780  18.576  0.00  0.00    +0.000 A 
ATOM     28  C   UNL     1       0.688  14.116  19.328  0.00  0.00    +0.000 A 
BRANCH  26  29
ATOM     29  S   UNL     1       4.082  16.030  18.265  0.00  0.00    +0.000 S 
ATOM     30  C   UNL     1       3.118  16.725  16.951  0.00  0.00    +0.000 C 
ATOM     31  O   UNL     1       4.558  17.118  19.101  0.00  0.00    +0.000 OA
ATOM     32  O   UNL     1       5.012  15.079  17.685  0.00  0.00    +0.000 OA
ENDBRANCH  26  29
ENDBRANCH   7  23
BRANCH   1  34
ATOM     33  C   UNL     1      -5.489  16.354  23.872  0.00  0.00    +0.000 C 
ATOM     34  O   UNL     1      -4.593  15.671  24.741  0.00  0.00    +0.000 OA
ENDBRANCH   1  34
TORSDOF 5
ENDMDL
MODEL 4
REMARK VINA RESULT:      -7.6      8.729     12.811
REMARK  Name = 
REMARK  7 active torsions:
REMARK  status: ('A' for Active; 'I' for Inactive)
REMARK    1  A    between atoms: C_1  and  O_2
REMARK    2  A    between atoms: O_2  and  C_3
REMARK    3  A    between atoms: C_8  and  C_9
REMARK    4  A    between atoms: C_12  and  C_13
REMARK    5  A    between atoms: C_21  and  C_22
REMARK    6  A    between atoms: C_25  and  S_26
REMARK    7  A    between atoms: S_26  and  C_27
REMARK                            x       y       z     vdW  Elec       q    Type
REMARK                         _______ _______ _______ _____ _____    ______ ____
ROOT
ATOM      1  C   UNL     1      -3.766  14.869  24.280  0.00  0.00    +0.000 A 
ATOM      2  C   UNL     1      -4.300  13.586  24.279  0.00  0.00    +0.000 A 
ATOM      3  C   UNL     1      -3.671  12.578  23.546  0.00  0.00    +0.000 A 
ATOM      4  C   UNL     1      -2.521  12.827  22.811  0.00  0.00    +0.000 A 
ATOM      5  N   UNL     1      -1.939  11.814  22.153  0.00  0.00    +0.000 NA
ATOM      6  C   UNL     1      -0.812  12.089  21.440  0.00  0.00    +0.000 A 
ATOM      7  C   UNL     1      -0.325  13.414  21.338  0.00  0.00    +0.000 A 
ATOM      8  N   UNL     1      -0.904  14.429  22.039  0.00  0.00    +0.000 NA
ATOM      9  C   UNL     1      -1.992  14.135  22.780  0.00  0.00    +0.000 A 
ATOM     10  C   UNL     1      -2.614  15.127  23.530  0.00  0.00    +0.000 A 
ENDROOT
BRANCH   6  11
ATOM     11  C   UNL     1      -0.191  10.898  20.809  0.00  0.00    +0.000 A 
ATOM     12  C   UNL     1       0.004  10.821  19.424  0.00  0.00    +0.000 A 
ATOM     13  C   UNL     1       0.761   9.786  18.851  0.00  0.00    +0.000 A 
ATOM     14  C   UNL     1       1.391   8.809  19.641  0.00  0.00    +0.000 A 
ATOM     15  C   UNL     1       1.128   8.857  21.015  0.00  0.00    +0.000 A 
ATOM     16  C   UNL     1       0.288   9.824  21.570  0.00  0.00    +0.000 A 
BRANCH  14  17
ATOM     17  C   UNL     1       2.272   7.760  19.067  0.00  0.00    +0.000 A 
ATOM     18  C   UNL     1       3.008   7.968  17.886  0.00  0.00    +0.000 A 
ATOM     19  C   UNL     1       3.812   6.960  17.340  0.00  0.00    +0.000 A 
ATOM     20  C   UNL     1       3.915   5.725  17.978  0.00  0.00    +0.000 A 
ATOM     21  C   UNL     1       3.229   5.506  19.160  0.00  0.00    +0.000 A 
ATOM     22  C   UNL     1       2.409   6.505  19.691  0.00  0.00    +0.000 A 
ENDBRANCH  14  17
ENDBRANCH   6  11
BRANCH   7  23
ATOM     23  C   UNL     1       0.845  13.828  20.524  0.00  0.00    +0.000 A 
ATOM     24  C   UNL     1       2.169  13.519  20.912  0.00  0.00    +0.000 A 
ATOM     25  C   UNL     1       3.263  14.149  20.320  0.00  0.00    +0.000 A 
ATOM     26  C   UNL     1       3.055  15.004  19.240  0.00  0.00    +0.000 A 
ATOM     27  C   UNL     1       1.769  15.236  18.754  0.00  0.00    +0.000 A 
ATOM     28  C   UNL     1       0.677  14.647  19.394  0.00  0.00    +0.000 A 
BRANCH  26  29
ATOM     29  S   UNL     1       4.441  15.804  18.496  0.00  0.00    +0.000 S 
ATOM     30  C   UNL     1       5.473  16.142  19.897  0.00  0.00    +0.000 C 
ATOM     31  O   UNL     1       5.125  14.842  17.651  0.00  0.00    +0.000 OA
ATOM     32  O   UNL     1       3.985  17.072  17.958  0.00  0.00    +0.000 OA
ENDBRANCH  26  29
ENDBRANCH   7  23
BRANCH   1  34
ATOM     33  C   UNL     1      -5.301  16.683  24.317  0.00  0.00    +0.000 C 
ATOM     34  O   UNL     1      -4.268  15.944  24.959  0.00  0.00    +0.000 OA
ENDBRANCH   1  34
TORSDOF 5
ENDMDL
MODEL 5
REMARK VINA RESULT:      -7.5      7.499     10.905
REMARK  Name = 
REMARK  7 active torsions:
REMARK  status: ('A' for Active; 'I' for Inactive)
REMARK    1  A    between atoms: C_1  and  O_2
REMARK    2  A    between atoms: O_2  and  C_3
REMARK    3  A    between atoms: C_8  and  C_9
REMARK    4  A    between atoms: C_12  and  C_13
REMARK    5  A    between atoms: C_21  and  C_22
REMARK    6  A    between atoms: C_25  and  S_26
REMARK    7  A    between atoms: S_26  and  C_27
REMARK                            x       y       z     vdW  Elec       q    Type
REMARK                         _______ _______ _______ _____ _____    ______ ____
ROOT
ATOM      1  C   UNL     1       2.847  16.648  17.969  0.00  0.00    +0.000 A 
ATOM      2  C   UNL     1       3.983  15.865  18.142  0.00  0.00    +0.000 A 
ATOM      3  C   UNL     1       3.847  14.497  18.379  0.00  0.00    +0.000 A 
ATOM      4  C   UNL     1       2.599  13.894  18.452  0.00  0.00    +0.000 A 
ATOM      5  N   UNL     1       2.528  12.570  18.647  0.00  0.00    +0.000 NA
ATOM      6  C   UNL     1       1.289  12.007  18.714  0.00  0.00    +0.000 A 
ATOM      7  C   UNL     1       0.125  12.809  18.657  0.00  0.00    +0.000 A 
ATOM      8  N   UNL     1       0.209  14.150  18.423  0.00  0.00    +0.000 NA
ATOM      9  C   UNL     1       1.441  14.688  18.310  0.00  0.00    +0.000 A 
ATOM     10  C   UNL     1       1.588  16.047  18.053  0.00  0.00    +0.000 A 
ENDROOT
BRANCH   6  11
ATOM     11  C   UNL     1       1.305  10.529  18.854  0.00  0.00    +0.000 A 
ATOM     12  C   UNL     1       1.734   9.701  17.808  0.00  0.00    +0.000 A 
ATOM     13  C   UNL     1       1.932   8.323  18.004  0.00  0.00    +0.000 A 
ATOM     14  C   UNL     1       1.751   7.725  19.263  0.00  0.00    +0.000 A 
ATOM     15  C   UNL     1       1.252   8.551  20.278  0.00  0.00    +0.000 A 
ATOM     16  C   UNL     1       0.956   9.896  20.052  0.00  0.00    +0.000 A 
BRANCH  14  17
ATOM     17  C   UNL     1       2.042   6.291  19.517  0.00  0.00    +0.000 A 
ATOM     18  C   UNL     1       2.509   5.433  18.505  0.00  0.00    +0.000 A 
ATOM     19  C   UNL     1       2.751   4.076  18.751  0.00  0.00    +0.000 A 
ATOM     20  C   UNL     1       2.553   3.551  20.027  0.00  0.00    +0.000 A 
ATOM     21  C   UNL     1       2.129   4.381  21.049  0.00  0.00    +0.000 A 
ATOM     22  C   UNL     1       1.865   5.730  20.796  0.00  0.00    +0.000 A 
ENDBRANCH  14  17
ENDBRANCH   6  11
BRANCH   7  23
ATOM     23  C   UNL     1      -1.262  12.304  18.799  0.00  0.00    +0.000 A 
ATOM     24  C   UNL     1      -1.904  11.588  17.762  0.00  0.00    +0.000 A 
ATOM     25  C   UNL     1      -3.282  11.373  17.775  0.00  0.00    +0.000 A 
ATOM     26  C   UNL     1      -4.021  11.760  18.891  0.00  0.00    +0.000 A 
ATOM     27  C   UNL     1      -3.398  12.360  19.985  0.00  0.00    +0.000 A 
ATOM     28  C   UNL     1      -2.028  12.624  19.933  0.00  0.00    +0.000 A 
BRANCH  26  29
ATOM     29  S   UNL     1      -5.766  11.492  18.903  0.00  0.00    +0.000 S 
ATOM     30  C   UNL     1      -6.287  12.360  17.448  0.00  0.00    +0.000 C 
ATOM     31  O   UNL     1      -6.012  10.076  18.697  0.00  0.00    +0.000 OA
ATOM     32  O   UNL     1      -6.313  12.180  20.056  0.00  0.00    +0.000 OA
ENDBRANCH  26  29
ENDBRANCH   7  23
BRANCH   1  34
ATOM     33  C   UNL     1       1.560  18.630  17.713  0.00  0.00    +0.000 C 
ATOM     34  O   UNL     1       2.832  17.991  17.719  0.00  0.00    +0.000 OA
ENDBRANCH   1  34
TORSDOF 5
ENDMDL
MODEL 6
REMARK VINA RESULT:      -7.5      7.192     10.700
REMARK  Name = 
REMARK  7 active torsions:
REMARK  status: ('A' for Active; 'I' for Inactive)
REMARK    1  A    between atoms: C_1  and  O_2
REMARK    2  A    between atoms: O_2  and  C_3
REMARK    3  A    between atoms: C_8  and  C_9
REMARK    4  A    between atoms: C_12  and  C_13
REMARK    5  A    between atoms: C_21  and  C_22
REMARK    6  A    between atoms: C_25  and  S_26
REMARK    7  A    between atoms: S_26  and  C_27
REMARK                            x       y       z     vdW  Elec       q    Type
REMARK                         _______ _______ _______ _____ _____    ______ ____
ROOT
ATOM      1  C   UNL     1      -4.867  11.944  18.297  0.00  0.00    +0.000 A 
ATOM      2  C   UNL     1      -4.862  10.629  17.844  0.00  0.00    +0.000 A 
ATOM      3  C   UNL     1      -3.664   9.913  17.821  0.00  0.00    +0.000 A 
ATOM      4  C   UNL     1      -2.470  10.485  18.237  0.00  0.00    +0.000 A 
ATOM      5  N   UNL     1      -1.355   9.740  18.226  0.00  0.00    +0.000 NA
ATOM      6  C   UNL     1      -0.199  10.329  18.640  0.00  0.00    +0.000 A 
ATOM      7  C   UNL     1      -0.169  11.699  18.992  0.00  0.00    +0.000 A 
ATOM      8  N   UNL     1      -1.315  12.437  19.032  0.00  0.00    +0.000 NA
ATOM      9  C   UNL     1      -2.462  11.830  18.666  0.00  0.00    +0.000 A 
ATOM     10  C   UNL     1      -3.664  12.527  18.705  0.00  0.00    +0.000 A 
ENDROOT
BRANCH   6  11
ATOM     11  C   UNL     1       0.968   9.412  18.670  0.00  0.00    +0.000 A 
ATOM     12  C   UNL     1       1.221   8.587  19.774  0.00  0.00    +0.000 A 
ATOM     13  C   UNL     1       2.205   7.585  19.726  0.00  0.00    +0.000 A 
ATOM     14  C   UNL     1       2.947   7.338  18.558  0.00  0.00    +0.000 A 
ATOM     15  C   UNL     1       2.735   8.217  17.489  0.00  0.00    +0.000 A 
ATOM     16  C   UNL     1       1.832   9.277  17.577  0.00  0.00    +0.000 A 
BRANCH  14  17
ATOM     17  C   UNL     1       3.927   6.227  18.452  0.00  0.00    +0.000 A 
ATOM     18  C   UNL     1       3.917   5.135  19.340  0.00  0.00    +0.000 A 
ATOM     19  C   UNL     1       4.865   4.109  19.247  0.00  0.00    +0.000 A 
ATOM     20  C   UNL     1       5.833   4.141  18.245  0.00  0.00    +0.000 A 
ATOM     21  C   UNL     1       5.844   5.185  17.337  0.00  0.00    +0.000 A 
ATOM     22  C   UNL     1       4.911   6.220  17.446  0.00  0.00    +0.000 A 
ENDBRANCH  14  17
ENDBRANCH   6  11
BRANCH   7  23
ATOM     23  C   UNL     1       1.051  12.451  19.377  0.00  0.00    +0.000 A 
ATOM     24  C   UNL     1       1.306  12.817  20.720  0.00  0.00    +0.000 A 
ATOM     25  C   UNL     1       2.281  13.761  21.040  0.00  0.00    +0.000 A 
ATOM     26  C   UNL     1       3.104  14.259  20.032  0.00  0.00    +0.000 A 
ATOM     27  C   UNL     1       2.959  13.826  18.715  0.00  0.00    +0.000 A 
ATOM     28  C   UNL     1       1.939  12.927  18.398  0.00  0.00    +0.000 A 
BRANCH  26  29
ATOM     29  S   UNL     1       4.334  15.458  20.439  0.00  0.00    +0.000 S 
ATOM     30  C   UNL     1       3.996  16.751  19.275  0.00  0.00    +0.000 C 
ATOM     31  O   UNL     1       4.055  15.965  21.771  0.00  0.00    +0.000 OA
ATOM     32  O   UNL     1       5.630  14.892  20.117  0.00  0.00    +0.000 OA
ENDBRANCH  26  29
ENDBRANCH   7  23
BRANCH   1  34
ATOM     33  C   UNL     1      -6.705  12.964  17.188  0.00  0.00    +0.000 C 
ATOM     34  O   UNL     1      -5.964  12.755  18.385  0.00  0.00    +0.000 OA
ENDBRANCH   1  34
TORSDOF 5
ENDMDL
MODEL 7
REMARK VINA RESULT:      -7.4      8.229     12.112
REMARK  Name = 
REMARK  7 active torsions:
REMARK  status: ('A' for Active; 'I' for Inactive)
REMARK    1  A    between atoms: C_1  and  O_2
REMARK    2  A    between atoms: O_2  and  C_3
REMARK    3  A    between atoms: C_8  and  C_9
REMARK    4  A    between atoms: C_12  and  C_13
REMARK    5  A    between atoms: C_21  and  C_22
REMARK    6  A    between atoms: C_25  and  S_26
REMARK    7  A    between atoms: S_26  and  C_27
REMARK                            x       y       z     vdW  Elec       q    Type
REMARK                         _______ _______ _______ _____ _____    ______ ____
ROOT
ATOM      1  C   UNL     1      -4.545  14.893  21.116  0.00  0.00    +0.000 A 
ATOM      2  C   UNL     1      -5.112  13.655  20.836  0.00  0.00    +0.000 A 
ATOM      3  C   UNL     1      -4.295  12.598  20.432  0.00  0.00    +0.000 A 
ATOM      4  C   UNL     1      -2.923  12.753  20.299  0.00  0.00    +0.000 A 
ATOM      5  N   UNL     1      -2.181  11.695  19.942  0.00  0.00    +0.000 NA
ATOM      6  C   UNL     1      -0.837  11.879  19.818  0.00  0.00    +0.000 A 
ATOM      7  C   UNL     1      -0.263  13.161  19.986  0.00  0.00    +0.000 A 
ATOM      8  N   UNL     1      -1.022  14.222  20.383  0.00  0.00    +0.000 NA
ATOM      9  C   UNL     1      -2.344  14.017  20.549  0.00  0.00    +0.000 A 
ATOM     10  C   UNL     1      -3.165  15.057  20.970  0.00  0.00    +0.000 A 
ENDROOT
BRANCH   6  11
ATOM     11  C   UNL     1      -0.086  10.640  19.497  0.00  0.00    +0.000 A 
ATOM     12  C   UNL     1       0.352  10.366  18.194  0.00  0.00    +0.000 A 
ATOM     13  C   UNL     1       1.224   9.297  17.927  0.00  0.00    +0.000 A 
ATOM     14  C   UNL     1       1.729   8.484  18.956  0.00  0.00    +0.000 A 
ATOM     15  C   UNL     1       1.226   8.724  20.241  0.00  0.00    +0.000 A 
ATOM     16  C   UNL     1       0.278   9.719  20.486  0.00  0.00    +0.000 A 
BRANCH  14  17
ATOM     17  C   UNL     1       2.722   7.408  18.712  0.00  0.00    +0.000 A 
ATOM     18  C   UNL     1       2.831   6.286  19.555  0.00  0.00    +0.000 A 
ATOM     19  C   UNL     1       3.792   5.294  19.330  0.00  0.00    +0.000 A 
ATOM     20  C   UNL     1       4.655   5.390  18.239  0.00  0.00    +0.000 A 
ATOM     21  C   UNL     1       4.546   6.465  17.374  0.00  0.00    +0.000 A 
ATOM     22  C   UNL     1       3.601   7.466  17.613  0.00  0.00    +0.000 A 
ENDBRANCH  14  17
ENDBRANCH   6  11
BRANCH   7  23
ATOM     23  C   UNL     1       1.174  13.480  19.795  0.00  0.00    +0.000 A 
ATOM     24  C   UNL     1       2.071  13.552  20.887  0.00  0.00    +0.000 A 
ATOM     25  C   UNL     1       3.333  14.131  20.750  0.00  0.00    +0.000 A 
ATOM     26  C   UNL     1       3.765  14.531  19.488  0.00  0.00    +0.000 A 
ATOM     27  C   UNL     1       2.951  14.362  18.369  0.00  0.00    +0.000 A 
ATOM     28  C   UNL     1       1.667  13.837  18.529  0.00  0.00    +0.000 A 
BRANCH  26  29
ATOM     29  S   UNL     1       5.360  15.269  19.319  0.00  0.00    +0.000 S 
ATOM     30  C   UNL     1       5.929  14.582  17.787  0.00  0.00    +0.000 C 
ATOM     31  O   UNL     1       5.186  16.699  19.137  0.00  0.00    +0.000 OA
ATOM     32  O   UNL     1       6.202  14.753  20.382  0.00  0.00    +0.000 OA
ENDBRANCH  26  29
ENDBRANCH   7  23
BRANCH   1  34
ATOM     33  C   UNL     1      -5.261  16.249  22.932  0.00  0.00    +0.000 C 
ATOM     34  O   UNL     1      -5.221  16.006  21.530  0.00  0.00    +0.000 OA
ENDBRANCH   1  34
TORSDOF 5
ENDMDL
MODEL 8
REMARK VINA RESULT:      -7.4      7.917     11.914
REMARK  Name = 
REMARK  7 active torsions:
REMARK  status: ('A' for Active; 'I' for Inactive)
REMARK    1  A    between atoms: C_1  and  O_2
REMARK    2  A    between atoms: O_2  and  C_3
REMARK    3  A    between atoms: C_8  and  C_9
REMARK    4  A    between atoms: C_12  and  C_13
REMARK    5  A    between atoms: C_21  and  C_22
REMARK    6  A    between atoms: C_25  and  S_26
REMARK    7  A    between atoms: S_26  and  C_27
REMARK                            x       y       z     vdW  Elec       q    Type
REMARK                         _______ _______ _______ _____ _____    ______ ____
ROOT
ATOM      1  C   UNL     1      -3.953  14.484  21.070  0.00  0.00    +0.000 A 
ATOM      2  C   UNL     1      -4.423  13.209  20.774  0.00  0.00    +0.000 A 
ATOM      3  C   UNL     1      -3.525  12.221  20.366  0.00  0.00    +0.000 A 
ATOM      4  C   UNL     1      -2.168  12.481  20.244  0.00  0.00    +0.000 A 
ATOM      5  N   UNL     1      -1.346  11.486  19.882  0.00  0.00    +0.000 NA
ATOM      6  C   UNL     1      -0.019  11.772  19.770  0.00  0.00    +0.000 A 
ATOM      7  C   UNL     1       0.455  13.092  19.955  0.00  0.00    +0.000 A 
ATOM      8  N   UNL     1      -0.384  14.088  20.356  0.00  0.00    +0.000 NA
ATOM      9  C   UNL     1      -1.688  13.782  20.511  0.00  0.00    +0.000 A 
ATOM     10  C   UNL     1      -2.588  14.753  20.935  0.00  0.00    +0.000 A 
ENDROOT
BRANCH   6  11
ATOM     11  C   UNL     1       0.826  10.596  19.443  0.00  0.00    +0.000 A 
ATOM     12  C   UNL     1       0.974   9.529  20.340  0.00  0.00    +0.000 A 
ATOM     13  C   UNL     1       1.611   8.337  19.956  0.00  0.00    +0.000 A 
ATOM     14  C   UNL     1       2.088   8.145  18.648  0.00  0.00    +0.000 A 
ATOM     15  C   UNL     1       1.998   9.245  17.786  0.00  0.00    +0.000 A 
ATOM     16  C   UNL     1       1.460  10.464  18.202  0.00  0.00    +0.000 A 
BRANCH  14  17
ATOM     17  C   UNL     1       2.681   6.862  18.193  0.00  0.00    +0.000 A 
ATOM     18  C   UNL     1       2.060   5.624  18.438  0.00  0.00    +0.000 A 
ATOM     19  C   UNL     1       2.645   4.419  18.029  0.00  0.00    +0.000 A 
ATOM     20  C   UNL     1       3.859   4.429  17.342  0.00  0.00    +0.000 A 
ATOM     21  C   UNL     1       4.473   5.636  17.057  0.00  0.00    +0.000 A 
ATOM     22  C   UNL     1       3.899   6.835  17.487  0.00  0.00    +0.000 A 
ENDBRANCH  14  17
ENDBRANCH   6  11
BRANCH   7  23
ATOM     23  C   UNL     1       1.865  13.520  19.778  0.00  0.00    +0.000 A 
ATOM     24  C   UNL     1       2.703  13.798  20.884  0.00  0.00    +0.000 A 
ATOM     25  C   UNL     1       3.912  14.473  20.725  0.00  0.00    +0.000 A 
ATOM     26  C   UNL     1       4.364  14.767  19.440  0.00  0.00    +0.000 A 
ATOM     27  C   UNL     1       3.619  14.398  18.321  0.00  0.00    +0.000 A 
ATOM     28  C   UNL     1       2.381  13.777  18.497  0.00  0.00    +0.000 A 
BRANCH  26  29
ATOM     29  S   UNL     1       5.893  15.627  19.241  0.00  0.00    +0.000 S 
ATOM     30  C   UNL     1       6.399  15.882  20.921  0.00  0.00    +0.000 C 
ATOM     31  O   UNL     1       6.845  14.728  18.613  0.00  0.00    +0.000 OA
ATOM     32  O   UNL     1       5.601  16.923  18.658  0.00  0.00    +0.000 OA
ENDBRANCH  26  29
ENDBRANCH   7  23
BRANCH   1  34
ATOM     33  C   UNL     1      -5.286  16.361  20.478  0.00  0.00    +0.000 C 
ATOM     34  O   UNL     1      -4.713  15.539  21.489  0.00  0.00    +0.000 OA
ENDBRANCH   1  34
TORSDOF 5
ENDMDL
MODEL 9
REMARK VINA RESULT:      -7.4      7.714     11.652
REMARK  Name = 
REMARK  7 active torsions:
REMARK  status: ('A' for Active; 'I' for Inactive)
REMARK    1  A    between atoms: C_1  and  O_2
REMARK    2  A    between atoms: O_2  and  C_3
REMARK    3  A    between atoms: C_8  and  C_9
REMARK    4  A    between atoms: C_12  and  C_13
REMARK    5  A    between atoms: C_21  and  C_22
REMARK    6  A    between atoms: C_25  and  S_26
REMARK    7  A    between atoms: S_26  and  C_27
REMARK                            x       y       z     vdW  Elec       q    Type
REMARK                         _______ _______ _______ _____ _____    ______ ____
ROOT
ATOM      1  C   UNL     1      -4.247  13.929  20.489  0.00  0.00    +0.000 A 
ATOM      2  C   UNL     1      -4.634  12.641  20.138  0.00  0.00    +0.000 A 
ATOM      3  C   UNL     1      -3.663  11.701  19.789  0.00  0.00    +0.000 A 
ATOM      4  C   UNL     1      -2.313  12.022  19.779  0.00  0.00    +0.000 A 
ATOM      5  N   UNL     1      -1.421  11.070  19.469  0.00  0.00    +0.000 NA
ATOM      6  C   UNL     1      -0.104  11.417  19.468  0.00  0.00    +0.000 A 
ATOM      7  C   UNL     1       0.294  12.753  19.709  0.00  0.00    +0.000 A 
ATOM      8  N   UNL     1      -0.618  13.704  20.057  0.00  0.00    +0.000 NA
ATOM      9  C   UNL     1      -1.915  13.338  20.102  0.00  0.00    +0.000 A 
ATOM     10  C   UNL     1      -2.889  14.260  20.468  0.00  0.00    +0.000 A 
ENDROOT
BRANCH   6  11
ATOM     11  C   UNL     1       0.816  10.285  19.192  0.00  0.00    +0.000 A 
ATOM     12  C   UNL     1       1.040   9.277  20.139  0.00  0.00    +0.000 A 
ATOM     13  C   UNL     1       1.754   8.112  19.808  0.00  0.00    +0.000 A 
ATOM     14  C   UNL     1       2.236   7.888  18.508  0.00  0.00    +0.000 A 
ATOM     15  C   UNL     1       2.068   8.935  17.593  0.00  0.00    +0.000 A 
ATOM     16  C   UNL     1       1.452  10.134  17.954  0.00  0.00    +0.000 A 
BRANCH  14  17
ATOM     17  C   UNL     1       2.912   6.626  18.111  0.00  0.00    +0.000 A 
ATOM     18  C   UNL     1       4.175   6.619  17.492  0.00  0.00    +0.000 A 
ATOM     19  C   UNL     1       4.788   5.424  17.096  0.00  0.00    +0.000 A 
ATOM     20  C   UNL     1       4.157   4.203  17.332  0.00  0.00    +0.000 A 
ATOM     21  C   UNL     1       2.930   4.180  17.972  0.00  0.00    +0.000 A 
ATOM     22  C   UNL     1       2.310   5.375  18.345  0.00  0.00    +0.000 A 
ENDBRANCH  14  17
ENDBRANCH   6  11
BRANCH   7  23
ATOM     23  C   UNL     1       1.693  13.246  19.651  0.00  0.00    +0.000 A 
ATOM     24  C   UNL     1       2.427  13.540  20.824  0.00  0.00    +0.000 A 
ATOM     25  C   UNL     1       3.614  14.270  20.771  0.00  0.00    +0.000 A 
ATOM     26  C   UNL     1       4.152  14.607  19.531  0.00  0.00    +0.000 A 
ATOM     27  C   UNL     1       3.515  14.226  18.351  0.00  0.00    +0.000 A 
ATOM     28  C   UNL     1       2.296  13.548  18.418  0.00  0.00    +0.000 A 
BRANCH  26  29
ATOM     29  S   UNL     1       5.651  15.537  19.467  0.00  0.00    +0.000 S 
ATOM     30  C   UNL     1       6.391  14.949  17.968  0.00  0.00    +0.000 C 
ATOM     31  O   UNL     1       5.313  16.937  19.287  0.00  0.00    +0.000 OA
ATOM     32  O   UNL     1       6.484  15.111  20.576  0.00  0.00    +0.000 OA
ENDBRANCH  26  29
ENDBRANCH   7  23
BRANCH   1  34
ATOM     33  C   UNL     1      -4.549  15.930  21.736  0.00  0.00    +0.000 C 
ATOM     34  O   UNL     1      -5.085  14.942  20.862  0.00  0.00    +0.000 OA
ENDBRANCH   1  34
TORSDOF 5
ENDMDL
