MODEL 1
REMARK VINA RESULT:      -6.2      0.000      0.000
REMARK  Name = 
REMARK  6 active torsions:
REMARK  status: ('A' for Active; 'I' for Inactive)
REMARK    1  A    between atoms: C_1  and  O_2
REMARK    2  A    between atoms: O_2  and  C_3
REMARK    3  A    between atoms: C_6  and  O_7
REMARK    4  A    between atoms: O_7  and  C_8
REMARK    5  A    between atoms: C_8  and  C_9
REMARK    6  A    between atoms: C_9  and  N_10
REMARK                            x       y       z     vdW  Elec       q    Type
REMARK                         _______ _______ _______ _____ _____    ______ ____
ROOT
ATOM      1  O   UNL     1       3.592   3.768  16.924  0.00  0.00    +0.000 OA
ENDROOT
BRANCH   1   5
ATOM      2  C   UNL     1       6.874   6.357  16.736  0.00  0.00    +0.000 A 
ATOM      3  C   UNL     1       5.651   6.849  17.173  0.00  0.00    +0.000 A 
ATOM      4  C   UNL     1       4.543   6.013  17.259  0.00  0.00    +0.000 A 
ATOM      5  C   UNL     1       4.633   4.668  16.887  0.00  0.00    +0.000 A 
ATOM      6  C   UNL     1       5.859   4.176  16.433  0.00  0.00    +0.000 A 
ATOM      7  C   UNL     1       6.981   5.019  16.355  0.00  0.00    +0.000 A 
BRANCH   2   9
ATOM      8  C   UNL     1       7.832   8.296  17.678  0.00  0.00    +0.000 C 
ATOM      9  O   UNL     1       7.875   7.287  16.678  0.00  0.00    +0.000 OA
ENDBRANCH   2   9
ENDBRANCH   1   5
BRANCH   1  10
ATOM     10  C   UNL     1       3.872   2.599  17.707  0.00  0.00    +0.000 C 
BRANCH  10  11
ATOM     11  C   UNL     1       3.947   2.910  19.206  0.00  0.00    +0.000 C 
BRANCH  11  12
ATOM     12  N   UNL     1       2.955   2.142  19.989  0.00  0.00    +0.000 NA
ATOM     13  C   UNL     1       2.639   2.741  21.309  0.00  0.00    +0.000 C 
ATOM     14  C   UNL     1       1.881   4.081  21.224  0.00  0.00    +0.000 C 
ATOM     15  N   UNL     1       0.631   3.969  20.462  0.00  0.00    +0.000 NA
ATOM     16  C   UNL     1       0.857   3.319  19.162  0.00  0.00    +0.000 C 
ATOM     17  C   UNL     1       1.680   2.010  19.251  0.00  0.00    +0.000 C 
ATOM     18  H   UNL     1       0.235   4.897  20.316  0.00  0.00    +0.000 HD
ENDBRANCH  11  12
ENDBRANCH  10  11
ENDBRANCH   1  10
TORSDOF 5
ENDMDL
MODEL 2
REMARK VINA RESULT:      -6.1      0.135      1.172
REMARK  Name = 
REMARK  6 active torsions:
REMARK  status: ('A' for Active; 'I' for Inactive)
REMARK    1  A    between atoms: C_1  and  O_2
REMARK    2  A    between atoms: O_2  and  C_3
REMARK    3  A    between atoms: C_6  and  O_7
REMARK    4  A    between atoms: O_7  and  C_8
REMARK    5  A    between atoms: C_8  and  C_9
REMARK    6  A    between atoms: C_9  and  N_10
REMARK                            x       y       z     vdW  Elec       q    Type
REMARK                         _______ _______ _______ _____ _____    ______ ____
ROOT
ATOM      1  O   UNL     1       3.536   3.759  16.841  0.00  0.00    +0.000 OA
ENDROOT
BRANCH   1   5
ATOM      2  C   UNL     1       6.735   6.456  16.801  0.00  0.00    +0.000 A 
ATOM      3  C   UNL     1       6.947   5.152  16.371  0.00  0.00    +0.000 A 
ATOM      4  C   UNL     1       5.904   4.233  16.360  0.00  0.00    +0.000 A 
ATOM      5  C   UNL     1       4.627   4.598  16.802  0.00  0.00    +0.000 A 
ATOM      6  C   UNL     1       4.417   5.905  17.247  0.00  0.00    +0.000 A 
ATOM      7  C   UNL     1       5.470   6.835  17.249  0.00  0.00    +0.000 A 
BRANCH   2   9
ATOM      8  C   UNL     1       7.834   8.347  17.685  0.00  0.00    +0.000 C 
ATOM      9  O   UNL     1       7.848   7.250  16.781  0.00  0.00    +0.000 OA
ENDBRANCH   2   9
ENDBRANCH   1   5
BRANCH   1  10
ATOM     10  C   UNL     1       3.756   2.565  17.604  0.00  0.00    +0.000 C 
BRANCH  10  11
ATOM     11  C   UNL     1       3.905   2.855  19.102  0.00  0.00    +0.000 C 
BRANCH  11  12
ATOM     12  N   UNL     1       2.906   2.131  19.917  0.00  0.00    +0.000 NA
ATOM     13  C   UNL     1       2.693   2.713  21.264  0.00  0.00    +0.000 C 
ATOM     14  C   UNL     1       2.018   4.100  21.247  0.00  0.00    +0.000 C 
ATOM     15  N   UNL     1       0.727   4.085  20.546  0.00  0.00    +0.000 NA
ATOM     16  C   UNL     1       0.849   3.456  19.222  0.00  0.00    +0.000 C 
ATOM     17  C   UNL     1       1.591   2.097  19.240  0.00  0.00    +0.000 C 
ATOM     18  H   UNL     1       0.384   5.039  20.441  0.00  0.00    +0.000 HD
ENDBRANCH  11  12
ENDBRANCH  10  11
ENDBRANCH   1  10
TORSDOF 5
ENDMDL
MODEL 3
REMARK VINA RESULT:      -6.1      1.245      1.353
REMARK  Name = 
REMARK  6 active torsions:
REMARK  status: ('A' for Active; 'I' for Inactive)
REMARK    1  A    between atoms: C_1  and  O_2
REMARK    2  A    between atoms: O_2  and  C_3
REMARK    3  A    between atoms: C_6  and  O_7
REMARK    4  A    between atoms: O_7  and  C_8
REMARK    5  A    between atoms: C_8  and  C_9
REMARK    6  A    between atoms: C_9  and  N_10
REMARK                            x       y       z     vdW  Elec       q    Type
REMARK                         _______ _______ _______ _____ _____    ______ ____
ROOT
ATOM      1  O   UNL     1       5.133   3.830  16.668  0.00  0.00    +0.000 OA
ENDROOT
BRANCH   1   5
ATOM      2  C   UNL     1       7.631   6.849  18.136  0.00  0.00    +0.000 A 
ATOM      3  C   UNL     1       6.651   7.176  17.207  0.00  0.00    +0.000 A 
ATOM      4  C   UNL     1       5.796   6.200  16.707  0.00  0.00    +0.000 A 
ATOM      5  C   UNL     1       5.921   4.867  17.114  0.00  0.00    +0.000 A 
ATOM      6  C   UNL     1       6.915   4.535  18.036  0.00  0.00    +0.000 A 
ATOM      7  C   UNL     1       7.772   5.524  18.548  0.00  0.00    +0.000 A 
BRANCH   2   9
ATOM      8  C   UNL     1       8.124   9.145  17.914  0.00  0.00    +0.000 C 
ATOM      9  O   UNL     1       8.416   7.897  18.529  0.00  0.00    +0.000 OA
ENDBRANCH   2   9
ENDBRANCH   1   5
BRANCH   1  10
ATOM     10  C   UNL     1       3.791   3.871  17.170  0.00  0.00    +0.000 C 
BRANCH  10  11
ATOM     11  C   UNL     1       3.747   3.956  18.701  0.00  0.00    +0.000 C 
BRANCH  11  12
ATOM     12  N   UNL     1       3.338   2.678  19.323  0.00  0.00    +0.000 NA
ATOM     13  C   UNL     1       2.984   2.796  20.758  0.00  0.00    +0.000 C 
ATOM     14  C   UNL     1       1.698   3.605  21.022  0.00  0.00    +0.000 C 
ATOM     15  N   UNL     1       0.537   3.058  20.308  0.00  0.00    +0.000 NA
ATOM     16  C   UNL     1       0.839   2.849  18.884  0.00  0.00    +0.000 C 
ATOM     17  C   UNL     1       2.168   2.098  18.629  0.00  0.00    +0.000 C 
ATOM     18  H   UNL     1      -0.253   3.695  20.401  0.00  0.00    +0.000 HD
ENDBRANCH  11  12
ENDBRANCH  10  11
ENDBRANCH   1  10
TORSDOF 5
ENDMDL
MODEL 4
REMARK VINA RESULT:      -6.1      1.636      2.419
REMARK  Name = 
REMARK  6 active torsions:
REMARK  status: ('A' for Active; 'I' for Inactive)
REMARK    1  A    between atoms: C_1  and  O_2
REMARK    2  A    between atoms: O_2  and  C_3
REMARK    3  A    between atoms: C_6  and  O_7
REMARK    4  A    between atoms: O_7  and  C_8
REMARK    5  A    between atoms: C_8  and  C_9
REMARK    6  A    between atoms: C_9  and  N_10
REMARK                            x       y       z     vdW  Elec       q    Type
REMARK                         _______ _______ _______ _____ _____    ______ ____
ROOT
ATOM      1  O   UNL     1       6.146   3.955  18.394  0.00  0.00    +0.000 OA
ENDROOT
BRANCH   1   5
ATOM      2  C   UNL     1       7.649   7.822  17.847  0.00  0.00    +0.000 A 
ATOM      3  C   UNL     1       6.577   7.399  17.071  0.00  0.00    +0.000 A 
ATOM      4  C   UNL     1       6.045   6.125  17.235  0.00  0.00    +0.000 A 
ATOM      5  C   UNL     1       6.593   5.237  18.168  0.00  0.00    +0.000 A 
ATOM      6  C   UNL     1       7.681   5.656  18.937  0.00  0.00    +0.000 A 
ATOM      7  C   UNL     1       8.212   6.948  18.777  0.00  0.00    +0.000 A 
BRANCH   2   9
ATOM      8  C   UNL     1       8.848   9.709  18.597  0.00  0.00    +0.000 C 
ATOM      9  O   UNL     1       8.088   9.087  17.570  0.00  0.00    +0.000 OA
ENDBRANCH   2   9
ENDBRANCH   1   5
BRANCH   1  10
ATOM     10  C   UNL     1       5.052   3.882  19.317  0.00  0.00    +0.000 C 
BRANCH  10  11
ATOM     11  C   UNL     1       3.792   3.289  18.677  0.00  0.00    +0.000 C 
BRANCH  11  12
ATOM     12  N   UNL     1       2.672   4.256  18.641  0.00  0.00    +0.000 NA
ATOM     13  C   UNL     1       1.402   3.684  18.134  0.00  0.00    +0.000 C 
ATOM     14  C   UNL     1       0.771   2.631  19.069  0.00  0.00    +0.000 C 
ATOM     15  N   UNL     1       0.529   3.156  20.419  0.00  0.00    +0.000 NA
ATOM     16  C   UNL     1       1.734   3.802  20.962  0.00  0.00    +0.000 C 
ATOM     17  C   UNL     1       2.400   4.805  19.988  0.00  0.00    +0.000 C 
ATOM     18  H   UNL     1       0.242   2.397  21.035  0.00  0.00    +0.000 HD
ENDBRANCH  11  12
ENDBRANCH  10  11
ENDBRANCH   1  10
TORSDOF 5
ENDMDL
MODEL 5
REMARK VINA RESULT:      -6.0      1.450      1.996
REMARK  Name = 
REMARK  6 active torsions:
REMARK  status: ('A' for Active; 'I' for Inactive)
REMARK    1  A    between atoms: C_1  and  O_2
REMARK    2  A    between atoms: O_2  and  C_3
REMARK    3  A    between atoms: C_6  and  O_7
REMARK    4  A    between atoms: O_7  and  C_8
REMARK    5  A    between atoms: C_8  and  C_9
REMARK    6  A    between atoms: C_9  and  N_10
REMARK                            x       y       z     vdW  Elec       q    Type
REMARK                         _______ _______ _______ _____ _____    ______ ____
ROOT
ATOM      1  O   UNL     1       5.194   3.484  17.876  0.00  0.00    +0.000 OA
ENDROOT
BRANCH   1   5
ATOM      2  C   UNL     1       6.850   7.287  17.322  0.00  0.00    +0.000 A 
ATOM      3  C   UNL     1       7.552   6.347  18.066  0.00  0.00    +0.000 A 
ATOM      4  C   UNL     1       7.037   5.070  18.260  0.00  0.00    +0.000 A 
ATOM      5  C   UNL     1       5.793   4.715  17.729  0.00  0.00    +0.000 A 
ATOM      6  C   UNL     1       5.079   5.664  16.993  0.00  0.00    +0.000 A 
ATOM      7  C   UNL     1       5.605   6.951  16.790  0.00  0.00    +0.000 A 
BRANCH   2   9
ATOM      8  C   UNL     1       8.416   8.795  18.236  0.00  0.00    +0.000 C 
ATOM      9  O   UNL     1       7.458   8.508  17.226  0.00  0.00    +0.000 OA
ENDBRANCH   2   9
ENDBRANCH   1   5
BRANCH   1  10
ATOM     10  C   UNL     1       3.982   3.340  17.125  0.00  0.00    +0.000 C 
BRANCH  10  11
ATOM     11  C   UNL     1       2.958   2.451  17.841  0.00  0.00    +0.000 C 
BRANCH  11  12
ATOM     12  N   UNL     1       1.597   3.029  17.815  0.00  0.00    +0.000 NA
ATOM     13  C   UNL     1       0.708   2.520  18.887  0.00  0.00    +0.000 C 
ATOM     14  C   UNL     1       1.121   2.962  20.306  0.00  0.00    +0.000 C 
ATOM     15  N   UNL     1       1.202   4.423  20.435  0.00  0.00    +0.000 NA
ATOM     16  C   UNL     1       2.017   5.007  19.359  0.00  0.00    +0.000 C 
ATOM     17  C   UNL     1       1.641   4.502  17.944  0.00  0.00    +0.000 C 
ATOM     18  H   UNL     1       1.606   4.664  21.339  0.00  0.00    +0.000 HD
ENDBRANCH  11  12
ENDBRANCH  10  11
ENDBRANCH   1  10
TORSDOF 5
ENDMDL
MODEL 6
REMARK VINA RESULT:      -6.0      1.522      1.922
REMARK  Name = 
REMARK  6 active torsions:
REMARK  status: ('A' for Active; 'I' for Inactive)
REMARK    1  A    between atoms: C_1  and  O_2
REMARK    2  A    between atoms: O_2  and  C_3
REMARK    3  A    between atoms: C_6  and  O_7
REMARK    4  A    between atoms: O_7  and  C_8
REMARK    5  A    between atoms: C_8  and  C_9
REMARK    6  A    between atoms: C_9  and  N_10
REMARK                            x       y       z     vdW  Elec       q    Type
REMARK                         _______ _______ _______ _____ _____    ______ ____
ROOT
ATOM      1  O   UNL     1       5.335   3.954  17.234  0.00  0.00    +0.000 OA
ENDROOT
BRANCH   1   5
ATOM      2  C   UNL     1       7.790   7.201  18.202  0.00  0.00    +0.000 A 
ATOM      3  C   UNL     1       7.825   6.066  19.003  0.00  0.00    +0.000 A 
ATOM      4  C   UNL     1       7.031   4.965  18.703  0.00  0.00    +0.000 A 
ATOM      5  C   UNL     1       6.167   4.986  17.604  0.00  0.00    +0.000 A 
ATOM      6  C   UNL     1       6.120   6.132  16.806  0.00  0.00    +0.000 A 
ATOM      7  C   UNL     1       6.930   7.242  17.104  0.00  0.00    +0.000 A 
BRANCH   2   9
ATOM      8  C   UNL     1       8.374   9.478  18.001  0.00  0.00    +0.000 C 
ATOM      9  O   UNL     1       8.602   8.219  18.620  0.00  0.00    +0.000 OA
ENDBRANCH   2   9
ENDBRANCH   1   5
BRANCH   1  10
ATOM     10  C   UNL     1       4.071   4.390  16.718  0.00  0.00    +0.000 C 
BRANCH  10  11
ATOM     11  C   UNL     1       2.991   4.447  17.804  0.00  0.00    +0.000 C 
BRANCH  11  12
ATOM     12  N   UNL     1       3.181   3.409  18.840  0.00  0.00    +0.000 NA
ATOM     13  C   UNL     1       2.898   3.878  20.219  0.00  0.00    +0.000 C 
ATOM     14  C   UNL     1       1.411   4.196  20.479  0.00  0.00    +0.000 C 
ATOM     15  N   UNL     1       0.537   3.051  20.198  0.00  0.00    +0.000 NA
ATOM     16  C   UNL     1       0.811   2.488  18.866  0.00  0.00    +0.000 C 
ATOM     17  C   UNL     1       2.313   2.238  18.588  0.00  0.00    +0.000 C 
ATOM     18  H   UNL     1      -0.438   3.344  20.251  0.00  0.00    +0.000 HD
ENDBRANCH  11  12
ENDBRANCH  10  11
ENDBRANCH   1  10
TORSDOF 5
ENDMDL
MODEL 7
REMARK VINA RESULT:      -6.0      1.466      1.825
REMARK  Name = 
REMARK  6 active torsions:
REMARK  status: ('A' for Active; 'I' for Inactive)
REMARK    1  A    between atoms: C_1  and  O_2
REMARK    2  A    between atoms: O_2  and  C_3
REMARK    3  A    between atoms: C_6  and  O_7
REMARK    4  A    between atoms: O_7  and  C_8
REMARK    5  A    between atoms: C_8  and  C_9
REMARK    6  A    between atoms: C_9  and  N_10
REMARK                            x       y       z     vdW  Elec       q    Type
REMARK                         _______ _______ _______ _____ _____    ______ ____
ROOT
ATOM      1  O   UNL     1       5.213   3.518  17.894  0.00  0.00    +0.000 OA
ENDROOT
BRANCH   1   5
ATOM      2  C   UNL     1       6.989   7.283  17.472  0.00  0.00    +0.000 A 
ATOM      3  C   UNL     1       5.781   7.031  16.834  0.00  0.00    +0.000 A 
ATOM      4  C   UNL     1       5.157   5.796  16.963  0.00  0.00    +0.000 A 
ATOM      5  C   UNL     1       5.745   4.775  17.718  0.00  0.00    +0.000 A 
ATOM      6  C   UNL     1       6.967   5.022  18.347  0.00  0.00    +0.000 A 
ATOM      7  C   UNL     1       7.592   6.274  18.225  0.00  0.00    +0.000 A 
BRANCH   2   9
ATOM      8  C   UNL     1       8.406   9.007  18.235  0.00  0.00    +0.000 C 
ATOM      9  O   UNL     1       7.504   8.529  17.246  0.00  0.00    +0.000 OA
ENDBRANCH   2   9
ENDBRANCH   1   5
BRANCH   1  10
ATOM     10  C   UNL     1       3.990   3.305  17.176  0.00  0.00    +0.000 C 
BRANCH  10  11
ATOM     11  C   UNL     1       2.974   2.496  17.990  0.00  0.00    +0.000 C 
BRANCH  11  12
ATOM     12  N   UNL     1       1.618   3.085  17.939  0.00  0.00    +0.000 NA
ATOM     13  C   UNL     1       0.710   2.594  19.004  0.00  0.00    +0.000 C 
ATOM     14  C   UNL     1       1.107   3.048  20.424  0.00  0.00    +0.000 C 
ATOM     15  N   UNL     1       1.199   4.509  20.539  0.00  0.00    +0.000 NA
ATOM     16  C   UNL     1       2.033   5.075  19.468  0.00  0.00    +0.000 C 
ATOM     17  C   UNL     1       1.672   4.559  18.054  0.00  0.00    +0.000 C 
ATOM     18  H   UNL     1       1.592   4.756  21.446  0.00  0.00    +0.000 HD
ENDBRANCH  11  12
ENDBRANCH  10  11
ENDBRANCH   1  10
TORSDOF 5
ENDMDL
MODEL 8
REMARK VINA RESULT:      -6.0      2.059      2.938
REMARK  Name = 
REMARK  6 active torsions:
REMARK  status: ('A' for Active; 'I' for Inactive)
REMARK    1  A    between atoms: C_1  and  O_2
REMARK    2  A    between atoms: O_2  and  C_3
REMARK    3  A    between atoms: C_6  and  O_7
REMARK    4  A    between atoms: O_7  and  C_8
REMARK    5  A    between atoms: C_8  and  C_9
REMARK    6  A    between atoms: C_9  and  N_10
REMARK                            x       y       z     vdW  Elec       q    Type
REMARK                         _______ _______ _______ _____ _____    ______ ____
ROOT
ATOM      1  O   UNL     1       5.555   5.971  18.782  0.00  0.00    +0.000 OA
ENDROOT
BRANCH   1   5
ATOM      2  C   UNL     1       6.617   4.903  14.878  0.00  0.00    +0.000 A 
ATOM      3  C   UNL     1       5.530   5.746  15.075  0.00  0.00    +0.000 A 
ATOM      4  C   UNL     1       5.157   6.131  16.358  0.00  0.00    +0.000 A 
ATOM      5  C   UNL     1       5.854   5.658  17.475  0.00  0.00    +0.000 A 
ATOM      6  C   UNL     1       6.938   4.799  17.279  0.00  0.00    +0.000 A 
ATOM      7  C   UNL     1       7.320   4.419  15.981  0.00  0.00    +0.000 A 
BRANCH   2   9
ATOM      8  C   UNL     1       6.025   3.583  13.015  0.00  0.00    +0.000 C 
ATOM      9  O   UNL     1       6.863   4.587  13.571  0.00  0.00    +0.000 OA
ENDBRANCH   2   9
ENDBRANCH   1   5
BRANCH   1  10
ATOM     10  C   UNL     1       5.071   4.856  19.543  0.00  0.00    +0.000 C 
BRANCH  10  11
ATOM     11  C   UNL     1       3.544   4.728  19.476  0.00  0.00    +0.000 C 
BRANCH  11  12
ATOM     12  N   UNL     1       3.039   3.602  20.291  0.00  0.00    +0.000 NA
ATOM     13  C   UNL     1       1.579   3.375  20.162  0.00  0.00    +0.000 C 
ATOM     14  C   UNL     1       1.144   2.869  18.771  0.00  0.00    +0.000 C 
ATOM     15  N   UNL     1       1.835   1.632  18.385  0.00  0.00    +0.000 NA
ATOM     16  C   UNL     1       3.291   1.761  18.554  0.00  0.00    +0.000 C 
ATOM     17  C   UNL     1       3.714   2.337  19.928  0.00  0.00    +0.000 C 
ATOM     18  H   UNL     1       1.622   1.410  17.414  0.00  0.00    +0.000 HD
ENDBRANCH  11  12
ENDBRANCH  10  11
ENDBRANCH   1  10
TORSDOF 5
ENDMDL
MODEL 9
REMARK VINA RESULT:      -6.0      0.969      1.125
REMARK  Name = 
REMARK  6 active torsions:
REMARK  status: ('A' for Active; 'I' for Inactive)
REMARK    1  A    between atoms: C_1  and  O_2
REMARK    2  A    between atoms: O_2  and  C_3
REMARK    3  A    between atoms: C_6  and  O_7
REMARK    4  A    between atoms: O_7  and  C_8
REMARK    5  A    between atoms: C_8  and  C_9
REMARK    6  A    between atoms: C_9  and  N_10
REMARK                            x       y       z     vdW  Elec       q    Type
REMARK                         _______ _______ _______ _____ _____    ______ ____
ROOT
ATOM      1  O   UNL     1       3.483   3.473  16.576  0.00  0.00    +0.000 OA
ENDROOT
BRANCH   1   5
ATOM      2  C   UNL     1       6.799   6.024  16.624  0.00  0.00    +0.000 A 
ATOM      3  C   UNL     1       5.548   6.538  16.940  0.00  0.00    +0.000 A 
ATOM      4  C   UNL     1       4.427   5.716  16.946  0.00  0.00    +0.000 A 
ATOM      5  C   UNL     1       4.533   4.362  16.611  0.00  0.00    +0.000 A 
ATOM      6  C   UNL     1       5.788   3.847  16.278  0.00  0.00    +0.000 A 
ATOM      7  C   UNL     1       6.923   4.677  16.282  0.00  0.00    +0.000 A 
BRANCH   2   9
ATOM      8  C   UNL     1       7.728   7.935  17.649  0.00  0.00    +0.000 C 
ATOM      9  O   UNL     1       7.812   6.942  16.635  0.00  0.00    +0.000 OA
ENDBRANCH   2   9
ENDBRANCH   1   5
BRANCH   1  10
ATOM     10  C   UNL     1       3.520   2.496  17.624  0.00  0.00    +0.000 C 
BRANCH  10  11
ATOM     11  C   UNL     1       2.210   2.449  18.419  0.00  0.00    +0.000 C 
BRANCH  11  12
ATOM     12  N   UNL     1       2.442   2.394  19.879  0.00  0.00    +0.000 NA
ATOM     13  C   UNL     1       3.593   3.209  20.336  0.00  0.00    +0.000 C 
ATOM     14  C   UNL     1       3.381   4.730  20.192  0.00  0.00    +0.000 C 
ATOM     15  N   UNL     1       2.182   5.197  20.899  0.00  0.00    +0.000 NA
ATOM     16  C   UNL     1       1.007   4.386  20.546  0.00  0.00    +0.000 C 
ATOM     17  C   UNL     1       1.252   2.859  20.625  0.00  0.00    +0.000 C 
ATOM     18  H   UNL     1       2.006   6.173  20.667  0.00  0.00    +0.000 HD
ENDBRANCH  11  12
ENDBRANCH  10  11
ENDBRANCH   1  10
TORSDOF 5
ENDMDL
