MODEL 1
REMARK VINA RESULT:      -7.7      0.000      0.000
REMARK  Name = 
REMARK  8 active torsions:
REMARK  status: ('A' for Active; 'I' for Inactive)
REMARK    1  A    between atoms: C_1  and  C_2
REMARK    2  A    between atoms: C_2  and  N_3
REMARK    3  A    between atoms: C_4  and  C_6
REMARK    4  A    between atoms: C_6  and  C_7
REMARK    5  A    between atoms: C_7  and  C_8
REMARK    6  A    between atoms: C_13  and  C_14
REMARK    7  A    between atoms: C_15  and  C_16
REMARK    8  A    between atoms: C_16  and  C_17
REMARK                            x       y       z     vdW  Elec       q    Type
REMARK                         _______ _______ _______ _____ _____    ______ ____
ROOT
ATOM      1  C   UNL     1       7.998   7.968  18.001  0.00  0.00    +0.000 C 
ATOM      2  O   UNL     1       8.200   7.258  18.977  0.00  0.00    +0.000 OA
ATOM      3  N   UNL     1       7.281   7.643  16.869  0.00  0.00    +0.000 N 
ATOM      4  C   UNL     1       6.623   6.466  16.646  0.00  0.00    +0.000 A 
ATOM      5  N   UNL     1       6.224   6.137  15.441  0.00  0.00    +0.000 NA
ATOM      6  C   UNL     1       5.646   4.875  15.462  0.00  0.00    +0.000 A 
ATOM      7  C   UNL     1       5.264   4.281  14.154  0.00  0.00    +0.000 C 
ATOM      8  C   UNL     1       5.529   4.309  16.724  0.00  0.00    +0.000 A 
ATOM      9  S   UNL     1       6.213   5.381  17.883  0.00  0.00    +0.000 S 
ATOM     10  H   UNL     1       7.372   8.208  16.037  0.00  0.00    +0.000 HD
ENDROOT
BRANCH   1  11
ATOM     11  C   UNL     1       8.581   9.363  17.933  0.00  0.00    +0.000 C 
BRANCH  11  12
ATOM     12  C   UNL     1       9.079   9.817  19.298  0.00  0.00    +0.000 C 
BRANCH  12  14
ATOM     13  N   UNL     1      10.343  11.293  17.870  0.00  0.00    +0.000 N 
ATOM     14  C   UNL     1      10.035  10.982  19.177  0.00  0.00    +0.000 C 
ATOM     15  O   UNL     1      10.497  11.578  20.143  0.00  0.00    +0.000 OA
ATOM     16  H   UNL     1       9.984  10.713  17.123  0.00  0.00    +0.000 HD
BRANCH  13  18
ATOM     17  C   UNL     1      10.512  13.695  17.376  0.00  0.00    +0.000 C 
ATOM     18  C   UNL     1      11.244  12.374  17.533  0.00  0.00    +0.000 C 
ENDBRANCH  13  18
ENDBRANCH  12  14
ENDBRANCH  11  12
ENDBRANCH   1  11
BRANCH   8  19
ATOM     19  C   UNL     1       4.965   2.990  17.166  0.00  0.00    +0.000 C 
BRANCH  19  20
ATOM     20  C   UNL     1       3.706   3.146  17.996  0.00  0.00    +0.000 A 
ATOM     21  C   UNL     1       2.530   3.643  17.414  0.00  0.00    +0.000 A 
ATOM     22  C   UNL     1       1.406   3.899  18.199  0.00  0.00    +0.000 A 
ATOM     23  C   UNL     1       1.450   3.646  19.565  0.00  0.00    +0.000 A 
ATOM     24  F   UNL     1       0.382   3.927  20.321  0.00  0.00    +0.000 F 
ATOM     25  C   UNL     1       2.588   3.111  20.156  0.00  0.00    +0.000 A 
ATOM     26  C   UNL     1       3.716   2.859  19.372  0.00  0.00    +0.000 A 
ENDBRANCH  19  20
ENDBRANCH   8  19
TORSDOF 6
ENDMDL
MODEL 2
REMARK VINA RESULT:      -7.7      4.321      7.232
REMARK  Name = 
REMARK  8 active torsions:
REMARK  status: ('A' for Active; 'I' for Inactive)
REMARK    1  A    between atoms: C_1  and  C_2
REMARK    2  A    between atoms: C_2  and  N_3
REMARK    3  A    between atoms: C_4  and  C_6
REMARK    4  A    between atoms: C_6  and  C_7
REMARK    5  A    between atoms: C_7  and  C_8
REMARK    6  A    between atoms: C_13  and  C_14
REMARK    7  A    between atoms: C_15  and  C_16
REMARK    8  A    between atoms: C_16  and  C_17
REMARK                            x       y       z     vdW  Elec       q    Type
REMARK                         _______ _______ _______ _____ _____    ______ ____
ROOT
ATOM      1  C   UNL     1       6.274   4.379  13.758  0.00  0.00    +0.000 C 
ATOM      2  O   UNL     1       5.053   4.393  13.842  0.00  0.00    +0.000 OA
ATOM      3  N   UNL     1       7.182   4.527  14.785  0.00  0.00    +0.000 N 
ATOM      4  C   UNL     1       6.877   4.678  16.109  0.00  0.00    +0.000 A 
ATOM      5  N   UNL     1       7.780   5.102  16.962  0.00  0.00    +0.000 NA
ATOM      6  C   UNL     1       7.213   5.237  18.222  0.00  0.00    +0.000 A 
ATOM      7  C   UNL     1       8.058   5.844  19.284  0.00  0.00    +0.000 C 
ATOM      8  C   UNL     1       5.896   4.810  18.316  0.00  0.00    +0.000 A 
ATOM      9  S   UNL     1       5.365   4.282  16.767  0.00  0.00    +0.000 S 
ATOM     10  H   UNL     1       8.148   4.731  14.576  0.00  0.00    +0.000 HD
ENDROOT
BRANCH   1  11
ATOM     11  C   UNL     1       6.948   4.209  12.414  0.00  0.00    +0.000 C 
BRANCH  11  12
ATOM     12  C   UNL     1       7.035   2.740  12.024  0.00  0.00    +0.000 C 
BRANCH  12  14
ATOM     13  N   UNL     1       4.789   3.242  11.306  0.00  0.00    +0.000 N 
ATOM     14  C   UNL     1       5.736   2.247  11.429  0.00  0.00    +0.000 C 
ATOM     15  O   UNL     1       5.543   1.082  11.103  0.00  0.00    +0.000 OA
ATOM     16  H   UNL     1       4.990   4.167  11.662  0.00  0.00    +0.000 HD
BRANCH  13  18
ATOM     17  C   UNL     1       3.044   4.053   9.775  0.00  0.00    +0.000 C 
ATOM     18  C   UNL     1       3.474   2.981  10.761  0.00  0.00    +0.000 C 
ENDBRANCH  13  18
ENDBRANCH  12  14
ENDBRANCH  11  12
ENDBRANCH   1  11
BRANCH   8  19
ATOM     19  C   UNL     1       4.949   4.782  19.481  0.00  0.00    +0.000 C 
BRANCH  19  20
ATOM     20  C   UNL     1       3.669   4.030  19.172  0.00  0.00    +0.000 A 
ATOM     21  C   UNL     1       2.612   4.673  18.511  0.00  0.00    +0.000 A 
ATOM     22  C   UNL     1       1.392   4.022  18.330  0.00  0.00    +0.000 A 
ATOM     23  C   UNL     1       1.230   2.723  18.797  0.00  0.00    +0.000 A 
ATOM     24  F   UNL     1       0.046   2.115  18.654  0.00  0.00    +0.000 F 
ATOM     25  C   UNL     1       2.277   2.051  19.414  0.00  0.00    +0.000 A 
ATOM     26  C   UNL     1       3.498   2.702  19.600  0.00  0.00    +0.000 A 
ENDBRANCH  19  20
ENDBRANCH   8  19
TORSDOF 6
ENDMDL
MODEL 3
REMARK VINA RESULT:      -7.6      5.973      9.011
REMARK  Name = 
REMARK  8 active torsions:
REMARK  status: ('A' for Active; 'I' for Inactive)
REMARK    1  A    between atoms: C_1  and  C_2
REMARK    2  A    between atoms: C_2  and  N_3
REMARK    3  A    between atoms: C_4  and  C_6
REMARK    4  A    between atoms: C_6  and  C_7
REMARK    5  A    between atoms: C_7  and  C_8
REMARK    6  A    between atoms: C_13  and  C_14
REMARK    7  A    between atoms: C_15  and  C_16
REMARK    8  A    between atoms: C_16  and  C_17
REMARK                            x       y       z     vdW  Elec       q    Type
REMARK                         _______ _______ _______ _____ _____    ______ ____
ROOT
ATOM      1  C   UNL     1       3.990   6.246  17.892  0.00  0.00    +0.000 C 
ATOM      2  O   UNL     1       4.280   7.061  17.027  0.00  0.00    +0.000 OA
ATOM      3  N   UNL     1       3.094   6.413  18.927  0.00  0.00    +0.000 N 
ATOM      4  C   UNL     1       2.325   7.521  19.152  0.00  0.00    +0.000 A 
ATOM      5  N   UNL     1       1.732   7.703  20.308  0.00  0.00    +0.000 NA
ATOM      6  C   UNL     1       1.072   8.924  20.314  0.00  0.00    +0.000 A 
ATOM      7  C   UNL     1       0.461   9.360  21.597  0.00  0.00    +0.000 C 
ATOM      8  C   UNL     1       1.100   9.606  19.105  0.00  0.00    +0.000 A 
ATOM      9  S   UNL     1       2.022   8.699  17.971  0.00  0.00    +0.000 S 
ATOM     10  H   UNL     1       3.104   5.773  19.708  0.00  0.00    +0.000 HD
ENDROOT
BRANCH   1  11
ATOM     11  C   UNL     1       4.657   4.889  17.921  0.00  0.00    +0.000 C 
BRANCH  11  12
ATOM     12  C   UNL     1       3.881   3.876  17.091  0.00  0.00    +0.000 C 
BRANCH  12  14
ATOM     13  N   UNL     1       2.712   2.714  18.851  0.00  0.00    +0.000 N 
ATOM     14  C   UNL     1       2.564   3.521  17.743  0.00  0.00    +0.000 C 
ATOM     15  O   UNL     1       1.479   3.902  17.321  0.00  0.00    +0.000 OA
ATOM     16  H   UNL     1       3.632   2.376  19.102  0.00  0.00    +0.000 HD
BRANCH  13  18
ATOM     17  C   UNL     1       1.300   3.149  20.816  0.00  0.00    +0.000 C 
ATOM     18  C   UNL     1       1.575   2.255  19.620  0.00  0.00    +0.000 C 
ENDBRANCH  13  18
ENDBRANCH  12  14
ENDBRANCH  11  12
ENDBRANCH   1  11
BRANCH   8  19
ATOM     19  C   UNL     1       0.510  10.927  18.704  0.00  0.00    +0.000 C 
BRANCH  19  20
ATOM     20  C   UNL     1      -0.975  10.836  18.413  0.00  0.00    +0.000 A 
ATOM     21  C   UNL     1      -1.454   9.941  17.445  0.00  0.00    +0.000 A 
ATOM     22  C   UNL     1      -2.804   9.939  17.091  0.00  0.00    +0.000 A 
ATOM     23  C   UNL     1      -3.679  10.821  17.713  0.00  0.00    +0.000 A 
ATOM     24  F   UNL     1      -4.966  10.840  17.345  0.00  0.00    +0.000 F 
ATOM     25  C   UNL     1      -3.236  11.684  18.707  0.00  0.00    +0.000 A 
ATOM     26  C   UNL     1      -1.884  11.692  19.059  0.00  0.00    +0.000 A 
ENDBRANCH  19  20
ENDBRANCH   8  19
TORSDOF 6
ENDMDL
MODEL 4
REMARK VINA RESULT:      -7.5      5.628      7.926
REMARK  Name = 
REMARK  8 active torsions:
REMARK  status: ('A' for Active; 'I' for Inactive)
REMARK    1  A    between atoms: C_1  and  C_2
REMARK    2  A    between atoms: C_2  and  N_3
REMARK    3  A    between atoms: C_4  and  C_6
REMARK    4  A    between atoms: C_6  and  C_7
REMARK    5  A    between atoms: C_7  and  C_8
REMARK    6  A    between atoms: C_13  and  C_14
REMARK    7  A    between atoms: C_15  and  C_16
REMARK    8  A    between atoms: C_16  and  C_17
REMARK                            x       y       z     vdW  Elec       q    Type
REMARK                         _______ _______ _______ _____ _____    ______ ____
ROOT
ATOM      1  C   UNL     1       1.737   9.085  18.389  0.00  0.00    +0.000 C 
ATOM      2  O   UNL     1       2.229   8.816  17.301  0.00  0.00    +0.000 OA
ATOM      3  N   UNL     1       1.682   8.273  19.502  0.00  0.00    +0.000 N 
ATOM      4  C   UNL     1       2.213   7.018  19.606  0.00  0.00    +0.000 A 
ATOM      5  N   UNL     1       1.860   6.219  20.586  0.00  0.00    +0.000 NA
ATOM      6  C   UNL     1       2.479   4.985  20.436  0.00  0.00    +0.000 A 
ATOM      7  C   UNL     1       2.083   3.908  21.381  0.00  0.00    +0.000 C 
ATOM      8  C   UNL     1       3.379   4.910  19.381  0.00  0.00    +0.000 A 
ATOM      9  S   UNL     1       3.391   6.414  18.547  0.00  0.00    +0.000 S 
ATOM     10  H   UNL     1       1.056   8.502  20.260  0.00  0.00    +0.000 HD
ENDROOT
BRANCH   1  11
ATOM     11  C   UNL     1       1.072  10.424  18.619  0.00  0.00    +0.000 C 
BRANCH  11  12
ATOM     12  C   UNL     1      -0.133  10.289  19.539  0.00  0.00    +0.000 C 
BRANCH  12  14
ATOM     13  N   UNL     1      -1.810   9.845  17.864  0.00  0.00    +0.000 N 
ATOM     14  C   UNL     1      -1.407  10.721  18.849  0.00  0.00    +0.000 C 
ATOM     15  O   UNL     1      -2.009  11.751  19.129  0.00  0.00    +0.000 OA
ATOM     16  H   UNL     1      -1.227   9.050  17.635  0.00  0.00    +0.000 HD
BRANCH  13  18
ATOM     17  C   UNL     1      -2.688  10.697  15.732  0.00  0.00    +0.000 C 
ATOM     18  C   UNL     1      -3.004  10.073  17.079  0.00  0.00    +0.000 C 
ENDBRANCH  13  18
ENDBRANCH  12  14
ENDBRANCH  11  12
ENDBRANCH   1  11
BRANCH   8  19
ATOM     19  C   UNL     1       4.241   3.779  18.899  0.00  0.00    +0.000 C 
BRANCH  19  20
ATOM     20  C   UNL     1       5.113   4.174  17.724  0.00  0.00    +0.000 A 
ATOM     21  C   UNL     1       4.635   4.045  16.411  0.00  0.00    +0.000 A 
ATOM     22  C   UNL     1       5.474   4.294  15.325  0.00  0.00    +0.000 A 
ATOM     23  C   UNL     1       6.788   4.687  15.549  0.00  0.00    +0.000 A 
ATOM     24  F   UNL     1       7.601   4.890  14.505  0.00  0.00    +0.000 F 
ATOM     25  C   UNL     1       7.271   4.865  16.839  0.00  0.00    +0.000 A 
ATOM     26  C   UNL     1       6.433   4.611  17.928  0.00  0.00    +0.000 A 
ENDBRANCH  19  20
ENDBRANCH   8  19
TORSDOF 6
ENDMDL
MODEL 5
REMARK VINA RESULT:      -7.4      0.602      1.037
REMARK  Name = 
REMARK  8 active torsions:
REMARK  status: ('A' for Active; 'I' for Inactive)
REMARK    1  A    between atoms: C_1  and  C_2
REMARK    2  A    between atoms: C_2  and  N_3
REMARK    3  A    between atoms: C_4  and  C_6
REMARK    4  A    between atoms: C_6  and  C_7
REMARK    5  A    between atoms: C_7  and  C_8
REMARK    6  A    between atoms: C_13  and  C_14
REMARK    7  A    between atoms: C_15  and  C_16
REMARK    8  A    between atoms: C_16  and  C_17
REMARK                            x       y       z     vdW  Elec       q    Type
REMARK                         _______ _______ _______ _____ _____    ______ ____
ROOT
ATOM      1  C   UNL     1       8.220   8.323  18.162  0.00  0.00    +0.000 C 
ATOM      2  O   UNL     1       8.536   7.623  19.114  0.00  0.00    +0.000 OA
ATOM      3  N   UNL     1       7.385   7.983  17.119  0.00  0.00    +0.000 N 
ATOM      4  C   UNL     1       6.718   6.798  16.979  0.00  0.00    +0.000 A 
ATOM      5  N   UNL     1       6.191   6.456  15.827  0.00  0.00    +0.000 NA
ATOM      6  C   UNL     1       5.632   5.189  15.920  0.00  0.00    +0.000 A 
ATOM      7  C   UNL     1       5.112   4.582  14.667  0.00  0.00    +0.000 C 
ATOM      8  C   UNL     1       5.662   4.632  17.191  0.00  0.00    +0.000 A 
ATOM      9  S   UNL     1       6.459   5.719  18.261  0.00  0.00    +0.000 S 
ATOM     10  H   UNL     1       7.377   8.543  16.279  0.00  0.00    +0.000 HD
ENDROOT
BRANCH   1  11
ATOM     11  C   UNL     1       8.778   9.722  18.021  0.00  0.00    +0.000 C 
BRANCH  11  12
ATOM     12  C   UNL     1       9.291  10.247  19.355  0.00  0.00    +0.000 C 
BRANCH  12  14
ATOM     13  N   UNL     1      10.625  11.562  17.837  0.00  0.00    +0.000 N 
ATOM     14  C   UNL     1      10.400  11.256  19.162  0.00  0.00    +0.000 C 
ATOM     15  O   UNL     1      11.039  11.741  20.089  0.00  0.00    +0.000 OA
ATOM     16  H   UNL     1      10.110  11.070  17.118  0.00  0.00    +0.000 HD
BRANCH  13  18
ATOM     17  C   UNL     1      11.057  13.847  17.041  0.00  0.00    +0.000 C 
ATOM     18  C   UNL     1      11.647  12.504  17.433  0.00  0.00    +0.000 C 
ENDBRANCH  13  18
ENDBRANCH  12  14
ENDBRANCH  11  12
ENDBRANCH   1  11
BRANCH   8  19
ATOM     19  C   UNL     1       5.163   3.311  17.702  0.00  0.00    +0.000 C 
BRANCH  19  20
ATOM     20  C   UNL     1       3.795   3.417  18.347  0.00  0.00    +0.000 A 
ATOM     21  C   UNL     1       3.662   3.925  19.647  0.00  0.00    +0.000 A 
ATOM     22  C   UNL     1       2.423   3.914  20.288  0.00  0.00    +0.000 A 
ATOM     23  C   UNL     1       1.312   3.407  19.625  0.00  0.00    +0.000 A 
ATOM     24  F   UNL     1       0.132   3.364  20.256  0.00  0.00    +0.000 F 
ATOM     25  C   UNL     1       1.410   2.940  18.321  0.00  0.00    +0.000 A 
ATOM     26  C   UNL     1       2.651   2.946  17.679  0.00  0.00    +0.000 A 
ENDBRANCH  19  20
ENDBRANCH   8  19
TORSDOF 6
ENDMDL
MODEL 6
REMARK VINA RESULT:      -7.4      5.971      9.044
REMARK  Name = 
REMARK  8 active torsions:
REMARK  status: ('A' for Active; 'I' for Inactive)
REMARK    1  A    between atoms: C_1  and  C_2
REMARK    2  A    between atoms: C_2  and  N_3
REMARK    3  A    between atoms: C_4  and  C_6
REMARK    4  A    between atoms: C_6  and  C_7
REMARK    5  A    between atoms: C_7  and  C_8
REMARK    6  A    between atoms: C_13  and  C_14
REMARK    7  A    between atoms: C_15  and  C_16
REMARK    8  A    between atoms: C_16  and  C_17
REMARK                            x       y       z     vdW  Elec       q    Type
REMARK                         _______ _______ _______ _____ _____    ______ ____
ROOT
ATOM      1  C   UNL     1       3.903   6.232  17.921  0.00  0.00    +0.000 C 
ATOM      2  O   UNL     1       4.219   7.033  17.052  0.00  0.00    +0.000 OA
ATOM      3  N   UNL     1       3.012   6.433  18.955  0.00  0.00    +0.000 N 
ATOM      4  C   UNL     1       2.280   7.566  19.174  0.00  0.00    +0.000 A 
ATOM      5  N   UNL     1       1.692   7.772  20.329  0.00  0.00    +0.000 NA
ATOM      6  C   UNL     1       1.072   9.015  20.328  0.00  0.00    +0.000 A 
ATOM      7  C   UNL     1       0.475   9.476  21.609  0.00  0.00    +0.000 C 
ATOM      8  C   UNL     1       1.123   9.690  19.116  0.00  0.00    +0.000 A 
ATOM      9  S   UNL     1       2.016   8.747  17.987  0.00  0.00    +0.000 S 
ATOM     10  H   UNL     1       3.001   5.797  19.738  0.00  0.00    +0.000 HD
ENDROOT
BRANCH   1  11
ATOM     11  C   UNL     1       4.526   4.854  17.957  0.00  0.00    +0.000 C 
BRANCH  11  12
ATOM     12  C   UNL     1       3.607   3.818  17.323  0.00  0.00    +0.000 C 
BRANCH  12  14
ATOM     13  N   UNL     1       2.099   3.232  19.111  0.00  0.00    +0.000 N 
ATOM     14  C   UNL     1       3.150   2.792  18.334  0.00  0.00    +0.000 C 
ATOM     15  O   UNL     1       3.670   1.689  18.457  0.00  0.00    +0.000 OA
ATOM     16  H   UNL     1       1.766   4.181  19.005  0.00  0.00    +0.000 HD
BRANCH  13  18
ATOM     17  C   UNL     1       2.006   2.786  21.527  0.00  0.00    +0.000 C 
ATOM     18  C   UNL     1       1.512   2.404  20.143  0.00  0.00    +0.000 C 
ENDBRANCH  13  18
ENDBRANCH  12  14
ENDBRANCH  11  12
ENDBRANCH   1  11
BRANCH   8  19
ATOM     19  C   UNL     1       0.577  11.027  18.708  0.00  0.00    +0.000 C 
BRANCH  19  20
ATOM     20  C   UNL     1      -0.901  10.975  18.375  0.00  0.00    +0.000 A 
ATOM     21  C   UNL     1      -1.797  11.867  18.982  0.00  0.00    +0.000 A 
ATOM     22  C   UNL     1      -3.170  11.745  18.769  0.00  0.00    +0.000 A 
ATOM     23  C   UNL     1      -3.649  10.740  17.938  0.00  0.00    +0.000 A 
ATOM     24  F   UNL     1      -4.970  10.603  17.765  0.00  0.00    +0.000 F 
ATOM     25  C   UNL     1      -2.779   9.872  17.291  0.00  0.00    +0.000 A 
ATOM     26  C   UNL     1      -1.404   9.990  17.507  0.00  0.00    +0.000 A 
ENDBRANCH  19  20
ENDBRANCH   8  19
TORSDOF 6
ENDMDL
MODEL 7
REMARK VINA RESULT:      -7.4      1.063      1.241
REMARK  Name = 
REMARK  8 active torsions:
REMARK  status: ('A' for Active; 'I' for Inactive)
REMARK    1  A    between atoms: C_1  and  C_2
REMARK    2  A    between atoms: C_2  and  N_3
REMARK    3  A    between atoms: C_4  and  C_6
REMARK    4  A    between atoms: C_6  and  C_7
REMARK    5  A    between atoms: C_7  and  C_8
REMARK    6  A    between atoms: C_13  and  C_14
REMARK    7  A    between atoms: C_15  and  C_16
REMARK    8  A    between atoms: C_16  and  C_17
REMARK                            x       y       z     vdW  Elec       q    Type
REMARK                         _______ _______ _______ _____ _____    ______ ____
ROOT
ATOM      1  C   UNL     1       8.078   7.338  18.453  0.00  0.00    +0.000 C 
ATOM      2  O   UNL     1       8.082   6.525  19.367  0.00  0.00    +0.000 OA
ATOM      3  N   UNL     1       7.491   7.193  17.213  0.00  0.00    +0.000 N 
ATOM      4  C   UNL     1       6.762   6.117  16.791  0.00  0.00    +0.000 A 
ATOM      5  N   UNL     1       6.499   5.942  15.517  0.00  0.00    +0.000 NA
ATOM      6  C   UNL     1       5.809   4.751  15.337  0.00  0.00    +0.000 A 
ATOM      7  C   UNL     1       5.551   4.321  13.937  0.00  0.00    +0.000 C 
ATOM      8  C   UNL     1       5.474   4.088  16.510  0.00  0.00    +0.000 A 
ATOM      9  S   UNL     1       6.093   4.973  17.849  0.00  0.00    +0.000 S 
ATOM     10  H   UNL     1       7.743   7.819  16.462  0.00  0.00    +0.000 HD
ENDROOT
BRANCH   1  11
ATOM     11  C   UNL     1       8.791   8.663  18.602  0.00  0.00    +0.000 C 
BRANCH  11  12
ATOM     12  C   UNL     1       8.138   9.739  17.744  0.00  0.00    +0.000 C 
BRANCH  12  14
ATOM     13  N   UNL     1      10.057  10.971  18.526  0.00  0.00    +0.000 N 
ATOM     14  C   UNL     1       8.827  11.074  17.913  0.00  0.00    +0.000 C 
ATOM     15  O   UNL     1       8.334  12.137  17.554  0.00  0.00    +0.000 OA
ATOM     16  H   UNL     1      10.372  10.071  18.863  0.00  0.00    +0.000 HD
BRANCH  13  18
ATOM     17  C   UNL     1      11.861  11.892  19.920  0.00  0.00    +0.000 C 
ATOM     18  C   UNL     1      10.881  12.133  18.786  0.00  0.00    +0.000 C 
ENDBRANCH  13  18
ENDBRANCH  12  14
ENDBRANCH  11  12
ENDBRANCH   1  11
BRANCH   8  19
ATOM     19  C   UNL     1       4.736   2.801  16.740  0.00  0.00    +0.000 C 
BRANCH  19  20
ATOM     20  C   UNL     1       3.543   2.972  17.659  0.00  0.00    +0.000 A 
ATOM     21  C   UNL     1       2.490   3.828  17.304  0.00  0.00    +0.000 A 
ATOM     22  C   UNL     1       1.450   4.079  18.198  0.00  0.00    +0.000 A 
ATOM     23  C   UNL     1       1.452   3.464  19.444  0.00  0.00    +0.000 A 
ATOM     24  F   UNL     1       0.471   3.735  20.314  0.00  0.00    +0.000 F 
ATOM     25  C   UNL     1       2.460   2.578  19.801  0.00  0.00    +0.000 A 
ATOM     26  C   UNL     1       3.506   2.329  18.909  0.00  0.00    +0.000 A 
ENDBRANCH  19  20
ENDBRANCH   8  19
TORSDOF 6
ENDMDL
MODEL 8
REMARK VINA RESULT:      -7.3      7.883      9.472
REMARK  Name = 
REMARK  8 active torsions:
REMARK  status: ('A' for Active; 'I' for Inactive)
REMARK    1  A    between atoms: C_1  and  C_2
REMARK    2  A    between atoms: C_2  and  N_3
REMARK    3  A    between atoms: C_4  and  C_6
REMARK    4  A    between atoms: C_6  and  C_7
REMARK    5  A    between atoms: C_7  and  C_8
REMARK    6  A    between atoms: C_13  and  C_14
REMARK    7  A    between atoms: C_15  and  C_16
REMARK    8  A    between atoms: C_16  and  C_17
REMARK                            x       y       z     vdW  Elec       q    Type
REMARK                         _______ _______ _______ _____ _____    ______ ____
ROOT
ATOM      1  C   UNL     1      -0.688  10.571  22.751  0.00  0.00    +0.000 C 
ATOM      2  O   UNL     1      -0.012  10.014  23.605  0.00  0.00    +0.000 OA
ATOM      3  N   UNL     1      -0.581  10.434  21.383  0.00  0.00    +0.000 N 
ATOM      4  C   UNL     1       0.287   9.607  20.726  0.00  0.00    +0.000 A 
ATOM      5  N   UNL     1       0.518   9.760  19.443  0.00  0.00    +0.000 NA
ATOM      6  C   UNL     1       1.480   8.851  19.025  0.00  0.00    +0.000 A 
ATOM      7  C   UNL     1       1.969   8.975  17.626  0.00  0.00    +0.000 C 
ATOM      8  C   UNL     1       1.889   7.948  19.997  0.00  0.00    +0.000 A 
ATOM      9  S   UNL     1       1.074   8.303  21.470  0.00  0.00    +0.000 S 
ATOM     10  H   UNL     1      -1.024  11.106  20.775  0.00  0.00    +0.000 HD
ENDROOT
BRANCH   1  11
ATOM     11  C   UNL     1      -1.768  11.553  23.149  0.00  0.00    +0.000 C 
BRANCH  11  12
ATOM     12  C   UNL     1      -2.173  12.431  21.973  0.00  0.00    +0.000 C 
BRANCH  12  14
ATOM     13  N   UNL     1      -4.093  13.271  20.780  0.00  0.00    +0.000 N 
ATOM     14  C   UNL     1      -3.669  12.648  21.934  0.00  0.00    +0.000 C 
ATOM     15  O   UNL     1      -4.422  12.314  22.841  0.00  0.00    +0.000 OA
ATOM     16  H   UNL     1      -3.409  13.585  20.104  0.00  0.00    +0.000 HD
BRANCH  13  18
ATOM     17  C   UNL     1      -5.788  15.051  20.732  0.00  0.00    +0.000 C 
ATOM     18  C   UNL     1      -5.488  13.574  20.543  0.00  0.00    +0.000 C 
ENDBRANCH  13  18
ENDBRANCH  12  14
ENDBRANCH  11  12
ENDBRANCH   1  11
BRANCH   8  19
ATOM     19  C   UNL     1       2.884   6.825  19.944  0.00  0.00    +0.000 C 
BRANCH  19  20
ATOM     20  C   UNL     1       2.243   5.498  19.588  0.00  0.00    +0.000 A 
ATOM     21  C   UNL     1       2.201   5.066  18.254  0.00  0.00    +0.000 A 
ATOM     22  C   UNL     1       1.510   3.905  17.908  0.00  0.00    +0.000 A 
ATOM     23  C   UNL     1       0.871   3.166  18.896  0.00  0.00    +0.000 A 
ATOM     24  F   UNL     1       0.178   2.072  18.556  0.00  0.00    +0.000 F 
ATOM     25  C   UNL     1       0.937   3.549  20.230  0.00  0.00    +0.000 A 
ATOM     26  C   UNL     1       1.625   4.714  20.577  0.00  0.00    +0.000 A 
ENDBRANCH  19  20
ENDBRANCH   8  19
TORSDOF 6
ENDMDL
MODEL 9
REMARK VINA RESULT:      -7.3      5.672      7.925
REMARK  Name = 
REMARK  8 active torsions:
REMARK  status: ('A' for Active; 'I' for Inactive)
REMARK    1  A    between atoms: C_1  and  C_2
REMARK    2  A    between atoms: C_2  and  N_3
REMARK    3  A    between atoms: C_4  and  C_6
REMARK    4  A    between atoms: C_6  and  C_7
REMARK    5  A    between atoms: C_7  and  C_8
REMARK    6  A    between atoms: C_13  and  C_14
REMARK    7  A    between atoms: C_15  and  C_16
REMARK    8  A    between atoms: C_16  and  C_17
REMARK                            x       y       z     vdW  Elec       q    Type
REMARK                         _______ _______ _______ _____ _____    ______ ____
ROOT
ATOM      1  C   UNL     1       1.834   9.056  18.319  0.00  0.00    +0.000 C 
ATOM      2  O   UNL     1       2.212   8.739  17.199  0.00  0.00    +0.000 OA
ATOM      3  N   UNL     1       1.825   8.266  19.450  0.00  0.00    +0.000 N 
ATOM      4  C   UNL     1       2.283   6.981  19.534  0.00  0.00    +0.000 A 
ATOM      5  N   UNL     1       1.967   6.222  20.557  0.00  0.00    +0.000 NA
ATOM      6  C   UNL     1       2.492   4.949  20.380  0.00  0.00    +0.000 A 
ATOM      7  C   UNL     1       2.113   3.914  21.377  0.00  0.00    +0.000 C 
ATOM      8  C   UNL     1       3.290   4.799  19.254  0.00  0.00    +0.000 A 
ATOM      9  S   UNL     1       3.325   6.287  18.390  0.00  0.00    +0.000 S 
ATOM     10  H   UNL     1       1.283   8.547  20.254  0.00  0.00    +0.000 HD
ENDROOT
BRANCH   1  11
ATOM     11  C   UNL     1       1.277  10.439  18.578  0.00  0.00    +0.000 C 
BRANCH  11  12
ATOM     12  C   UNL     1      -0.196  10.375  18.961  0.00  0.00    +0.000 C 
BRANCH  12  14
ATOM     13  N   UNL     1      -1.703  10.395  17.079  0.00  0.00    +0.000 N 
ATOM     14  C   UNL     1      -1.050  11.179  18.006  0.00  0.00    +0.000 C 
ATOM     15  O   UNL     1      -1.140  12.400  18.047  0.00  0.00    +0.000 OA
ATOM     16  H   UNL     1      -1.527   9.400  17.056  0.00  0.00    +0.000 HD
BRANCH  13  18
ATOM     17  C   UNL     1      -4.032  10.905  16.476  0.00  0.00    +0.000 C 
ATOM     18  C   UNL     1      -2.570  10.967  16.071  0.00  0.00    +0.000 C 
ENDBRANCH  13  18
ENDBRANCH  12  14
ENDBRANCH  11  12
ENDBRANCH   1  11
BRANCH   8  19
ATOM     19  C   UNL     1       4.034   3.609  18.723  0.00  0.00    +0.000 C 
BRANCH  19  20
ATOM     20  C   UNL     1       5.027   3.980  17.639  0.00  0.00    +0.000 A 
ATOM     21  C   UNL     1       6.284   4.501  17.977  0.00  0.00    +0.000 A 
ATOM     22  C   UNL     1       7.153   4.953  16.983  0.00  0.00    +0.000 A 
ATOM     23  C   UNL     1       6.771   4.873  15.649  0.00  0.00    +0.000 A 
ATOM     24  F   UNL     1       7.592   5.342  14.701  0.00  0.00    +0.000 F 
ATOM     25  C   UNL     1       5.550   4.320  15.288  0.00  0.00    +0.000 A 
ATOM     26  C   UNL     1       4.677   3.871  16.281  0.00  0.00    +0.000 A 
ENDBRANCH  19  20
ENDBRANCH   8  19
TORSDOF 6
ENDMDL
