MODEL 1
REMARK VINA RESULT:      -7.2      0.000      0.000
REMARK  Name = 
REMARK  14 active torsions:
REMARK  status: ('A' for Active; 'I' for Inactive)
REMARK    1  A    between atoms: C_1  and  C_2
REMARK    2  A    between atoms: C_2  and  C_4
REMARK    3  A    between atoms: C_7  and  C_8
REMARK    4  A    between atoms: C_9  and  C_10
REMARK    5  A    between atoms: C_10  and  C_11
REMARK    6  A    between atoms: C_10  and  C_12
REMARK    7  A    between atoms: C_15  and  C_16
REMARK    8  A    between atoms: C_16  and  C_17
REMARK    9  A    between atoms: C_19  and  C_20
REMARK   10  A    between atoms: C_20  and  C_21
REMARK   11  A    between atoms: C_25  and  C_26
REMARK   12  A    between atoms: C_25  and  C_27
REMARK   13  A    between atoms: C_29  and  C_30
REMARK   14  A    between atoms: C_30  and  C_31
REMARK                            x       y       z     vdW  Elec       q    Type
REMARK                         _______ _______ _______ _____ _____    ______ ____
ROOT
ATOM      1  C   UNL     1       0.949   9.794  19.809  0.00  0.00    +0.000 C 
ATOM      2  C   UNL     1       0.999   8.889  20.816  0.00  0.00    +0.000 C 
ATOM      3  C   UNL     1       1.538   7.669  20.226  0.00  0.00    +0.000 A 
ATOM      4  C   UNL     1       1.399   6.399  20.743  0.00  0.00    +0.000 A 
ATOM      5  C   UNL     1       2.046   5.324  20.161  0.00  0.00    +0.000 A 
ATOM      6  C   UNL     1       2.894   5.560  19.062  0.00  0.00    +0.000 A 
ATOM      7  C   UNL     1       2.938   6.869  18.469  0.00  0.00    +0.000 A 
ATOM      8  C   UNL     1       2.183   7.905  19.024  0.00  0.00    +0.000 A 
ATOM      9  C   UNL     1       1.602   9.223  18.491  0.00  0.00    +0.000 C 
ATOM     10  C   UNL     1       0.549   8.750  17.455  0.00  0.00    +0.000 C 
ATOM     11  C   UNL     1       2.538  10.216  17.798  0.00  0.00    +0.000 C 
ENDROOT
BRANCH   1  15
ATOM     12  C   UNL     1      -0.340  13.923  19.926  0.00  0.00    +0.000 A 
ATOM     13  C   UNL     1      -1.106  12.964  19.254  0.00  0.00    +0.000 A 
ATOM     14  C   UNL     1      -0.722  11.603  19.253  0.00  0.00    +0.000 A 
ATOM     15  C   UNL     1       0.400  11.163  19.965  0.00  0.00    +0.000 A 
ATOM     16  C   UNL     1       1.132  12.117  20.684  0.00  0.00    +0.000 A 
ATOM     17  C   UNL     1       0.783  13.489  20.648  0.00  0.00    +0.000 A 
BRANCH  12  19
ATOM     18  C   UNL     1      -0.389  16.254  18.779  0.00  0.00    +0.000 C 
ATOM     19  C   UNL     1      -0.767  15.363  19.940  0.00  0.00    +0.000 C 
ATOM     20  O   UNL     1      -1.492  15.771  20.845  0.00  0.00    +0.000 OA
ENDBRANCH  12  19
BRANCH  17  21
ATOM     21  C   UNL     1       1.748  14.449  21.235  0.00  0.00    +0.000 C 
ATOM     22  C   UNL     1       2.802  15.040  20.337  0.00  0.00    +0.000 C 
ATOM     23  O   UNL     1       1.589  14.820  22.396  0.00  0.00    +0.000 OA
ENDBRANCH  17  21
ENDBRANCH   1  15
BRANCH   2  24
ATOM     24  C   UNL     1       0.697   8.816  22.304  0.00  0.00    +0.000 C 
ATOM     25  C   UNL     1       1.894   9.369  23.126  0.00  0.00    +0.000 C 
ATOM     26  C   UNL     1      -0.583   9.446  22.826  0.00  0.00    +0.000 C 
ENDBRANCH   2  24
BRANCH   5  27
ATOM     27  C   UNL     1       1.847   4.047  20.890  0.00  0.00    +0.000 C 
ATOM     28  C   UNL     1       0.959   2.957  20.282  0.00  0.00    +0.000 C 
ATOM     29  O   UNL     1       2.380   3.880  21.977  0.00  0.00    +0.000 OA
ENDBRANCH   5  27
BRANCH   6  30
ATOM     30  C   UNL     1       3.766   4.510  18.446  0.00  0.00    +0.000 C 
ATOM     31  C   UNL     1       3.286   3.704  17.267  0.00  0.00    +0.000 C 
ATOM     32  O   UNL     1       4.897   4.349  18.909  0.00  0.00    +0.000 OA
ENDBRANCH   6  30
TORSDOF 6
ENDMDL
MODEL 2
REMARK VINA RESULT:      -6.9      1.426      2.342
REMARK  Name = 
REMARK  14 active torsions:
REMARK  status: ('A' for Active; 'I' for Inactive)
REMARK    1  A    between atoms: C_1  and  C_2
REMARK    2  A    between atoms: C_2  and  C_4
REMARK    3  A    between atoms: C_7  and  C_8
REMARK    4  A    between atoms: C_9  and  C_10
REMARK    5  A    between atoms: C_10  and  C_11
REMARK    6  A    between atoms: C_10  and  C_12
REMARK    7  A    between atoms: C_15  and  C_16
REMARK    8  A    between atoms: C_16  and  C_17
REMARK    9  A    between atoms: C_19  and  C_20
REMARK   10  A    between atoms: C_20  and  C_21
REMARK   11  A    between atoms: C_25  and  C_26
REMARK   12  A    between atoms: C_25  and  C_27
REMARK   13  A    between atoms: C_29  and  C_30
REMARK   14  A    between atoms: C_30  and  C_31
REMARK                            x       y       z     vdW  Elec       q    Type
REMARK                         _______ _______ _______ _____ _____    ______ ____
ROOT
ATOM      1  C   UNL     1       0.782  10.150  20.016  0.00  0.00    +0.000 C 
ATOM      2  C   UNL     1       0.913   9.194  20.966  0.00  0.00    +0.000 C 
ATOM      3  C   UNL     1       1.432   8.018  20.276  0.00  0.00    +0.000 A 
ATOM      4  C   UNL     1       1.348   6.719  20.731  0.00  0.00    +0.000 A 
ATOM      5  C   UNL     1       1.972   5.690  20.049  0.00  0.00    +0.000 A 
ATOM      6  C   UNL     1       2.741   6.001  18.912  0.00  0.00    +0.000 A 
ATOM      7  C   UNL     1       2.724   7.341  18.390  0.00  0.00    +0.000 A 
ATOM      8  C   UNL     1       1.991   8.331  19.049  0.00  0.00    +0.000 A 
ATOM      9  C   UNL     1       1.355   9.664  18.628  0.00  0.00    +0.000 C 
ATOM     10  C   UNL     1       0.243   9.226  17.640  0.00  0.00    +0.000 C 
ATOM     11  C   UNL     1       2.227  10.711  17.931  0.00  0.00    +0.000 C 
ENDROOT
BRANCH   1  15
ATOM     12  C   UNL     1      -0.938  13.927  21.241  0.00  0.00    +0.000 A 
ATOM     13  C   UNL     1       0.451  13.783  21.144  0.00  0.00    +0.000 A 
ATOM     14  C   UNL     1       1.022  12.570  20.695  0.00  0.00    +0.000 A 
ATOM     15  C   UNL     1       0.222  11.498  20.283  0.00  0.00    +0.000 A 
ATOM     16  C   UNL     1      -1.168  11.666  20.327  0.00  0.00    +0.000 A 
ATOM     17  C   UNL     1      -1.747  12.859  20.823  0.00  0.00    +0.000 A 
BRANCH  12  19
ATOM     18  C   UNL     1      -1.497  15.580  23.167  0.00  0.00    +0.000 C 
ATOM     19  C   UNL     1      -1.537  15.227  21.698  0.00  0.00    +0.000 C 
ATOM     20  O   UNL     1      -1.966  16.022  20.865  0.00  0.00    +0.000 OA
ENDBRANCH  12  19
BRANCH  17  21
ATOM     21  C   UNL     1      -3.211  12.854  21.059  0.00  0.00    +0.000 C 
ATOM     22  C   UNL     1      -3.707  12.621  22.461  0.00  0.00    +0.000 C 
ATOM     23  O   UNL     1      -3.965  13.154  20.135  0.00  0.00    +0.000 OA
ENDBRANCH  17  21
ENDBRANCH   1  15
BRANCH   2  24
ATOM     24  C   UNL     1       0.713   9.035  22.464  0.00  0.00    +0.000 C 
ATOM     25  C   UNL     1       2.005   9.434  23.228  0.00  0.00    +0.000 C 
ATOM     26  C   UNL     1      -0.472   9.721  23.124  0.00  0.00    +0.000 C 
ENDBRANCH   2  24
BRANCH   5  27
ATOM     27  C   UNL     1       1.843   4.373  20.719  0.00  0.00    +0.000 C 
ATOM     28  C   UNL     1       0.860   3.336  20.168  0.00  0.00    +0.000 C 
ATOM     29  O   UNL     1       2.510   4.130  21.715  0.00  0.00    +0.000 OA
ENDBRANCH   5  27
BRANCH   6  30
ATOM     30  C   UNL     1       3.587   5.004  18.184  0.00  0.00    +0.000 C 
ATOM     31  C   UNL     1       2.965   4.011  17.236  0.00  0.00    +0.000 C 
ATOM     32  O   UNL     1       4.807   5.041  18.356  0.00  0.00    +0.000 OA
ENDBRANCH   6  30
TORSDOF 6
ENDMDL
MODEL 3
REMARK VINA RESULT:      -6.9      1.487      2.342
REMARK  Name = 
REMARK  14 active torsions:
REMARK  status: ('A' for Active; 'I' for Inactive)
REMARK    1  A    between atoms: C_1  and  C_2
REMARK    2  A    between atoms: C_2  and  C_4
REMARK    3  A    between atoms: C_7  and  C_8
REMARK    4  A    between atoms: C_9  and  C_10
REMARK    5  A    between atoms: C_10  and  C_11
REMARK    6  A    between atoms: C_10  and  C_12
REMARK    7  A    between atoms: C_15  and  C_16
REMARK    8  A    between atoms: C_16  and  C_17
REMARK    9  A    between atoms: C_19  and  C_20
REMARK   10  A    between atoms: C_20  and  C_21
REMARK   11  A    between atoms: C_25  and  C_26
REMARK   12  A    between atoms: C_25  and  C_27
REMARK   13  A    between atoms: C_29  and  C_30
REMARK   14  A    between atoms: C_30  and  C_31
REMARK                            x       y       z     vdW  Elec       q    Type
REMARK                         _______ _______ _______ _____ _____    ______ ____
ROOT
ATOM      1  C   UNL     1       0.728  10.171  20.045  0.00  0.00    +0.000 C 
ATOM      2  C   UNL     1       0.881   9.206  20.983  0.00  0.00    +0.000 C 
ATOM      3  C   UNL     1       1.408   8.045  20.273  0.00  0.00    +0.000 A 
ATOM      4  C   UNL     1       1.346   6.740  20.714  0.00  0.00    +0.000 A 
ATOM      5  C   UNL     1       1.977   5.727  20.014  0.00  0.00    +0.000 A 
ATOM      6  C   UNL     1       2.730   6.062  18.872  0.00  0.00    +0.000 A 
ATOM      7  C   UNL     1       2.690   7.407  18.367  0.00  0.00    +0.000 A 
ATOM      8  C   UNL     1       1.951   8.379  19.045  0.00  0.00    +0.000 A 
ATOM      9  C   UNL     1       1.292   9.708  18.646  0.00  0.00    +0.000 C 
ATOM     10  C   UNL     1       0.177   9.268  17.663  0.00  0.00    +0.000 C 
ATOM     11  C   UNL     1       2.144  10.775  17.953  0.00  0.00    +0.000 C 
ENDROOT
BRANCH   1  15
ATOM     12  C   UNL     1      -1.014  13.916  21.336  0.00  0.00    +0.000 A 
ATOM     13  C   UNL     1       0.372  13.799  21.180  0.00  0.00    +0.000 A 
ATOM     14  C   UNL     1       0.948  12.596  20.709  0.00  0.00    +0.000 A 
ATOM     15  C   UNL     1       0.153  11.508  20.333  0.00  0.00    +0.000 A 
ATOM     16  C   UNL     1      -1.238  11.648  20.436  0.00  0.00    +0.000 A 
ATOM     17  C   UNL     1      -1.819  12.831  20.954  0.00  0.00    +0.000 A 
BRANCH  12  19
ATOM     18  C   UNL     1      -2.074  16.228  20.800  0.00  0.00    +0.000 C 
ATOM     19  C   UNL     1      -1.619  15.204  21.815  0.00  0.00    +0.000 C 
ATOM     20  O   UNL     1      -1.821  15.368  23.016  0.00  0.00    +0.000 OA
ENDBRANCH  12  19
BRANCH  17  21
ATOM     21  C   UNL     1      -3.271  12.797  21.252  0.00  0.00    +0.000 C 
ATOM     22  C   UNL     1      -4.237  13.054  20.126  0.00  0.00    +0.000 C 
ATOM     23  O   UNL     1      -3.642  12.449  22.371  0.00  0.00    +0.000 OA
ENDBRANCH  17  21
ENDBRANCH   1  15
BRANCH   2  24
ATOM     24  C   UNL     1       0.698   9.027  22.481  0.00  0.00    +0.000 C 
ATOM     25  C   UNL     1       2.013   9.373  23.231  0.00  0.00    +0.000 C 
ATOM     26  C   UNL     1      -0.455   9.737  23.170  0.00  0.00    +0.000 C 
ENDBRANCH   2  24
BRANCH   5  27
ATOM     27  C   UNL     1       1.872   4.400  20.670  0.00  0.00    +0.000 C 
ATOM     28  C   UNL     1       0.962   3.327  20.066  0.00  0.00    +0.000 C 
ATOM     29  O   UNL     1       2.500   4.179  21.695  0.00  0.00    +0.000 OA
ENDBRANCH   5  27
BRANCH   6  30
ATOM     30  C   UNL     1       3.581   5.084  18.125  0.00  0.00    +0.000 C 
ATOM     31  C   UNL     1       5.062   4.989  18.390  0.00  0.00    +0.000 C 
ATOM     32  O   UNL     1       3.032   4.336  17.314  0.00  0.00    +0.000 OA
ENDBRANCH   6  30
TORSDOF 6
ENDMDL
MODEL 4
REMARK VINA RESULT:      -6.6      1.011      1.182
REMARK  Name = 
REMARK  14 active torsions:
REMARK  status: ('A' for Active; 'I' for Inactive)
REMARK    1  A    between atoms: C_1  and  C_2
REMARK    2  A    between atoms: C_2  and  C_4
REMARK    3  A    between atoms: C_7  and  C_8
REMARK    4  A    between atoms: C_9  and  C_10
REMARK    5  A    between atoms: C_10  and  C_11
REMARK    6  A    between atoms: C_10  and  C_12
REMARK    7  A    between atoms: C_15  and  C_16
REMARK    8  A    between atoms: C_16  and  C_17
REMARK    9  A    between atoms: C_19  and  C_20
REMARK   10  A    between atoms: C_20  and  C_21
REMARK   11  A    between atoms: C_25  and  C_26
REMARK   12  A    between atoms: C_25  and  C_27
REMARK   13  A    between atoms: C_29  and  C_30
REMARK   14  A    between atoms: C_30  and  C_31
REMARK                            x       y       z     vdW  Elec       q    Type
REMARK                         _______ _______ _______ _____ _____    ______ ____
ROOT
ATOM      1  C   UNL     1       0.681  10.194  19.952  0.00  0.00    +0.000 C 
ATOM      2  C   UNL     1       0.873   9.196  20.847  0.00  0.00    +0.000 C 
ATOM      3  C   UNL     1       1.483   8.103  20.096  0.00  0.00    +0.000 A 
ATOM      4  C   UNL     1       1.491   6.777  20.473  0.00  0.00    +0.000 A 
ATOM      5  C   UNL     1       2.195   5.838  19.741  0.00  0.00    +0.000 A 
ATOM      6  C   UNL     1       2.949   6.271  18.633  0.00  0.00    +0.000 A 
ATOM      7  C   UNL     1       2.839   7.635  18.191  0.00  0.00    +0.000 A 
ATOM      8  C   UNL     1       2.029   8.528  18.897  0.00  0.00    +0.000 A 
ATOM      9  C   UNL     1       1.300   9.834  18.546  0.00  0.00    +0.000 C 
ATOM     10  C   UNL     1       0.232   9.376  17.519  0.00  0.00    +0.000 C 
ATOM     11  C   UNL     1       2.099  10.981  17.923  0.00  0.00    +0.000 C 
ENDROOT
BRANCH   1  15
ATOM     12  C   UNL     1      -1.009  14.131  20.561  0.00  0.00    +0.000 A 
ATOM     13  C   UNL     1      -1.770  13.122  19.961  0.00  0.00    +0.000 A 
ATOM     14  C   UNL     1      -1.247  11.817  19.805  0.00  0.00    +0.000 A 
ATOM     15  C   UNL     1       0.022  11.479  20.289  0.00  0.00    +0.000 A 
ATOM     16  C   UNL     1       0.759  12.478  20.940  0.00  0.00    +0.000 A 
ATOM     17  C   UNL     1       0.262  13.799  21.056  0.00  0.00    +0.000 A 
BRANCH  12  19
ATOM     18  C   UNL     1      -2.305  15.840  22.028  0.00  0.00    +0.000 C 
ATOM     19  C   UNL     1      -1.581  15.508  20.743  0.00  0.00    +0.000 C 
ATOM     20  O   UNL     1      -1.372  16.368  19.891  0.00  0.00    +0.000 OA
ENDBRANCH  12  19
BRANCH  17  21
ATOM     21  C   UNL     1       1.204  14.837  21.538  0.00  0.00    +0.000 C 
ATOM     22  C   UNL     1       2.086  15.524  20.529  0.00  0.00    +0.000 C 
ATOM     23  O   UNL     1       1.155  15.186  22.716  0.00  0.00    +0.000 OA
ENDBRANCH  17  21
ENDBRANCH   1  15
BRANCH   2  24
ATOM     24  C   UNL     1       0.672   8.934  22.330  0.00  0.00    +0.000 C 
ATOM     25  C   UNL     1       1.933   9.361  23.131  0.00  0.00    +0.000 C 
ATOM     26  C   UNL     1      -0.556   9.508  23.017  0.00  0.00    +0.000 C 
ENDBRANCH   2  24
BRANCH   5  27
ATOM     27  C   UNL     1       2.157   4.477  20.331  0.00  0.00    +0.000 C 
ATOM     28  C   UNL     1       0.865   3.657  20.259  0.00  0.00    +0.000 C 
ATOM     29  O   UNL     1       3.150   4.028  20.883  0.00  0.00    +0.000 OA
ENDBRANCH   5  27
BRANCH   6  30
ATOM     30  C   UNL     1       3.872   5.382  17.860  0.00  0.00    +0.000 C 
ATOM     31  C   UNL     1       5.356   5.642  17.840  0.00  0.00    +0.000 C 
ATOM     32  O   UNL     1       3.388   4.414  17.271  0.00  0.00    +0.000 OA
ENDBRANCH   6  30
TORSDOF 6
ENDMDL
MODEL 5
REMARK VINA RESULT:      -6.4      2.291      8.646
REMARK  Name = 
REMARK  14 active torsions:
REMARK  status: ('A' for Active; 'I' for Inactive)
REMARK    1  A    between atoms: C_1  and  C_2
REMARK    2  A    between atoms: C_2  and  C_4
REMARK    3  A    between atoms: C_7  and  C_8
REMARK    4  A    between atoms: C_9  and  C_10
REMARK    5  A    between atoms: C_10  and  C_11
REMARK    6  A    between atoms: C_10  and  C_12
REMARK    7  A    between atoms: C_15  and  C_16
REMARK    8  A    between atoms: C_16  and  C_17
REMARK    9  A    between atoms: C_19  and  C_20
REMARK   10  A    between atoms: C_20  and  C_21
REMARK   11  A    between atoms: C_25  and  C_26
REMARK   12  A    between atoms: C_25  and  C_27
REMARK   13  A    between atoms: C_29  and  C_30
REMARK   14  A    between atoms: C_30  and  C_31
REMARK                            x       y       z     vdW  Elec       q    Type
REMARK                         _______ _______ _______ _____ _____    ______ ____
ROOT
ATOM      1  C   UNL     1       0.526   9.549  20.417  0.00  0.00    +0.000 C 
ATOM      2  C   UNL     1      -0.189  10.467  19.724  0.00  0.00    +0.000 C 
ATOM      3  C   UNL     1      -1.003  11.164  20.714  0.00  0.00    +0.000 A 
ATOM      4  C   UNL     1      -2.150  11.881  20.447  0.00  0.00    +0.000 A 
ATOM      5  C   UNL     1      -2.785  12.597  21.446  0.00  0.00    +0.000 A 
ATOM      6  C   UNL     1      -2.206  12.625  22.729  0.00  0.00    +0.000 A 
ATOM      7  C   UNL     1      -1.076  11.783  23.015  0.00  0.00    +0.000 A 
ATOM      8  C   UNL     1      -0.530  10.990  22.003  0.00  0.00    +0.000 A 
ATOM      9  C   UNL     1       0.299   9.697  21.972  0.00  0.00    +0.000 C 
ATOM     10  C   UNL     1      -0.680   8.637  22.540  0.00  0.00    +0.000 C 
ATOM     11  C   UNL     1       1.595   9.632  22.784  0.00  0.00    +0.000 C 
ENDROOT
BRANCH   1  15
ATOM     12  C   UNL     1       2.815   6.478  18.403  0.00  0.00    +0.000 A 
ATOM     13  C   UNL     1       2.663   7.742  17.820  0.00  0.00    +0.000 A 
ATOM     14  C   UNL     1       1.961   8.769  18.493  0.00  0.00    +0.000 A 
ATOM     15  C   UNL     1       1.446   8.575  19.779  0.00  0.00    +0.000 A 
ATOM     16  C   UNL     1       1.649   7.327  20.383  0.00  0.00    +0.000 A 
ATOM     17  C   UNL     1       2.306   6.278  19.695  0.00  0.00    +0.000 A 
BRANCH  12  19
ATOM     18  C   UNL     1       5.092   5.429  17.719  0.00  0.00    +0.000 C 
ATOM     19  C   UNL     1       3.581   5.400  17.691  0.00  0.00    +0.000 C 
ATOM     20  O   UNL     1       2.972   4.464  17.177  0.00  0.00    +0.000 OA
ENDBRANCH  12  19
BRANCH  17  21
ATOM     21  C   UNL     1       2.261   4.931  20.313  0.00  0.00    +0.000 C 
ATOM     22  C   UNL     1       0.978   4.147  20.221  0.00  0.00    +0.000 C 
ATOM     23  O   UNL     1       3.295   4.451  20.773  0.00  0.00    +0.000 OA
ENDBRANCH  17  21
ENDBRANCH   1  15
BRANCH   2  24
ATOM     24  C   UNL     1      -0.337  10.959  18.294  0.00  0.00    +0.000 C 
ATOM     25  C   UNL     1      -1.425  10.138  17.549  0.00  0.00    +0.000 C 
ATOM     26  C   UNL     1      -0.591  12.436  18.048  0.00  0.00    +0.000 C 
ENDBRANCH   2  24
BRANCH   5  27
ATOM     27  C   UNL     1      -3.958  13.369  20.967  0.00  0.00    +0.000 C 
ATOM     28  C   UNL     1      -5.337  12.704  20.926  0.00  0.00    +0.000 C 
ATOM     29  O   UNL     1      -3.812  14.524  20.594  0.00  0.00    +0.000 OA
ENDBRANCH   5  27
BRANCH   6  30
ATOM     30  C   UNL     1      -2.708  13.484  23.847  0.00  0.00    +0.000 C 
ATOM     31  C   UNL     1      -3.930  13.087  24.636  0.00  0.00    +0.000 C 
ATOM     32  O   UNL     1      -2.076  14.504  24.124  0.00  0.00    +0.000 OA
ENDBRANCH   6  30
TORSDOF 6
ENDMDL
MODEL 6
REMARK VINA RESULT:      -6.3      2.119      8.750
REMARK  Name = 
REMARK  14 active torsions:
REMARK  status: ('A' for Active; 'I' for Inactive)
REMARK    1  A    between atoms: C_1  and  C_2
REMARK    2  A    between atoms: C_2  and  C_4
REMARK    3  A    between atoms: C_7  and  C_8
REMARK    4  A    between atoms: C_9  and  C_10
REMARK    5  A    between atoms: C_10  and  C_11
REMARK    6  A    between atoms: C_10  and  C_12
REMARK    7  A    between atoms: C_15  and  C_16
REMARK    8  A    between atoms: C_16  and  C_17
REMARK    9  A    between atoms: C_19  and  C_20
REMARK   10  A    between atoms: C_20  and  C_21
REMARK   11  A    between atoms: C_25  and  C_26
REMARK   12  A    between atoms: C_25  and  C_27
REMARK   13  A    between atoms: C_29  and  C_30
REMARK   14  A    between atoms: C_30  and  C_31
REMARK                            x       y       z     vdW  Elec       q    Type
REMARK                         _______ _______ _______ _____ _____    ______ ____
ROOT
ATOM      1  C   UNL     1       0.630   9.315  20.597  0.00  0.00    +0.000 C 
ATOM      2  C   UNL     1       0.016  10.243  19.823  0.00  0.00    +0.000 C 
ATOM      3  C   UNL     1      -0.766  11.067  20.738  0.00  0.00    +0.000 A 
ATOM      4  C   UNL     1      -1.840  11.857  20.386  0.00  0.00    +0.000 A 
ATOM      5  C   UNL     1      -2.442  12.685  21.316  0.00  0.00    +0.000 A 
ATOM      6  C   UNL     1      -1.904  12.748  22.615  0.00  0.00    +0.000 A 
ATOM      7  C   UNL     1      -0.858  11.836  22.993  0.00  0.00    +0.000 A 
ATOM      8  C   UNL     1      -0.350  10.937  22.051  0.00  0.00    +0.000 A 
ATOM      9  C   UNL     1       0.368   9.582  22.130  0.00  0.00    +0.000 C 
ATOM     10  C   UNL     1      -0.715   8.644  22.726  0.00  0.00    +0.000 C 
ATOM     11  C   UNL     1       1.628   9.462  22.990  0.00  0.00    +0.000 C 
ENDROOT
BRANCH   1  15
ATOM     12  C   UNL     1       2.715   5.957  18.837  0.00  0.00    +0.000 A 
ATOM     13  C   UNL     1       2.735   7.207  18.209  0.00  0.00    +0.000 A 
ATOM     14  C   UNL     1       2.101   8.324  18.801  0.00  0.00    +0.000 A 
ATOM     15  C   UNL     1       1.483   8.231  20.053  0.00  0.00    +0.000 A 
ATOM     16  C   UNL     1       1.513   6.991  20.705  0.00  0.00    +0.000 A 
ATOM     17  C   UNL     1       2.102   5.856  20.096  0.00  0.00    +0.000 A 
BRANCH  12  19
ATOM     18  C   UNL     1       2.675   3.955  17.180  0.00  0.00    +0.000 C 
ATOM     19  C   UNL     1       3.409   4.781  18.212  0.00  0.00    +0.000 C 
ATOM     20  O   UNL     1       4.589   4.562  18.478  0.00  0.00    +0.000 OA
ENDBRANCH  12  19
BRANCH  17  21
ATOM     21  C   UNL     1       1.875   4.543  20.747  0.00  0.00    +0.000 C 
ATOM     22  C   UNL     1       0.762   3.672  20.227  0.00  0.00    +0.000 C 
ATOM     23  O   UNL     1       2.667   4.158  21.605  0.00  0.00    +0.000 OA
ENDBRANCH  17  21
ENDBRANCH   1  15
BRANCH   2  24
ATOM     24  C   UNL     1      -0.045  10.653  18.361  0.00  0.00    +0.000 C 
ATOM     25  C   UNL     1      -1.268   9.994  17.666  0.00  0.00    +0.000 C 
ATOM     26  C   UNL     1      -0.026  12.131  18.011  0.00  0.00    +0.000 C 
ENDBRANCH   2  24
BRANCH   5  27
ATOM     27  C   UNL     1      -3.531  13.519  20.748  0.00  0.00    +0.000 C 
ATOM     28  C   UNL     1      -4.747  12.844  20.107  0.00  0.00    +0.000 C 
ATOM     29  O   UNL     1      -3.442  14.738  20.782  0.00  0.00    +0.000 OA
ENDBRANCH   5  27
BRANCH   6  30
ATOM     30  C   UNL     1      -2.366  13.715  23.659  0.00  0.00    +0.000 C 
ATOM     31  C   UNL     1      -1.568  14.956  23.968  0.00  0.00    +0.000 C 
ATOM     32  O   UNL     1      -3.433  13.486  24.231  0.00  0.00    +0.000 OA
ENDBRANCH   6  30
TORSDOF 6
ENDMDL
MODEL 7
REMARK VINA RESULT:      -6.0      2.082      4.033
REMARK  Name = 
REMARK  14 active torsions:
REMARK  status: ('A' for Active; 'I' for Inactive)
REMARK    1  A    between atoms: C_1  and  C_2
REMARK    2  A    between atoms: C_2  and  C_4
REMARK    3  A    between atoms: C_7  and  C_8
REMARK    4  A    between atoms: C_9  and  C_10
REMARK    5  A    between atoms: C_10  and  C_11
REMARK    6  A    between atoms: C_10  and  C_12
REMARK    7  A    between atoms: C_15  and  C_16
REMARK    8  A    between atoms: C_16  and  C_17
REMARK    9  A    between atoms: C_19  and  C_20
REMARK   10  A    between atoms: C_20  and  C_21
REMARK   11  A    between atoms: C_25  and  C_26
REMARK   12  A    between atoms: C_25  and  C_27
REMARK   13  A    between atoms: C_29  and  C_30
REMARK   14  A    between atoms: C_30  and  C_31
REMARK                            x       y       z     vdW  Elec       q    Type
REMARK                         _______ _______ _______ _____ _____    ______ ____
ROOT
ATOM      1  C   UNL     1       0.445  10.279  20.905  0.00  0.00    +0.000 C 
ATOM      2  C   UNL     1       0.800   9.904  19.653  0.00  0.00    +0.000 C 
ATOM      3  C   UNL     1       1.359   8.562  19.786  0.00  0.00    +0.000 A 
ATOM      4  C   UNL     1       2.198   7.949  18.880  0.00  0.00    +0.000 A 
ATOM      5  C   UNL     1       2.581   6.632  19.050  0.00  0.00    +0.000 A 
ATOM      6  C   UNL     1       2.054   5.910  20.139  0.00  0.00    +0.000 A 
ATOM      7  C   UNL     1       1.274   6.596  21.132  0.00  0.00    +0.000 A 
ATOM      8  C   UNL     1       0.999   7.957  20.977  0.00  0.00    +0.000 A 
ATOM      9  C   UNL     1       0.644   9.103  21.937  0.00  0.00    +0.000 C 
ATOM     10  C   UNL     1       1.931   9.261  22.787  0.00  0.00    +0.000 C 
ATOM     11  C   UNL     1      -0.539   8.927  22.892  0.00  0.00    +0.000 C 
ENDROOT
BRANCH   1  15
ATOM     12  C   UNL     1      -1.185  14.032  22.314  0.00  0.00    +0.000 A 
ATOM     13  C   UNL     1       0.169  13.934  21.977  0.00  0.00    +0.000 A 
ATOM     14  C   UNL     1       0.702  12.727  21.466  0.00  0.00    +0.000 A 
ATOM     15  C   UNL     1      -0.113  11.615  21.230  0.00  0.00    +0.000 A 
ATOM     16  C   UNL     1      -1.480  11.735  21.516  0.00  0.00    +0.000 A 
ATOM     17  C   UNL     1      -2.011  12.922  22.075  0.00  0.00    +0.000 A 
BRANCH  12  19
ATOM     18  C   UNL     1      -1.552  15.677  24.292  0.00  0.00    +0.000 C 
ATOM     19  C   UNL     1      -1.747  15.324  22.835  0.00  0.00    +0.000 C 
ATOM     20  O   UNL     1      -2.274  16.114  22.055  0.00  0.00    +0.000 OA
ENDBRANCH  12  19
BRANCH  17  21
ATOM     21  C   UNL     1      -3.409  12.873  22.567  0.00  0.00    +0.000 C 
ATOM     22  C   UNL     1      -3.647  12.498  24.005  0.00  0.00    +0.000 C 
ATOM     23  O   UNL     1      -4.315  13.251  21.826  0.00  0.00    +0.000 OA
ENDBRANCH  17  21
ENDBRANCH   1  15
BRANCH   2  24
ATOM     24  C   UNL     1       0.746  10.450  18.236  0.00  0.00    +0.000 C 
ATOM     25  C   UNL     1      -0.725  10.538  17.746  0.00  0.00    +0.000 C 
ATOM     26  C   UNL     1       1.440  11.766  17.928  0.00  0.00    +0.000 C 
ENDBRANCH   2  24
BRANCH   5  27
ATOM     27  C   UNL     1       3.421   6.111  17.943  0.00  0.00    +0.000 C 
ATOM     28  C   UNL     1       4.632   6.920  17.467  0.00  0.00    +0.000 C 
ATOM     29  O   UNL     1       3.133   5.050  17.410  0.00  0.00    +0.000 OA
ENDBRANCH   5  27
BRANCH   6  30
ATOM     30  C   UNL     1       2.268   4.443  20.342  0.00  0.00    +0.000 C 
ATOM     31  C   UNL     1       1.105   3.484  20.324  0.00  0.00    +0.000 C 
ATOM     32  O   UNL     1       3.423   4.038  20.489  0.00  0.00    +0.000 OA
ENDBRANCH   6  30
TORSDOF 6
ENDMDL
MODEL 8
REMARK VINA RESULT:      -6.0      1.909      8.346
REMARK  Name = 
REMARK  14 active torsions:
REMARK  status: ('A' for Active; 'I' for Inactive)
REMARK    1  A    between atoms: C_1  and  C_2
REMARK    2  A    between atoms: C_2  and  C_4
REMARK    3  A    between atoms: C_7  and  C_8
REMARK    4  A    between atoms: C_9  and  C_10
REMARK    5  A    between atoms: C_10  and  C_11
REMARK    6  A    between atoms: C_10  and  C_12
REMARK    7  A    between atoms: C_15  and  C_16
REMARK    8  A    between atoms: C_16  and  C_17
REMARK    9  A    between atoms: C_19  and  C_20
REMARK   10  A    between atoms: C_20  and  C_21
REMARK   11  A    between atoms: C_25  and  C_26
REMARK   12  A    between atoms: C_25  and  C_27
REMARK   13  A    between atoms: C_29  and  C_30
REMARK   14  A    between atoms: C_30  and  C_31
REMARK                            x       y       z     vdW  Elec       q    Type
REMARK                         _______ _______ _______ _____ _____    ______ ____
ROOT
ATOM      1  C   UNL     1       0.769   9.555  19.862  0.00  0.00    +0.000 C 
ATOM      2  C   UNL     1       0.427   9.788  21.152  0.00  0.00    +0.000 C 
ATOM      3  C   UNL     1      -0.392  10.995  21.132  0.00  0.00    +0.000 A 
ATOM      4  C   UNL     1      -0.627  11.822  22.210  0.00  0.00    +0.000 A 
ATOM      5  C   UNL     1      -1.510  12.881  22.108  0.00  0.00    +0.000 A 
ATOM      6  C   UNL     1      -2.208  13.067  20.899  0.00  0.00    +0.000 A 
ATOM      7  C   UNL     1      -1.867  12.266  19.755  0.00  0.00    +0.000 A 
ATOM      8  C   UNL     1      -0.888  11.275  19.871  0.00  0.00    +0.000 A 
ATOM      9  C   UNL     1       0.053  10.566  18.886  0.00  0.00    +0.000 C 
ATOM     10  C   UNL     1       0.989  11.708  18.410  0.00  0.00    +0.000 C 
ATOM     11  C   UNL     1      -0.545   9.894  17.647  0.00  0.00    +0.000 C 
ENDROOT
BRANCH   1  15
ATOM     12  C   UNL     1       2.973   6.110  18.448  0.00  0.00    +0.000 A 
ATOM     13  C   UNL     1       3.015   7.315  17.737  0.00  0.00    +0.000 A 
ATOM     14  C   UNL     1       2.341   8.461  18.217  0.00  0.00    +0.000 A 
ATOM     15  C   UNL     1       1.659   8.446  19.439  0.00  0.00    +0.000 A 
ATOM     16  C   UNL     1       1.667   7.254  20.176  0.00  0.00    +0.000 A 
ATOM     17  C   UNL     1       2.297   6.088  19.678  0.00  0.00    +0.000 A 
BRANCH  12  19
ATOM     18  C   UNL     1       5.137   4.672  18.385  0.00  0.00    +0.000 C 
ATOM     19  C   UNL     1       3.710   4.903  17.942  0.00  0.00    +0.000 C 
ATOM     20  O   UNL     1       3.117   4.075  17.254  0.00  0.00    +0.000 OA
ENDBRANCH  12  19
BRANCH  17  21
ATOM     21  C   UNL     1       2.047   4.820  20.405  0.00  0.00    +0.000 C 
ATOM     22  C   UNL     1       0.860   3.987  20.001  0.00  0.00    +0.000 C 
ATOM     23  O   UNL     1       2.875   4.433  21.228  0.00  0.00    +0.000 OA
ENDBRANCH  17  21
ENDBRANCH   1  15
BRANCH   2  24
ATOM     24  C   UNL     1       0.623   9.155  22.519  0.00  0.00    +0.000 C 
ATOM     25  C   UNL     1       2.059   9.432  23.043  0.00  0.00    +0.000 C 
ATOM     26  C   UNL     1      -0.368   9.475  23.626  0.00  0.00    +0.000 C 
ENDBRANCH   2  24
BRANCH   5  27
ATOM     27  C   UNL     1      -1.700  13.618  23.382  0.00  0.00    +0.000 C 
ATOM     28  C   UNL     1      -3.027  13.495  24.138  0.00  0.00    +0.000 C 
ATOM     29  O   UNL     1      -0.803  14.330  23.811  0.00  0.00    +0.000 OA
ENDBRANCH   5  27
BRANCH   6  30
ATOM     30  C   UNL     1      -3.298  14.075  20.717  0.00  0.00    +0.000 C 
ATOM     31  C   UNL     1      -4.727  13.638  20.519  0.00  0.00    +0.000 C 
ATOM     32  O   UNL     1      -3.000  15.270  20.768  0.00  0.00    +0.000 OA
ENDBRANCH   6  30
TORSDOF 6
ENDMDL
MODEL 9
REMARK VINA RESULT:      -5.9      0.956      3.071
REMARK  Name = 
REMARK  14 active torsions:
REMARK  status: ('A' for Active; 'I' for Inactive)
REMARK    1  A    between atoms: C_1  and  C_2
REMARK    2  A    between atoms: C_2  and  C_4
REMARK    3  A    between atoms: C_7  and  C_8
REMARK    4  A    between atoms: C_9  and  C_10
REMARK    5  A    between atoms: C_10  and  C_11
REMARK    6  A    between atoms: C_10  and  C_12
REMARK    7  A    between atoms: C_15  and  C_16
REMARK    8  A    between atoms: C_16  and  C_17
REMARK    9  A    between atoms: C_19  and  C_20
REMARK   10  A    between atoms: C_20  and  C_21
REMARK   11  A    between atoms: C_25  and  C_26
REMARK   12  A    between atoms: C_25  and  C_27
REMARK   13  A    between atoms: C_29  and  C_30
REMARK   14  A    between atoms: C_30  and  C_31
REMARK                            x       y       z     vdW  Elec       q    Type
REMARK                         _______ _______ _______ _____ _____    ______ ____
ROOT
ATOM      1  C   UNL     1       0.694  10.017  20.748  0.00  0.00    +0.000 C 
ATOM      2  C   UNL     1       1.143   9.497  19.581  0.00  0.00    +0.000 C 
ATOM      3  C   UNL     1       1.523   8.121  19.881  0.00  0.00    +0.000 A 
ATOM      4  C   UNL     1       2.382   7.344  19.132  0.00  0.00    +0.000 A 
ATOM      5  C   UNL     1       2.587   6.013  19.447  0.00  0.00    +0.000 A 
ATOM      6  C   UNL     1       1.860   5.450  20.513  0.00  0.00    +0.000 A 
ATOM      7  C   UNL     1       1.057   6.300  21.349  0.00  0.00    +0.000 A 
ATOM      8  C   UNL     1       0.962   7.664  21.061  0.00  0.00    +0.000 A 
ATOM      9  C   UNL     1       0.637   8.921  21.882  0.00  0.00    +0.000 C 
ATOM     10  C   UNL     1       1.829   9.015  22.869  0.00  0.00    +0.000 C 
ATOM     11  C   UNL     1      -0.660   8.957  22.695  0.00  0.00    +0.000 C 
ENDROOT
BRANCH   1  15
ATOM     12  C   UNL     1      -0.384  14.208  20.761  0.00  0.00    +0.000 A 
ATOM     13  C   UNL     1      -1.353  13.231  20.508  0.00  0.00    +0.000 A 
ATOM     14  C   UNL     1      -1.024  11.856  20.552  0.00  0.00    +0.000 A 
ATOM     15  C   UNL     1       0.262  11.428  20.903  0.00  0.00    +0.000 A 
ATOM     16  C   UNL     1       1.215  12.407  21.211  0.00  0.00    +0.000 A 
ATOM     17  C   UNL     1       0.906  13.786  21.119  0.00  0.00    +0.000 A 
BRANCH  12  19
ATOM     18  C   UNL     1      -0.792  16.388  19.406  0.00  0.00    +0.000 C 
ATOM     19  C   UNL     1      -0.748  15.665  20.734  0.00  0.00    +0.000 C 
ATOM     20  O   UNL     1      -1.093  16.223  21.773  0.00  0.00    +0.000 OA
ENDBRANCH  12  19
BRANCH  17  21
ATOM     21  C   UNL     1       2.035  14.742  21.226  0.00  0.00    +0.000 C 
ATOM     22  C   UNL     1       2.711  15.192  19.959  0.00  0.00    +0.000 C 
ATOM     23  O   UNL     1       2.306  15.223  22.324  0.00  0.00    +0.000 OA
ENDBRANCH  17  21
ENDBRANCH   1  15
BRANCH   2  24
ATOM     24  C   UNL     1       1.314   9.919  18.131  0.00  0.00    +0.000 C 
ATOM     25  C   UNL     1      -0.072  10.088  17.450  0.00  0.00    +0.000 C 
ATOM     26  C   UNL     1       2.161  11.140  17.816  0.00  0.00    +0.000 C 
ENDBRANCH   2  24
BRANCH   5  27
ATOM     27  C   UNL     1       3.481   5.311  18.493  0.00  0.00    +0.000 C 
ATOM     28  C   UNL     1       4.972   5.168  18.816  0.00  0.00    +0.000 C 
ATOM     29  O   UNL     1       3.025   4.865  17.450  0.00  0.00    +0.000 OA
ENDBRANCH   5  27
BRANCH   6  30
ATOM     30  C   UNL     1       1.877   3.992  20.850  0.00  0.00    +0.000 C 
ATOM     31  C   UNL     1       1.085   3.003  20.034  0.00  0.00    +0.000 C 
ATOM     32  O   UNL     1       2.583   3.621  21.789  0.00  0.00    +0.000 OA
ENDBRANCH   6  30
TORSDOF 6
ENDMDL
