MODEL 1
REMARK VINA RESULT:      -7.9      0.000      0.000
REMARK  Name = 
REMARK  8 active torsions:
REMARK  status: ('A' for Active; 'I' for Inactive)
REMARK    1  A    between atoms: C_1  and  C_2
REMARK    2  A    between atoms: C_5  and  S_6
REMARK    3  A    between atoms: S_6  and  C_9
REMARK    4  A    between atoms: C_9  and  C_19
REMARK    5  A    between atoms: C_10  and  C_11
REMARK    6  A    between atoms: C_13  and  C_14
REMARK    7  A    between atoms: C_17  and  C_18
REMARK    8  A    between atoms: C_19  and  C_21
REMARK                            x       y       z     vdW  Elec       q    Type
REMARK                         _______ _______ _______ _____ _____    ______ ____
ROOT
ATOM      1  C   UNL     1       4.725   5.364  17.866  0.00  0.00    +0.000 C 
ATOM      2  C   UNL     1       4.232   4.270  18.511  0.00  0.00    +0.000 C 
ENDROOT
BRANCH   2   3
ATOM      3  C   UNL     1       2.948   3.833  19.156  0.00  0.00    +0.000 A 
ATOM      4  C   UNL     1       2.912   3.415  20.492  0.00  0.00    +0.000 A 
ATOM      5  C   UNL     1       1.751   2.848  21.066  0.00  0.00    +0.000 A 
ATOM      6  C   UNL     1       1.718   2.404  22.500  0.00  0.00    +0.000 C 
ATOM      7  C   UNL     1       0.611   2.673  20.283  0.00  0.00    +0.000 A 
ATOM      8  C   UNL     1       0.621   3.063  18.953  0.00  0.00    +0.000 A 
ATOM      9  C   UNL     1       1.773   3.636  18.373  0.00  0.00    +0.000 A 
ATOM     10  C   UNL     1       1.665   4.003  16.911  0.00  0.00    +0.000 C 
ENDBRANCH   2   3
BRANCH   1  11
ATOM     11  S   UNL     1       6.386   5.290  17.380  0.00  0.00    +0.000 S 
ATOM     12  O   UNL     1       7.013   4.326  18.275  0.00  0.00    +0.000 OA
ATOM     13  O   UNL     1       6.862   6.663  17.291  0.00  0.00    +0.000 OA
BRANCH  11  18
ATOM     14  C   UNL     1       7.008   3.951  11.571  0.00  0.00    +0.000 C 
ATOM     15  C   UNL     1       6.896   4.209  13.041  0.00  0.00    +0.000 A 
ATOM     16  C   UNL     1       5.996   3.484  13.835  0.00  0.00    +0.000 A 
ATOM     17  C   UNL     1       5.915   3.720  15.205  0.00  0.00    +0.000 A 
ATOM     18  C   UNL     1       6.764   4.667  15.779  0.00  0.00    +0.000 A 
ATOM     19  C   UNL     1       7.632   5.427  14.984  0.00  0.00    +0.000 A 
ATOM     20  C   UNL     1       7.695   5.200  13.618  0.00  0.00    +0.000 A 
ENDBRANCH  11  18
ENDBRANCH   1  11
BRANCH   1  21
ATOM     21  C   UNL     1       4.014   6.673  17.487  0.00  0.00    +0.000 C 
ATOM     22  O   UNL     1       4.305   7.199  16.408  0.00  0.00    +0.000 OA
BRANCH  21  23
ATOM     23  C   UNL     1       2.953   7.448  18.340  0.00  0.00    +0.000 A 
ATOM     24  C   UNL     1       2.488   7.195  19.644  0.00  0.00    +0.000 A 
ATOM     25  C   UNL     1       1.574   7.997  20.344  0.00  0.00    +0.000 A 
ATOM     26  C   UNL     1       1.062   9.115  19.741  0.00  0.00    +0.000 A 
ATOM     27 CL   UNL     1      -0.018  10.119  20.623  0.00  0.00    +0.000 Cl
ATOM     28  C   UNL     1       1.440   9.411  18.441  0.00  0.00    +0.000 A 
ATOM     29  C   UNL     1       2.370   8.589  17.748  0.00  0.00    +0.000 A 
ENDBRANCH  21  23
ENDBRANCH   1  21
TORSDOF 5
ENDMDL
MODEL 2
REMARK VINA RESULT:      -7.9      4.944      8.275
REMARK  Name = 
REMARK  8 active torsions:
REMARK  status: ('A' for Active; 'I' for Inactive)
REMARK    1  A    between atoms: C_1  and  C_2
REMARK    2  A    between atoms: C_5  and  S_6
REMARK    3  A    between atoms: S_6  and  C_9
REMARK    4  A    between atoms: C_9  and  C_19
REMARK    5  A    between atoms: C_10  and  C_11
REMARK    6  A    between atoms: C_13  and  C_14
REMARK    7  A    between atoms: C_17  and  C_18
REMARK    8  A    between atoms: C_19  and  C_21
REMARK                            x       y       z     vdW  Elec       q    Type
REMARK                         _______ _______ _______ _____ _____    ______ ____
ROOT
ATOM      1  C   UNL     1      -0.617  10.658  19.856  0.00  0.00    +0.000 C 
ATOM      2  C   UNL     1      -1.416  10.008  18.965  0.00  0.00    +0.000 C 
ENDROOT
BRANCH   2   3
ATOM      3  C   UNL     1      -2.436  10.352  17.916  0.00  0.00    +0.000 A 
ATOM      4  C   UNL     1      -2.267   9.960  16.583  0.00  0.00    +0.000 A 
ATOM      5  C   UNL     1      -3.128  10.412  15.557  0.00  0.00    +0.000 A 
ATOM      6  C   UNL     1      -2.943   9.985  14.129  0.00  0.00    +0.000 C 
ATOM      7  C   UNL     1      -4.164  11.292  15.865  0.00  0.00    +0.000 A 
ATOM      8  C   UNL     1      -4.347  11.711  17.174  0.00  0.00    +0.000 A 
ATOM      9  C   UNL     1      -3.497  11.260  18.206  0.00  0.00    +0.000 A 
ATOM     10  C   UNL     1      -3.788  11.801  19.587  0.00  0.00    +0.000 C 
ENDBRANCH   2   3
BRANCH   1  11
ATOM     11  S   UNL     1       0.349   9.662  20.894  0.00  0.00    +0.000 S 
ATOM     12  O   UNL     1      -0.593   8.800  21.597  0.00  0.00    +0.000 OA
ATOM     13  O   UNL     1       1.249  10.550  21.614  0.00  0.00    +0.000 OA
BRANCH  11  18
ATOM     14  C   UNL     1       3.297   5.432  17.836  0.00  0.00    +0.000 C 
ATOM     15  C   UNL     1       2.635   6.500  18.650  0.00  0.00    +0.000 A 
ATOM     16  C   UNL     1       2.204   6.246  19.960  0.00  0.00    +0.000 A 
ATOM     17  C   UNL     1       1.607   7.252  20.713  0.00  0.00    +0.000 A 
ATOM     18  C   UNL     1       1.471   8.524  20.156  0.00  0.00    +0.000 A 
ATOM     19  C   UNL     1       1.856   8.771  18.831  0.00  0.00    +0.000 A 
ATOM     20  C   UNL     1       2.434   7.759  18.080  0.00  0.00    +0.000 A 
ENDBRANCH  11  18
ENDBRANCH   1  11
BRANCH   1  21
ATOM     21  C   UNL     1      -0.431  12.167  20.079  0.00  0.00    +0.000 C 
ATOM     22  O   UNL     1      -1.192  12.734  20.869  0.00  0.00    +0.000 OA
BRANCH  21  23
ATOM     23  C   UNL     1       0.623  13.096  19.387  0.00  0.00    +0.000 A 
ATOM     24  C   UNL     1       0.722  14.500  19.386  0.00  0.00    +0.000 A 
ATOM     25  C   UNL     1       1.753  15.235  18.782  0.00  0.00    +0.000 A 
ATOM     26  C   UNL     1       2.752  14.573  18.121  0.00  0.00    +0.000 A 
ATOM     27 CL   UNL     1       4.036  15.479  17.426  0.00  0.00    +0.000 Cl
ATOM     28  C   UNL     1       2.705  13.191  18.041  0.00  0.00    +0.000 A 
ATOM     29  C   UNL     1       1.654  12.461  18.662  0.00  0.00    +0.000 A 
ENDBRANCH  21  23
ENDBRANCH   1  21
TORSDOF 5
ENDMDL
MODEL 3
REMARK VINA RESULT:      -7.9      5.805     10.852
REMARK  Name = 
REMARK  8 active torsions:
REMARK  status: ('A' for Active; 'I' for Inactive)
REMARK    1  A    between atoms: C_1  and  C_2
REMARK    2  A    between atoms: C_5  and  S_6
REMARK    3  A    between atoms: S_6  and  C_9
REMARK    4  A    between atoms: C_9  and  C_19
REMARK    5  A    between atoms: C_10  and  C_11
REMARK    6  A    between atoms: C_13  and  C_14
REMARK    7  A    between atoms: C_17  and  C_18
REMARK    8  A    between atoms: C_19  and  C_21
REMARK                            x       y       z     vdW  Elec       q    Type
REMARK                         _______ _______ _______ _____ _____    ______ ____
ROOT
ATOM      1  C   UNL     1      -0.559  11.588  20.100  0.00  0.00    +0.000 C 
ATOM      2  C   UNL     1      -1.897  11.624  19.845  0.00  0.00    +0.000 C 
ENDROOT
BRANCH   2   3
ATOM      3  C   UNL     1      -2.824  11.380  18.689  0.00  0.00    +0.000 A 
ATOM      4  C   UNL     1      -2.366  10.796  17.501  0.00  0.00    +0.000 A 
ATOM      5  C   UNL     1      -3.180  10.708  16.349  0.00  0.00    +0.000 A 
ATOM      6  C   UNL     1      -2.684  10.078  15.080  0.00  0.00    +0.000 C 
ATOM      7  C   UNL     1      -4.470  11.236  16.376  0.00  0.00    +0.000 A 
ATOM      8  C   UNL     1      -4.947  11.835  17.532  0.00  0.00    +0.000 A 
ATOM      9  C   UNL     1      -4.144  11.921  18.689  0.00  0.00    +0.000 A 
ATOM     10  C   UNL     1      -4.770  12.611  19.879  0.00  0.00    +0.000 C 
ENDBRANCH   2   3
BRANCH   1  11
ATOM     11  S   UNL     1      -0.065  12.055  21.693  0.00  0.00    +0.000 S 
ATOM     12  O   UNL     1       1.081  12.935  21.505  0.00  0.00    +0.000 OA
ATOM     13  O   UNL     1       0.036  10.835  22.480  0.00  0.00    +0.000 OA
BRANCH  11  18
ATOM     14  C   UNL     1      -4.513  15.227  24.161  0.00  0.00    +0.000 C 
ATOM     15  C   UNL     1      -3.348  14.464  23.611  0.00  0.00    +0.000 A 
ATOM     16  C   UNL     1      -2.304  15.122  22.945  0.00  0.00    +0.000 A 
ATOM     17  C   UNL     1      -1.217  14.403  22.455  0.00  0.00    +0.000 A 
ATOM     18  C   UNL     1      -1.169  13.025  22.662  0.00  0.00    +0.000 A 
ATOM     19  C   UNL     1      -2.231  12.356  23.285  0.00  0.00    +0.000 A 
ATOM     20  C   UNL     1      -3.319  13.075  23.755  0.00  0.00    +0.000 A 
ENDBRANCH  11  18
ENDBRANCH   1  11
BRANCH   1  21
ATOM     21  C   UNL     1       0.598  11.177  19.176  0.00  0.00    +0.000 C 
ATOM     22  O   UNL     1       1.033  12.019  18.384  0.00  0.00    +0.000 OA
BRANCH  21  23
ATOM     23  C   UNL     1       1.293   9.775  19.104  0.00  0.00    +0.000 A 
ATOM     24  C   UNL     1       1.388   8.767  20.082  0.00  0.00    +0.000 A 
ATOM     25  C   UNL     1       1.984   7.512  19.890  0.00  0.00    +0.000 A 
ATOM     26  C   UNL     1       2.538   7.210  18.675  0.00  0.00    +0.000 A 
ATOM     27 CL   UNL     1       3.222   5.652  18.433  0.00  0.00    +0.000 Cl
ATOM     28  C   UNL     1       2.522   8.166  17.672  0.00  0.00    +0.000 A 
ATOM     29  C   UNL     1       1.911   9.432  17.883  0.00  0.00    +0.000 A 
ENDBRANCH  21  23
ENDBRANCH   1  21
TORSDOF 5
ENDMDL
MODEL 4
REMARK VINA RESULT:      -7.8      4.079      8.191
REMARK  Name = 
REMARK  8 active torsions:
REMARK  status: ('A' for Active; 'I' for Inactive)
REMARK    1  A    between atoms: C_1  and  C_2
REMARK    2  A    between atoms: C_5  and  S_6
REMARK    3  A    between atoms: S_6  and  C_9
REMARK    4  A    between atoms: C_9  and  C_19
REMARK    5  A    between atoms: C_10  and  C_11
REMARK    6  A    between atoms: C_13  and  C_14
REMARK    7  A    between atoms: C_17  and  C_18
REMARK    8  A    between atoms: C_19  and  C_21
REMARK                            x       y       z     vdW  Elec       q    Type
REMARK                         _______ _______ _______ _____ _____    ______ ____
ROOT
ATOM      1  C   UNL     1       1.178   8.855  20.173  0.00  0.00    +0.000 C 
ATOM      2  C   UNL     1       1.859   7.681  20.294  0.00  0.00    +0.000 C 
ENDROOT
BRANCH   2   3
ATOM      3  C   UNL     1       2.534   6.680  19.399  0.00  0.00    +0.000 A 
ATOM      4  C   UNL     1       3.398   7.089  18.376  0.00  0.00    +0.000 A 
ATOM      5  C   UNL     1       3.911   6.178  17.424  0.00  0.00    +0.000 A 
ATOM      6  C   UNL     1       4.840   6.621  16.331  0.00  0.00    +0.000 C 
ATOM      7  C   UNL     1       3.536   4.837  17.483  0.00  0.00    +0.000 A 
ATOM      8  C   UNL     1       2.669   4.405  18.475  0.00  0.00    +0.000 A 
ATOM      9  C   UNL     1       2.156   5.306  19.433  0.00  0.00    +0.000 A 
ATOM     10  C   UNL     1       1.208   4.718  20.452  0.00  0.00    +0.000 C 
ENDBRANCH   2   3
BRANCH   1  11
ATOM     11  S   UNL     1       0.558   9.540  21.639  0.00  0.00    +0.000 S 
ATOM     12  O   UNL     1       1.657   9.479  22.595  0.00  0.00    +0.000 OA
ATOM     13  O   UNL     1      -0.716   8.889  21.904  0.00  0.00    +0.000 OA
BRANCH  11  18
ATOM     14  C   UNL     1      -1.304  15.148  20.633  0.00  0.00    +0.000 C 
ATOM     15  C   UNL     1      -0.801  13.777  20.961  0.00  0.00    +0.000 A 
ATOM     16  C   UNL     1       0.557  13.455  20.829  0.00  0.00    +0.000 A 
ATOM     17  C   UNL     1       1.015  12.182  21.155  0.00  0.00    +0.000 A 
ATOM     18  C   UNL     1       0.108  11.241  21.643  0.00  0.00    +0.000 A 
ATOM     19  C   UNL     1      -1.258  11.542  21.733  0.00  0.00    +0.000 A 
ATOM     20  C   UNL     1      -1.711  12.807  21.389  0.00  0.00    +0.000 A 
ENDBRANCH  11  18
ENDBRANCH   1  11
BRANCH   1  21
ATOM     21  C   UNL     1       0.881   9.683  18.914  0.00  0.00    +0.000 C 
ATOM     22  O   UNL     1       1.837  10.072  18.236  0.00  0.00    +0.000 OA
BRANCH  21  23
ATOM     23  C   UNL     1      -0.528  10.122  18.388  0.00  0.00    +0.000 A 
ATOM     24  C   UNL     1      -1.695   9.359  18.197  0.00  0.00    +0.000 A 
ATOM     25  C   UNL     1      -2.933   9.869  17.777  0.00  0.00    +0.000 A 
ATOM     26  C   UNL     1      -3.052  11.206  17.510  0.00  0.00    +0.000 A 
ATOM     27 CL   UNL     1      -4.583  11.831  17.044  0.00  0.00    +0.000 Cl
ATOM     28  C   UNL     1      -1.937  12.020  17.635  0.00  0.00    +0.000 A 
ATOM     29  C   UNL     1      -0.691  11.486  18.064  0.00  0.00    +0.000 A 
ENDBRANCH  21  23
ENDBRANCH   1  21
TORSDOF 5
ENDMDL
MODEL 5
REMARK VINA RESULT:      -7.8      4.250      8.499
REMARK  Name = 
REMARK  8 active torsions:
REMARK  status: ('A' for Active; 'I' for Inactive)
REMARK    1  A    between atoms: C_1  and  C_2
REMARK    2  A    between atoms: C_5  and  S_6
REMARK    3  A    between atoms: S_6  and  C_9
REMARK    4  A    between atoms: C_9  and  C_19
REMARK    5  A    between atoms: C_10  and  C_11
REMARK    6  A    between atoms: C_13  and  C_14
REMARK    7  A    between atoms: C_17  and  C_18
REMARK    8  A    between atoms: C_19  and  C_21
REMARK                            x       y       z     vdW  Elec       q    Type
REMARK                         _______ _______ _______ _____ _____    ______ ____
ROOT
ATOM      1  C   UNL     1       1.142   8.955  20.371  0.00  0.00    +0.000 C 
ATOM      2  C   UNL     1       1.756   7.740  20.426  0.00  0.00    +0.000 C 
ENDROOT
BRANCH   2   3
ATOM      3  C   UNL     1       2.445   6.791  19.489  0.00  0.00    +0.000 A 
ATOM      4  C   UNL     1       3.255   7.259  18.446  0.00  0.00    +0.000 A 
ATOM      5  C   UNL     1       3.777   6.392  17.459  0.00  0.00    +0.000 A 
ATOM      6  C   UNL     1       4.647   6.900  16.346  0.00  0.00    +0.000 C 
ATOM      7  C   UNL     1       3.465   5.034  17.501  0.00  0.00    +0.000 A 
ATOM      8  C   UNL     1       2.653   4.543  18.511  0.00  0.00    +0.000 A 
ATOM      9  C   UNL     1       2.132   5.400  19.504  0.00  0.00    +0.000 A 
ATOM     10  C   UNL     1       1.246   4.748  20.541  0.00  0.00    +0.000 C 
ENDBRANCH   2   3
BRANCH   1  11
ATOM     11  S   UNL     1       0.451   9.537  21.849  0.00  0.00    +0.000 S 
ATOM     12  O   UNL     1       1.558   9.617  22.794  0.00  0.00    +0.000 OA
ATOM     13  O   UNL     1      -0.720   8.717  22.121  0.00  0.00    +0.000 OA
BRANCH  11  18
ATOM     14  C   UNL     1      -1.247  15.201  22.834  0.00  0.00    +0.000 C 
ATOM     15  C   UNL     1      -0.888  13.781  22.525  0.00  0.00    +0.000 A 
ATOM     16  C   UNL     1      -1.699  12.721  22.955  0.00  0.00    +0.000 A 
ATOM     17  C   UNL     1      -1.364  11.406  22.645  0.00  0.00    +0.000 A 
ATOM     18  C   UNL     1      -0.226  11.161  21.876  0.00  0.00    +0.000 A 
ATOM     19  C   UNL     1       0.614  12.212  21.484  0.00  0.00    +0.000 A 
ATOM     20  C   UNL     1       0.284  13.519  21.811  0.00  0.00    +0.000 A 
ENDBRANCH  11  18
ENDBRANCH   1  11
BRANCH   1  21
ATOM     21  C   UNL     1       0.975   9.910  19.179  0.00  0.00    +0.000 C 
ATOM     22  O   UNL     1       1.979  10.494  18.759  0.00  0.00    +0.000 OA
BRANCH  21  23
ATOM     23  C   UNL     1      -0.356  10.252  18.427  0.00  0.00    +0.000 A 
ATOM     24  C   UNL     1      -1.161   9.440  17.607  0.00  0.00    +0.000 A 
ATOM     25  C   UNL     1      -2.378   9.832  17.030  0.00  0.00    +0.000 A 
ATOM     26  C   UNL     1      -2.847  11.100  17.247  0.00  0.00    +0.000 A 
ATOM     27 CL   UNL     1      -4.362  11.557  16.577  0.00  0.00    +0.000 Cl
ATOM     28  C   UNL     1      -2.091  11.975  18.010  0.00  0.00    +0.000 A 
ATOM     29  C   UNL     1      -0.861  11.560  18.590  0.00  0.00    +0.000 A 
ENDBRANCH  21  23
ENDBRANCH   1  21
TORSDOF 5
ENDMDL
MODEL 6
REMARK VINA RESULT:      -7.8      5.951     10.281
REMARK  Name = 
REMARK  8 active torsions:
REMARK  status: ('A' for Active; 'I' for Inactive)
REMARK    1  A    between atoms: C_1  and  C_2
REMARK    2  A    between atoms: C_5  and  S_6
REMARK    3  A    between atoms: S_6  and  C_9
REMARK    4  A    between atoms: C_9  and  C_19
REMARK    5  A    between atoms: C_10  and  C_11
REMARK    6  A    between atoms: C_13  and  C_14
REMARK    7  A    between atoms: C_17  and  C_18
REMARK    8  A    between atoms: C_19  and  C_21
REMARK                            x       y       z     vdW  Elec       q    Type
REMARK                         _______ _______ _______ _____ _____    ______ ____
ROOT
ATOM      1  C   UNL     1      -0.237  12.388  20.534  0.00  0.00    +0.000 C 
ATOM      2  C   UNL     1      -1.278  12.713  19.717  0.00  0.00    +0.000 C 
ENDROOT
BRANCH   2   3
ATOM      3  C   UNL     1      -2.329  12.009  18.907  0.00  0.00    +0.000 A 
ATOM      4  C   UNL     1      -2.016  11.398  17.686  0.00  0.00    +0.000 A 
ATOM      5  C   UNL     1      -3.017  10.876  16.835  0.00  0.00    +0.000 A 
ATOM      6  C   UNL     1      -2.675  10.220  15.528  0.00  0.00    +0.000 C 
ATOM      7  C   UNL     1      -4.358  10.987  17.199  0.00  0.00    +0.000 A 
ATOM      8  C   UNL     1      -4.699  11.601  18.394  0.00  0.00    +0.000 A 
ATOM      9  C   UNL     1      -3.707  12.119  19.254  0.00  0.00    +0.000 A 
ATOM     10  C   UNL     1      -4.207  12.780  20.518  0.00  0.00    +0.000 C 
ENDBRANCH   2   3
BRANCH   1  11
ATOM     11  S   UNL     1       0.694  13.708  21.159  0.00  0.00    +0.000 S 
ATOM     12  O   UNL     1       2.072  13.234  21.195  0.00  0.00    +0.000 OA
ATOM     13  O   UNL     1       0.019  14.168  22.363  0.00  0.00    +0.000 OA
BRANCH  11  18
ATOM     14  C   UNL     1       0.540  18.162  17.150  0.00  0.00    +0.000 C 
ATOM     15  C   UNL     1       0.633  17.101  18.202  0.00  0.00    +0.000 A 
ATOM     16  C   UNL     1       1.795  16.331  18.350  0.00  0.00    +0.000 A 
ATOM     17  C   UNL     1       1.876  15.360  19.344  0.00  0.00    +0.000 A 
ATOM     18  C   UNL     1       0.796  15.186  20.209  0.00  0.00    +0.000 A 
ATOM     19  C   UNL     1      -0.386  15.920  20.037  0.00  0.00    +0.000 A 
ATOM     20  C   UNL     1      -0.467  16.872  19.033  0.00  0.00    +0.000 A 
ENDBRANCH  11  18
ENDBRANCH   1  11
BRANCH   1  21
ATOM     21  C   UNL     1       0.239  11.003  21.001  0.00  0.00    +0.000 C 
ATOM     22  O   UNL     1       0.116  10.722  22.197  0.00  0.00    +0.000 OA
BRANCH  21  23
ATOM     23  C   UNL     1       0.896   9.887  20.119  0.00  0.00    +0.000 A 
ATOM     24  C   UNL     1       1.200   9.889  18.746  0.00  0.00    +0.000 A 
ATOM     25  C   UNL     1       1.853   8.851  18.063  0.00  0.00    +0.000 A 
ATOM     26  C   UNL     1       2.228   7.728  18.749  0.00  0.00    +0.000 A 
ATOM     27 CL   UNL     1       3.070   6.483  17.917  0.00  0.00    +0.000 Cl
ATOM     28  C   UNL     1       1.927   7.632  20.099  0.00  0.00    +0.000 A 
ATOM     29  C   UNL     1       1.268   8.694  20.775  0.00  0.00    +0.000 A 
ENDBRANCH  21  23
ENDBRANCH   1  21
TORSDOF 5
ENDMDL
MODEL 7
REMARK VINA RESULT:      -7.8      5.539     10.028
REMARK  Name = 
REMARK  8 active torsions:
REMARK  status: ('A' for Active; 'I' for Inactive)
REMARK    1  A    between atoms: C_1  and  C_2
REMARK    2  A    between atoms: C_5  and  S_6
REMARK    3  A    between atoms: S_6  and  C_9
REMARK    4  A    between atoms: C_9  and  C_19
REMARK    5  A    between atoms: C_10  and  C_11
REMARK    6  A    between atoms: C_13  and  C_14
REMARK    7  A    between atoms: C_17  and  C_18
REMARK    8  A    between atoms: C_19  and  C_21
REMARK                            x       y       z     vdW  Elec       q    Type
REMARK                         _______ _______ _______ _____ _____    ______ ____
ROOT
ATOM      1  C   UNL     1       0.109  11.613  19.445  0.00  0.00    +0.000 C 
ATOM      2  C   UNL     1      -0.889  12.117  18.666  0.00  0.00    +0.000 C 
ENDROOT
BRANCH   2   3
ATOM      3  C   UNL     1      -2.166  11.640  18.033  0.00  0.00    +0.000 A 
ATOM      4  C   UNL     1      -2.179  11.106  16.739  0.00  0.00    +0.000 A 
ATOM      5  C   UNL     1      -3.387  10.805  16.068  0.00  0.00    +0.000 A 
ATOM      6  C   UNL     1      -3.394  10.229  14.681  0.00  0.00    +0.000 C 
ATOM      7  C   UNL     1      -4.605  11.065  16.693  0.00  0.00    +0.000 A 
ATOM      8  C   UNL     1      -4.624  11.610  17.968  0.00  0.00    +0.000 A 
ATOM      9  C   UNL     1      -3.424  11.907  18.649  0.00  0.00    +0.000 A 
ATOM     10  C   UNL     1      -3.577  12.512  20.025  0.00  0.00    +0.000 C 
ENDBRANCH   2   3
BRANCH   1  11
ATOM     11  S   UNL     1       1.412  12.691  19.820  0.00  0.00    +0.000 S 
ATOM     12  O   UNL     1       2.393  12.504  18.757  0.00  0.00    +0.000 OA
ATOM     13  O   UNL     1       1.755  12.470  21.216  0.00  0.00    +0.000 OA
BRANCH  11  18
ATOM     14  C   UNL     1      -0.477  18.330  19.067  0.00  0.00    +0.000 C 
ATOM     15  C   UNL     1       0.069  16.955  19.294  0.00  0.00    +0.000 A 
ATOM     16  C   UNL     1       1.125  16.459  18.515  0.00  0.00    +0.000 A 
ATOM     17  C   UNL     1       1.636  15.186  18.749  0.00  0.00    +0.000 A 
ATOM     18  C   UNL     1       1.103  14.423  19.788  0.00  0.00    +0.000 A 
ATOM     19  C   UNL     1       0.017  14.894  20.539  0.00  0.00    +0.000 A 
ATOM     20  C   UNL     1      -0.500  16.156  20.289  0.00  0.00    +0.000 A 
ENDBRANCH  11  18
ENDBRANCH   1  11
BRANCH   1  21
ATOM     21  C   UNL     1       0.251  10.213  20.062  0.00  0.00    +0.000 C 
ATOM     22  O   UNL     1      -0.421   9.951  21.065  0.00  0.00    +0.000 OA
BRANCH  21  23
ATOM     23  C   UNL     1       1.187   9.058  19.568  0.00  0.00    +0.000 A 
ATOM     24  C   UNL     1       1.651   7.921  20.253  0.00  0.00    +0.000 A 
ATOM     25  C   UNL     1       2.441   6.907  19.691  0.00  0.00    +0.000 A 
ATOM     26  C   UNL     1       2.821   7.001  18.379  0.00  0.00    +0.000 A 
ATOM     27 CL   UNL     1       3.747   5.731  17.684  0.00  0.00    +0.000 Cl
ATOM     28  C   UNL     1       2.438   8.113  17.646  0.00  0.00    +0.000 A 
ATOM     29  C   UNL     1       1.635   9.130  18.231  0.00  0.00    +0.000 A 
ENDBRANCH  21  23
ENDBRANCH   1  21
TORSDOF 5
ENDMDL
MODEL 8
REMARK VINA RESULT:      -7.8      4.985      8.952
REMARK  Name = 
REMARK  8 active torsions:
REMARK  status: ('A' for Active; 'I' for Inactive)
REMARK    1  A    between atoms: C_1  and  C_2
REMARK    2  A    between atoms: C_5  and  S_6
REMARK    3  A    between atoms: S_6  and  C_9
REMARK    4  A    between atoms: C_9  and  C_19
REMARK    5  A    between atoms: C_10  and  C_11
REMARK    6  A    between atoms: C_13  and  C_14
REMARK    7  A    between atoms: C_17  and  C_18
REMARK    8  A    between atoms: C_19  and  C_21
REMARK                            x       y       z     vdW  Elec       q    Type
REMARK                         _______ _______ _______ _____ _____    ______ ____
ROOT
ATOM      1  C   UNL     1       0.293  11.251  20.467  0.00  0.00    +0.000 C 
ATOM      2  C   UNL     1       1.337  12.121  20.364  0.00  0.00    +0.000 C 
ENDROOT
BRANCH   2   3
ATOM      3  C   UNL     1       1.576  13.536  19.920  0.00  0.00    +0.000 A 
ATOM      4  C   UNL     1       2.391  13.823  18.818  0.00  0.00    +0.000 A 
ATOM      5  C   UNL     1       2.759  15.148  18.487  0.00  0.00    +0.000 A 
ATOM      6  C   UNL     1       3.630  15.449  17.302  0.00  0.00    +0.000 C 
ATOM      7  C   UNL     1       2.324  16.204  19.286  0.00  0.00    +0.000 A 
ATOM      8  C   UNL     1       1.530  15.949  20.394  0.00  0.00    +0.000 A 
ATOM      9  C   UNL     1       1.152  14.631  20.729  0.00  0.00    +0.000 A 
ATOM     10  C   UNL     1       0.300  14.482  21.968  0.00  0.00    +0.000 C 
ENDBRANCH   2   3
BRANCH   1  11
ATOM     11  S   UNL     1       0.673   9.654  21.020  0.00  0.00    +0.000 S 
ATOM     12  O   UNL     1      -0.603   9.055  21.393  0.00  0.00    +0.000 OA
ATOM     13  O   UNL     1       1.758   9.786  21.981  0.00  0.00    +0.000 OA
BRANCH  11  18
ATOM     14  C   UNL     1       3.911   6.015  17.527  0.00  0.00    +0.000 C 
ATOM     15  C   UNL     1       3.031   6.906  18.347  0.00  0.00    +0.000 A 
ATOM     16  C   UNL     1       2.625   8.160  17.868  0.00  0.00    +0.000 A 
ATOM     17  C   UNL     1       1.791   8.970  18.632  0.00  0.00    +0.000 A 
ATOM     18  C   UNL     1       1.342   8.504  19.868  0.00  0.00    +0.000 A 
ATOM     19  C   UNL     1       1.782   7.273  20.373  0.00  0.00    +0.000 A 
ATOM     20  C   UNL     1       2.627   6.478  19.614  0.00  0.00    +0.000 A 
ENDBRANCH  11  18
ENDBRANCH   1  11
BRANCH   1  21
ATOM     21  C   UNL     1      -1.197  11.479  20.172  0.00  0.00    +0.000 C 
ATOM     22  O   UNL     1      -1.900  11.954  21.070  0.00  0.00    +0.000 OA
BRANCH  21  23
ATOM     23  C   UNL     1      -1.953  11.152  18.839  0.00  0.00    +0.000 A 
ATOM     24  C   UNL     1      -3.166  11.666  18.344  0.00  0.00    +0.000 A 
ATOM     25  C   UNL     1      -3.725  11.349  17.097  0.00  0.00    +0.000 A 
ATOM     26  C   UNL     1      -3.079  10.467  16.274  0.00  0.00    +0.000 A 
ATOM     27 CL   UNL     1      -3.746  10.122  14.729  0.00  0.00    +0.000 Cl
ATOM     28  C   UNL     1      -1.898   9.885  16.708  0.00  0.00    +0.000 A 
ATOM     29  C   UNL     1      -1.343  10.219  17.974  0.00  0.00    +0.000 A 
ENDBRANCH  21  23
ENDBRANCH   1  21
TORSDOF 5
ENDMDL
MODEL 9
REMARK VINA RESULT:      -7.7      5.599     10.021
REMARK  Name = 
REMARK  8 active torsions:
REMARK  status: ('A' for Active; 'I' for Inactive)
REMARK    1  A    between atoms: C_1  and  C_2
REMARK    2  A    between atoms: C_5  and  S_6
REMARK    3  A    between atoms: S_6  and  C_9
REMARK    4  A    between atoms: C_9  and  C_19
REMARK    5  A    between atoms: C_10  and  C_11
REMARK    6  A    between atoms: C_13  and  C_14
REMARK    7  A    between atoms: C_17  and  C_18
REMARK    8  A    between atoms: C_19  and  C_21
REMARK                            x       y       z     vdW  Elec       q    Type
REMARK                         _______ _______ _______ _____ _____    ______ ____
ROOT
ATOM      1  C   UNL     1       0.224  11.867  19.409  0.00  0.00    +0.000 C 
ATOM      2  C   UNL     1      -0.822  12.308  18.656  0.00  0.00    +0.000 C 
ENDROOT
BRANCH   2   3
ATOM      3  C   UNL     1      -2.098  11.761  18.080  0.00  0.00    +0.000 A 
ATOM      4  C   UNL     1      -2.135  11.206  16.795  0.00  0.00    +0.000 A 
ATOM      5  C   UNL     1      -3.351  10.838  16.176  0.00  0.00    +0.000 A 
ATOM      6  C   UNL     1      -3.383  10.240  14.799  0.00  0.00    +0.000 C 
ATOM      7  C   UNL     1      -4.556  11.051  16.843  0.00  0.00    +0.000 A 
ATOM      8  C   UNL     1      -4.553  11.615  18.109  0.00  0.00    +0.000 A 
ATOM      9  C   UNL     1      -3.343  11.979  18.739  0.00  0.00    +0.000 A 
ATOM     10  C   UNL     1      -3.472  12.599  20.111  0.00  0.00    +0.000 C 
ENDBRANCH   2   3
BRANCH   1  11
ATOM     11  S   UNL     1       1.490  13.008  19.714  0.00  0.00    +0.000 S 
ATOM     12  O   UNL     1       2.540  12.696  18.752  0.00  0.00    +0.000 OA
ATOM     13  O   UNL     1       1.743  12.987  21.146  0.00  0.00    +0.000 OA
BRANCH  11  18
ATOM     14  C   UNL     1      -0.107  18.470  17.827  0.00  0.00    +0.000 C 
ATOM     15  C   UNL     1       0.344  17.146  18.361  0.00  0.00    +0.000 A 
ATOM     16  C   UNL     1       1.637  16.667  18.108  0.00  0.00    +0.000 A 
ATOM     17  C   UNL     1       2.050  15.443  18.626  0.00  0.00    +0.000 A 
ATOM     18  C   UNL     1       1.168  14.714  19.425  0.00  0.00    +0.000 A 
ATOM     19  C   UNL     1      -0.141  15.165  19.642  0.00  0.00    +0.000 A 
ATOM     20  C   UNL     1      -0.552  16.377  19.108  0.00  0.00    +0.000 A 
ENDBRANCH  11  18
ENDBRANCH   1  11
BRANCH   1  21
ATOM     21  C   UNL     1       0.450  10.488  20.049  0.00  0.00    +0.000 C 
ATOM     22  O   UNL     1      -0.015  10.288  21.175  0.00  0.00    +0.000 OA
BRANCH  21  23
ATOM     23  C   UNL     1       1.240   9.283  19.432  0.00  0.00    +0.000 A 
ATOM     24  C   UNL     1       1.763   9.119  18.137  0.00  0.00    +0.000 A 
ATOM     25  C   UNL     1       2.516   8.016  17.705  0.00  0.00    +0.000 A 
ATOM     26  C   UNL     1       2.771   6.994  18.579  0.00  0.00    +0.000 A 
ATOM     27 CL   UNL     1       3.735   5.671  18.057  0.00  0.00    +0.000 Cl
ATOM     28  C   UNL     1       2.255   7.061  19.863  0.00  0.00    +0.000 A 
ATOM     29  C   UNL     1       1.496   8.187  20.284  0.00  0.00    +0.000 A 
ENDBRANCH  21  23
ENDBRANCH   1  21
TORSDOF 5
ENDMDL
