MODEL 1
REMARK VINA RESULT:      -7.7      0.000      0.000
REMARK  Name = 
REMARK  3 active torsions:
REMARK  status: ('A' for Active; 'I' for Inactive)
REMARK    1  A    between atoms: C_1  and  C_2
REMARK    2  A    between atoms: C_7  and  S_8
REMARK    3  A    between atoms: S_8  and  N_11
REMARK                            x       y       z     vdW  Elec       q    Type
REMARK                         _______ _______ _______ _____ _____    ______ ____
ROOT
ATOM      1  N   UNL     1       3.884   5.382  17.977  0.00  0.00    +0.000 N 
ATOM      2  C   UNL     1       3.840   6.577  17.273  0.00  0.00    +0.000 A 
ATOM      3  C   UNL     1       2.964   7.403  17.940  0.00  0.00    +0.000 A 
ATOM      4  C   UNL     1       2.435   6.664  19.014  0.00  0.00    +0.000 A 
ATOM      5  C   UNL     1       1.538   7.118  19.985  0.00  0.00    +0.000 A 
ATOM      6  C   UNL     1       1.277   6.218  21.032  0.00  0.00    +0.000 A 
ATOM      7  C   UNL     1       1.986   5.023  21.173  0.00  0.00    +0.000 A 
ATOM      8  C   UNL     1       2.929   4.619  20.223  0.00  0.00    +0.000 A 
ATOM      9  C   UNL     1       3.101   5.446  19.110  0.00  0.00    +0.000 A 
ATOM     10  N   UNL     1       1.068   8.446  19.953  0.00  0.00    +0.000 N 
ATOM     11  C   UNL     1       1.211   9.061  21.275  0.00  0.00    +0.000 C 
ATOM     12  C   UNL     1       0.998  10.566  21.388  0.00  0.00    +0.000 C 
ATOM     13  N   UNL     1       0.999  11.422  20.219  0.00  0.00    +0.000 NA
ATOM     14  C   UNL     1       1.378  10.807  18.951  0.00  0.00    +0.000 C 
ATOM     15  C   UNL     1       1.351   9.259  18.715  0.00  0.00    +0.000 C 
ATOM     16  C   UNL     1       2.609   8.851  17.842  0.00  0.00    +0.000 C 
ATOM     17  H   UNL     1       1.575  12.244  20.399  0.00  0.00    +0.000 HD
ENDROOT
BRANCH   1  18
ATOM     18  S   UNL     1       5.023   4.152  17.667  0.00  0.00    +0.000 S 
ATOM     19  O   UNL     1       4.214   2.959  17.475  0.00  0.00    +0.000 OA
ATOM     20  O   UNL     1       6.000   4.241  18.737  0.00  0.00    +0.000 OA
BRANCH  18  27
ATOM     21  C   UNL     1       7.393   6.343  17.116  0.00  0.00    +0.000 C 
ATOM     22  C   UNL     1       6.911   5.461  16.007  0.00  0.00    +0.000 A 
ATOM     23  C   UNL     1       7.518   5.599  14.741  0.00  0.00    +0.000 A 
ATOM     24  C   UNL     1       7.170   4.778  13.662  0.00  0.00    +0.000 A 
ATOM     25  C   UNL     1       6.193   3.805  13.820  0.00  0.00    +0.000 A 
ATOM     26  C   UNL     1       5.551   3.666  15.050  0.00  0.00    +0.000 A 
ATOM     27  C   UNL     1       5.892   4.501  16.141  0.00  0.00    +0.000 A 
ENDBRANCH  18  27
ENDBRANCH   1  18
TORSDOF 2
ENDMDL
MODEL 2
REMARK VINA RESULT:      -7.7      5.851      8.596
REMARK  Name = 
REMARK  3 active torsions:
REMARK  status: ('A' for Active; 'I' for Inactive)
REMARK    1  A    between atoms: C_1  and  C_2
REMARK    2  A    between atoms: C_7  and  S_8
REMARK    3  A    between atoms: S_8  and  N_11
REMARK                            x       y       z     vdW  Elec       q    Type
REMARK                         _______ _______ _______ _____ _____    ______ ____
ROOT
ATOM      1  N   UNL     1      -1.107  12.499  19.469  0.00  0.00    +0.000 N 
ATOM      2  C   UNL     1      -1.820  13.035  20.531  0.00  0.00    +0.000 A 
ATOM      3  C   UNL     1      -3.145  12.723  20.323  0.00  0.00    +0.000 A 
ATOM      4  C   UNL     1      -3.222  12.050  19.090  0.00  0.00    +0.000 A 
ATOM      5  C   UNL     1      -4.367  11.510  18.498  0.00  0.00    +0.000 A 
ATOM      6  C   UNL     1      -4.146  10.764  17.327  0.00  0.00    +0.000 A 
ATOM      7  C   UNL     1      -2.859  10.455  16.881  0.00  0.00    +0.000 A 
ATOM      8  C   UNL     1      -1.725  10.953  17.528  0.00  0.00    +0.000 A 
ATOM      9  C   UNL     1      -1.937  11.802  18.617  0.00  0.00    +0.000 A 
ATOM     10  N   UNL     1      -5.615  11.607  19.146  0.00  0.00    +0.000 N 
ATOM     11  C   UNL     1      -6.266  10.295  19.180  0.00  0.00    +0.000 C 
ATOM     12  C   UNL     1      -7.503  10.136  20.056  0.00  0.00    +0.000 C 
ATOM     13  N   UNL     1      -7.837  11.105  21.080  0.00  0.00    +0.000 NA
ATOM     14  C   UNL     1      -6.852  12.148  21.348  0.00  0.00    +0.000 C 
ATOM     15  C   UNL     1      -5.715  12.524  20.338  0.00  0.00    +0.000 C 
ATOM     16  C   UNL     1      -4.386  12.820  21.149  0.00  0.00    +0.000 C 
ATOM     17  H   UNL     1      -8.081  10.620  21.944  0.00  0.00    +0.000 HD
ENDROOT
BRANCH   1  18
ATOM     18  S   UNL     1       0.595  12.418  19.428  0.00  0.00    +0.000 S 
ATOM     19  O   UNL     1       1.008  12.961  20.712  0.00  0.00    +0.000 OA
ATOM     20  O   UNL     1       0.989  13.044  18.178  0.00  0.00    +0.000 OA
BRANCH  18  27
ATOM     21  C   UNL     1       0.107  10.010  21.593  0.00  0.00    +0.000 C 
ATOM     22  C   UNL     1       0.849   9.741  20.321  0.00  0.00    +0.000 A 
ATOM     23  C   UNL     1       1.309   8.426  20.091  0.00  0.00    +0.000 A 
ATOM     24  C   UNL     1       1.963   8.071  18.906  0.00  0.00    +0.000 A 
ATOM     25  C   UNL     1       2.185   9.027  17.924  0.00  0.00    +0.000 A 
ATOM     26  C   UNL     1       1.772  10.341  18.136  0.00  0.00    +0.000 A 
ATOM     27  C   UNL     1       1.120  10.708  19.338  0.00  0.00    +0.000 A 
ENDBRANCH  18  27
ENDBRANCH   1  18
TORSDOF 2
ENDMDL
MODEL 3
REMARK VINA RESULT:      -7.6      2.178      3.884
REMARK  Name = 
REMARK  3 active torsions:
REMARK  status: ('A' for Active; 'I' for Inactive)
REMARK    1  A    between atoms: C_1  and  C_2
REMARK    2  A    between atoms: C_7  and  S_8
REMARK    3  A    between atoms: S_8  and  N_11
REMARK                            x       y       z     vdW  Elec       q    Type
REMARK                         _______ _______ _______ _____ _____    ______ ____
ROOT
ATOM      1  N   UNL     1       1.991   6.387  20.220  0.00  0.00    +0.000 N 
ATOM      2  C   UNL     1       1.344   6.780  21.382  0.00  0.00    +0.000 A 
ATOM      3  C   UNL     1       1.011   8.108  21.227  0.00  0.00    +0.000 A 
ATOM      4  C   UNL     1       1.526   8.520  19.984  0.00  0.00    +0.000 A 
ATOM      5  C   UNL     1       1.389   9.779  19.394  0.00  0.00    +0.000 A 
ATOM      6  C   UNL     1       1.880   9.887  18.082  0.00  0.00    +0.000 A 
ATOM      7  C   UNL     1       2.327   8.773  17.367  0.00  0.00    +0.000 A 
ATOM      8  C   UNL     1       2.393   7.507  17.957  0.00  0.00    +0.000 A 
ATOM      9  C   UNL     1       2.030   7.415  19.303  0.00  0.00    +0.000 A 
ATOM     10  N   UNL     1       0.670  10.797  20.052  0.00  0.00    +0.000 N 
ATOM     11  C   UNL     1      -0.299  11.400  19.133  0.00  0.00    +0.000 C 
ATOM     12  C   UNL     1      -1.346  12.341  19.719  0.00  0.00    +0.000 C 
ATOM     13  N   UNL     1      -1.615  12.385  21.141  0.00  0.00    +0.000 NA
ATOM     14  C   UNL     1      -0.963  11.375  21.968  0.00  0.00    +0.000 C 
ATOM     15  C   UNL     1       0.293  10.569  21.493  0.00  0.00    +0.000 C 
ATOM     16  C   UNL     1       0.157   9.069  21.987  0.00  0.00    +0.000 C 
ATOM     17  H   UNL     1      -2.623  12.373  21.299  0.00  0.00    +0.000 HD
ENDROOT
BRANCH   1  18
ATOM     18  S   UNL     1       2.362   4.764  19.856  0.00  0.00    +0.000 S 
ATOM     19  O   UNL     1       1.260   4.328  19.014  0.00  0.00    +0.000 OA
ATOM     20  O   UNL     1       2.638   4.128  21.131  0.00  0.00    +0.000 OA
BRANCH  18  27
ATOM     21  C   UNL     1       2.881   3.332  16.957  0.00  0.00    +0.000 C 
ATOM     22  C   UNL     1       3.994   4.053  17.651  0.00  0.00    +0.000 A 
ATOM     23  C   UNL     1       5.250   4.102  17.009  0.00  0.00    +0.000 A 
ATOM     24  C   UNL     1       6.332   4.800  17.558  0.00  0.00    +0.000 A 
ATOM     25  C   UNL     1       6.187   5.458  18.771  0.00  0.00    +0.000 A 
ATOM     26  C   UNL     1       4.968   5.401  19.446  0.00  0.00    +0.000 A 
ATOM     27  C   UNL     1       3.874   4.686  18.900  0.00  0.00    +0.000 A 
ENDBRANCH  18  27
ENDBRANCH   1  18
TORSDOF 2
ENDMDL
MODEL 4
REMARK VINA RESULT:      -7.6      4.706      8.474
REMARK  Name = 
REMARK  3 active torsions:
REMARK  status: ('A' for Active; 'I' for Inactive)
REMARK    1  A    between atoms: C_1  and  C_2
REMARK    2  A    between atoms: C_7  and  S_8
REMARK    3  A    between atoms: S_8  and  N_11
REMARK                            x       y       z     vdW  Elec       q    Type
REMARK                         _______ _______ _______ _____ _____    ______ ____
ROOT
ATOM      1  N   UNL     1       0.179  11.162  19.162  0.00  0.00    +0.000 N 
ATOM      2  C   UNL     1       0.909  10.652  18.097  0.00  0.00    +0.000 A 
ATOM      3  C   UNL     1       1.448   9.456  18.516  0.00  0.00    +0.000 A 
ATOM      4  C   UNL     1       1.085   9.290  19.865  0.00  0.00    +0.000 A 
ATOM      5  C   UNL     1       1.377   8.197  20.685  0.00  0.00    +0.000 A 
ATOM      6  C   UNL     1       0.776   8.217  21.955  0.00  0.00    +0.000 A 
ATOM      7  C   UNL     1      -0.171   9.182  22.308  0.00  0.00    +0.000 A 
ATOM      8  C   UNL     1      -0.498  10.231  21.445  0.00  0.00    +0.000 A 
ATOM      9  C   UNL     1       0.192  10.293  20.231  0.00  0.00    +0.000 A 
ATOM     10  N   UNL     1       2.108   7.104  20.177  0.00  0.00    +0.000 N 
ATOM     11  C   UNL     1       1.422   5.849  20.498  0.00  0.00    +0.000 C 
ATOM     12  C   UNL     1       1.914   4.575  19.822  0.00  0.00    +0.000 C 
ATOM     13  N   UNL     1       2.778   4.618  18.660  0.00  0.00    +0.000 NA
ATOM     14  C   UNL     1       3.020   5.928  18.065  0.00  0.00    +0.000 C 
ATOM     15  C   UNL     1       2.775   7.270  18.835  0.00  0.00    +0.000 C 
ATOM     16  C   UNL     1       2.154   8.331  17.835  0.00  0.00    +0.000 C 
ATOM     17  H   UNL     1       2.432   3.968  17.953  0.00  0.00    +0.000 HD
ENDROOT
BRANCH   1  18
ATOM     18  S   UNL     1      -0.868  12.500  19.026  0.00  0.00    +0.000 S 
ATOM     19  O   UNL     1      -0.441  13.162  17.804  0.00  0.00    +0.000 OA
ATOM     20  O   UNL     1      -0.816  13.173  20.311  0.00  0.00    +0.000 OA
BRANCH  18  27
ATOM     21  C   UNL     1      -2.006  10.199  16.993  0.00  0.00    +0.000 C 
ATOM     22  C   UNL     1      -2.941  10.923  17.909  0.00  0.00    +0.000 A 
ATOM     23  C   UNL     1      -4.307  10.569  17.873  0.00  0.00    +0.000 A 
ATOM     24  C   UNL     1      -5.244  11.154  18.733  0.00  0.00    +0.000 A 
ATOM     25  C   UNL     1      -4.838  12.119  19.644  0.00  0.00    +0.000 A 
ATOM     26  C   UNL     1      -3.502  12.514  19.683  0.00  0.00    +0.000 A 
ATOM     27  C   UNL     1      -2.552  11.933  18.807  0.00  0.00    +0.000 A 
ENDBRANCH  18  27
ENDBRANCH   1  18
TORSDOF 2
ENDMDL
MODEL 5
REMARK VINA RESULT:      -7.5      3.233      4.496
REMARK  Name = 
REMARK  3 active torsions:
REMARK  status: ('A' for Active; 'I' for Inactive)
REMARK    1  A    between atoms: C_1  and  C_2
REMARK    2  A    between atoms: C_7  and  S_8
REMARK    3  A    between atoms: S_8  and  N_11
REMARK                            x       y       z     vdW  Elec       q    Type
REMARK                         _______ _______ _______ _____ _____    ______ ____
ROOT
ATOM      1  N   UNL     1       2.681   7.282  18.674  0.00  0.00    +0.000 N 
ATOM      2  C   UNL     1       2.913   8.306  17.766  0.00  0.00    +0.000 A 
ATOM      3  C   UNL     1       2.187   9.394  18.194  0.00  0.00    +0.000 A 
ATOM      4  C   UNL     1       1.467   8.988  19.333  0.00  0.00    +0.000 A 
ATOM      5  C   UNL     1       0.630   9.780  20.123  0.00  0.00    +0.000 A 
ATOM      6  C   UNL     1       0.140   9.164  21.288  0.00  0.00    +0.000 A 
ATOM      7  C   UNL     1       0.588   7.907  21.702  0.00  0.00    +0.000 A 
ATOM      8  C   UNL     1       1.478   7.159  20.927  0.00  0.00    +0.000 A 
ATOM      9  C   UNL     1       1.869   7.708  19.703  0.00  0.00    +0.000 A 
ATOM     10  N   UNL     1       0.438  11.141  19.813  0.00  0.00    +0.000 N 
ATOM     11  C   UNL     1       0.633  11.961  21.011  0.00  0.00    +0.000 C 
ATOM     12  C   UNL     1       0.720  13.473  20.834  0.00  0.00    +0.000 C 
ATOM     13  N   UNL     1       0.952  14.072  19.535  0.00  0.00    +0.000 NA
ATOM     14  C   UNL     1       1.265  13.165  18.436  0.00  0.00    +0.000 C 
ATOM     15  C   UNL     1       0.941  11.633  18.480  0.00  0.00    +0.000 C 
ATOM     16  C   UNL     1       2.135  10.836  17.808  0.00  0.00    +0.000 C 
ATOM     17  H   UNL     1       1.672  14.791  19.614  0.00  0.00    +0.000 HD
ENDROOT
BRANCH   1  18
ATOM     18  S   UNL     1       3.565   5.825  18.690  0.00  0.00    +0.000 S 
ATOM     19  O   UNL     1       4.689   6.101  19.569  0.00  0.00    +0.000 OA
ATOM     20  O   UNL     1       3.762   5.468  17.296  0.00  0.00    +0.000 OA
BRANCH  18  27
ATOM     21  C   UNL     1       1.028   4.206  17.399  0.00  0.00    +0.000 C 
ATOM     22  C   UNL     1       1.507   3.878  18.778  0.00  0.00    +0.000 A 
ATOM     23  C   UNL     1       0.841   2.852  19.482  0.00  0.00    +0.000 A 
ATOM     24  C   UNL     1       1.256   2.441  20.754  0.00  0.00    +0.000 A 
ATOM     25  C   UNL     1       2.341   3.058  21.361  0.00  0.00    +0.000 A 
ATOM     26  C   UNL     1       2.999   4.098  20.706  0.00  0.00    +0.000 A 
ATOM     27  C   UNL     1       2.576   4.524  19.423  0.00  0.00    +0.000 A 
ENDBRANCH  18  27
ENDBRANCH   1  18
TORSDOF 2
ENDMDL
MODEL 6
REMARK VINA RESULT:      -7.5      1.541      2.325
REMARK  Name = 
REMARK  3 active torsions:
REMARK  status: ('A' for Active; 'I' for Inactive)
REMARK    1  A    between atoms: C_1  and  C_2
REMARK    2  A    between atoms: C_7  and  S_8
REMARK    3  A    between atoms: S_8  and  N_11
REMARK                            x       y       z     vdW  Elec       q    Type
REMARK                         _______ _______ _______ _____ _____    ______ ____
ROOT
ATOM      1  N   UNL     1       5.498   6.055  17.020  0.00  0.00    +0.000 N 
ATOM      2  C   UNL     1       4.919   7.252  16.622  0.00  0.00    +0.000 A 
ATOM      3  C   UNL     1       3.816   7.450  17.423  0.00  0.00    +0.000 A 
ATOM      4  C   UNL     1       3.706   6.325  18.260  0.00  0.00    +0.000 A 
ATOM      5  C   UNL     1       2.758   6.116  19.264  0.00  0.00    +0.000 A 
ATOM      6  C   UNL     1       2.955   4.967  20.051  0.00  0.00    +0.000 A 
ATOM      7  C   UNL     1       4.106   4.183  19.935  0.00  0.00    +0.000 A 
ATOM      8  C   UNL     1       5.076   4.451  18.966  0.00  0.00    +0.000 A 
ATOM      9  C   UNL     1       4.824   5.513  18.094  0.00  0.00    +0.000 A 
ATOM     10  N   UNL     1       1.775   7.091  19.528  0.00  0.00    +0.000 N 
ATOM     11  C   UNL     1       1.722   7.374  20.965  0.00  0.00    +0.000 C 
ATOM     12  C   UNL     1       0.907   8.577  21.425  0.00  0.00    +0.000 C 
ATOM     13  N   UNL     1       0.485   9.606  20.497  0.00  0.00    +0.000 NA
ATOM     14  C   UNL     1       1.014   9.529  19.139  0.00  0.00    +0.000 C 
ATOM     15  C   UNL     1       1.623   8.217  18.538  0.00  0.00    +0.000 C 
ATOM     16  C   UNL     1       2.885   8.594  17.657  0.00  0.00    +0.000 C 
ATOM     17  H   UNL     1       0.674  10.525  20.897  0.00  0.00    +0.000 HD
ENDROOT
BRANCH   1  18
ATOM     18  S   UNL     1       7.026   5.527  16.481  0.00  0.00    +0.000 S 
ATOM     19  O   UNL     1       7.365   4.439  17.384  0.00  0.00    +0.000 OA
ATOM     20  O   UNL     1       7.847   6.722  16.394  0.00  0.00    +0.000 OA
BRANCH  18  27
ATOM     21  C   UNL     1       4.922   3.300  15.327  0.00  0.00    +0.000 C 
ATOM     22  C   UNL     1       5.939   3.916  14.419  0.00  0.00    +0.000 A 
ATOM     23  C   UNL     1       5.945   3.516  13.065  0.00  0.00    +0.000 A 
ATOM     24  C   UNL     1       6.823   4.081  12.133  0.00  0.00    +0.000 A 
ATOM     25  C   UNL     1       7.729   5.052  12.536  0.00  0.00    +0.000 A 
ATOM     26  C   UNL     1       7.770   5.445  13.873  0.00  0.00    +0.000 A 
ATOM     27  C   UNL     1       6.891   4.869  14.822  0.00  0.00    +0.000 A 
ENDBRANCH  18  27
ENDBRANCH   1  18
TORSDOF 2
ENDMDL
MODEL 7
REMARK VINA RESULT:      -7.4      4.177      7.897
REMARK  Name = 
REMARK  3 active torsions:
REMARK  status: ('A' for Active; 'I' for Inactive)
REMARK    1  A    between atoms: C_1  and  C_2
REMARK    2  A    between atoms: C_7  and  S_8
REMARK    3  A    between atoms: S_8  and  N_11
REMARK                            x       y       z     vdW  Elec       q    Type
REMARK                         _______ _______ _______ _____ _____    ______ ____
ROOT
ATOM      1  N   UNL     1       1.101  10.414  19.057  0.00  0.00    +0.000 N 
ATOM      2  C   UNL     1       1.942  10.120  17.992  0.00  0.00    +0.000 A 
ATOM      3  C   UNL     1       2.410   8.840  18.193  0.00  0.00    +0.000 A 
ATOM      4  C   UNL     1       1.891   8.398  19.423  0.00  0.00    +0.000 A 
ATOM      5  C   UNL     1       2.070   7.141  20.007  0.00  0.00    +0.000 A 
ATOM      6  C   UNL     1       1.325   6.908  21.176  0.00  0.00    +0.000 A 
ATOM      7  C   UNL     1       0.359   7.809  21.628  0.00  0.00    +0.000 A 
ATOM      8  C   UNL     1       0.150   9.034  20.988  0.00  0.00    +0.000 A 
ATOM      9  C   UNL     1       0.977   9.332  19.902  0.00  0.00    +0.000 A 
ATOM     10  N   UNL     1       2.838   6.157  19.353  0.00  0.00    +0.000 N 
ATOM     11  C   UNL     1       2.100   4.892  19.310  0.00  0.00    +0.000 C 
ATOM     12  C   UNL     1       2.648   3.777  18.427  0.00  0.00    +0.000 C 
ATOM     13  N   UNL     1       3.641   4.038  17.405  0.00  0.00    +0.000 NA
ATOM     14  C   UNL     1       3.971   5.435  17.146  0.00  0.00    +0.000 C 
ATOM     15  C   UNL     1       3.658   6.585  18.163  0.00  0.00    +0.000 C 
ATOM     16  C   UNL     1       3.174   7.863  17.360  0.00  0.00    +0.000 C 
ATOM     17  H   UNL     1       3.370   3.573  16.538  0.00  0.00    +0.000 HD
ENDROOT
BRANCH   1  18
ATOM     18  S   UNL     1       0.097  11.790  19.107  0.00  0.00    +0.000 S 
ATOM     19  O   UNL     1       0.660  12.676  18.101  0.00  0.00    +0.000 OA
ATOM     20  O   UNL     1       0.028  12.176  20.504  0.00  0.00    +0.000 OA
BRANCH  18  27
ATOM     21  C   UNL     1      -2.746  13.092  20.077  0.00  0.00    +0.000 C 
ATOM     22  C   UNL     1      -2.730  11.978  19.077  0.00  0.00    +0.000 A 
ATOM     23  C   UNL     1      -3.968  11.530  18.567  0.00  0.00    +0.000 A 
ATOM     24  C   UNL     1      -4.045  10.533  17.588  0.00  0.00    +0.000 A 
ATOM     25  C   UNL     1      -2.883   9.948  17.103  0.00  0.00    +0.000 A 
ATOM     26  C   UNL     1      -1.647  10.346  17.610  0.00  0.00    +0.000 A 
ATOM     27  C   UNL     1      -1.565  11.347  18.609  0.00  0.00    +0.000 A 
ENDBRANCH  18  27
ENDBRANCH   1  18
TORSDOF 2
ENDMDL
MODEL 8
REMARK VINA RESULT:      -7.4      2.962      5.169
REMARK  Name = 
REMARK  3 active torsions:
REMARK  status: ('A' for Active; 'I' for Inactive)
REMARK    1  A    between atoms: C_1  and  C_2
REMARK    2  A    between atoms: C_7  and  S_8
REMARK    3  A    between atoms: S_8  and  N_11
REMARK                            x       y       z     vdW  Elec       q    Type
REMARK                         _______ _______ _______ _____ _____    ______ ____
ROOT
ATOM      1  N   UNL     1       2.050   7.313  19.637  0.00  0.00    +0.000 N 
ATOM      2  C   UNL     1       1.482   7.186  20.897  0.00  0.00    +0.000 A 
ATOM      3  C   UNL     1       0.951   8.414  21.224  0.00  0.00    +0.000 A 
ATOM      4  C   UNL     1       1.266   9.293  20.172  0.00  0.00    +0.000 A 
ATOM      5  C   UNL     1       0.889  10.633  20.057  0.00  0.00    +0.000 A 
ATOM      6  C   UNL     1       1.216  11.249  18.836  0.00  0.00    +0.000 A 
ATOM      7  C   UNL     1       1.735  10.525  17.760  0.00  0.00    +0.000 A 
ATOM      8  C   UNL     1       2.043   9.167  17.877  0.00  0.00    +0.000 A 
ATOM      9  C   UNL     1       1.844   8.577  19.127  0.00  0.00    +0.000 A 
ATOM     10  N   UNL     1       0.108  11.241  21.061  0.00  0.00    +0.000 N 
ATOM     11  C   UNL     1      -1.029  11.939  20.457  0.00  0.00    +0.000 C 
ATOM     12  C   UNL     1      -2.129  12.443  21.385  0.00  0.00    +0.000 C 
ATOM     13  N   UNL     1      -2.247  11.970  22.748  0.00  0.00    +0.000 NA
ATOM     14  C   UNL     1      -1.374  10.870  23.144  0.00  0.00    +0.000 C 
ATOM     15  C   UNL     1      -0.075  10.490  22.355  0.00  0.00    +0.000 C 
ATOM     16  C   UNL     1       0.057   8.911  22.312  0.00  0.00    +0.000 C 
ATOM     17  H   UNL     1      -3.220  11.736  22.946  0.00  0.00    +0.000 HD
ENDROOT
BRANCH   1  18
ATOM     18  S   UNL     1       2.604   5.988  18.721  0.00  0.00    +0.000 S 
ATOM     19  O   UNL     1       3.988   6.318  18.420  0.00  0.00    +0.000 OA
ATOM     20  O   UNL     1       1.624   5.799  17.667  0.00  0.00    +0.000 OA
BRANCH  18  27
ATOM     21  C   UNL     1       4.976   3.773  19.159  0.00  0.00    +0.000 C 
ATOM     22  C   UNL     1       3.661   3.616  19.857  0.00  0.00    +0.000 A 
ATOM     23  C   UNL     1       3.493   2.502  20.707  0.00  0.00    +0.000 A 
ATOM     24  C   UNL     1       2.318   2.306  21.442  0.00  0.00    +0.000 A 
ATOM     25  C   UNL     1       1.274   3.214  21.333  0.00  0.00    +0.000 A 
ATOM     26  C   UNL     1       1.397   4.307  20.477  0.00  0.00    +0.000 A 
ATOM     27  C   UNL     1       2.580   4.504  19.723  0.00  0.00    +0.000 A 
ENDBRANCH  18  27
ENDBRANCH   1  18
TORSDOF 2
ENDMDL
MODEL 9
REMARK VINA RESULT:      -7.3      3.018      3.841
REMARK  Name = 
REMARK  3 active torsions:
REMARK  status: ('A' for Active; 'I' for Inactive)
REMARK    1  A    between atoms: C_1  and  C_2
REMARK    2  A    between atoms: C_7  and  S_8
REMARK    3  A    between atoms: S_8  and  N_11
REMARK                            x       y       z     vdW  Elec       q    Type
REMARK                         _______ _______ _______ _____ _____    ______ ____
ROOT
ATOM      1  N   UNL     1       2.900   7.138  18.390  0.00  0.00    +0.000 N 
ATOM      2  C   UNL     1       3.017   8.231  17.542  0.00  0.00    +0.000 A 
ATOM      3  C   UNL     1       2.246   9.239  18.079  0.00  0.00    +0.000 A 
ATOM      4  C   UNL     1       1.617   8.713  19.222  0.00  0.00    +0.000 A 
ATOM      5  C   UNL     1       0.775   9.395  20.104  0.00  0.00    +0.000 A 
ATOM      6  C   UNL     1       0.390   8.674  21.248  0.00  0.00    +0.000 A 
ATOM      7  C   UNL     1       0.939   7.427  21.554  0.00  0.00    +0.000 A 
ATOM      8  C   UNL     1       1.832   6.792  20.687  0.00  0.00    +0.000 A 
ATOM      9  C   UNL     1       2.120   7.443  19.484  0.00  0.00    +0.000 A 
ATOM     10  N   UNL     1       0.480  10.757  19.896  0.00  0.00    +0.000 N 
ATOM     11  C   UNL     1       0.686  11.511  21.135  0.00  0.00    +0.000 C 
ATOM     12  C   UNL     1       0.667  13.033  21.056  0.00  0.00    +0.000 C 
ATOM     13  N   UNL     1       0.790  13.727  19.791  0.00  0.00    +0.000 NA
ATOM     14  C   UNL     1       1.099  12.915  18.618  0.00  0.00    +0.000 C 
ATOM     15  C   UNL     1       0.877  11.366  18.575  0.00  0.00    +0.000 C 
ATOM     16  C   UNL     1       2.082  10.695  17.793  0.00  0.00    +0.000 C 
ATOM     17  H   UNL     1       1.465  14.487  19.882  0.00  0.00    +0.000 HD
ENDROOT
BRANCH   1  18
ATOM     18  S   UNL     1       3.875   5.746  18.264  0.00  0.00    +0.000 S 
ATOM     19  O   UNL     1       4.790   5.850  19.389  0.00  0.00    +0.000 OA
ATOM     20  O   UNL     1       4.356   5.724  16.894  0.00  0.00    +0.000 OA
BRANCH  18  27
ATOM     21  C   UNL     1       4.682   2.900  19.668  0.00  0.00    +0.000 C 
ATOM     22  C   UNL     1       3.307   3.103  19.114  0.00  0.00    +0.000 A 
ATOM     23  C   UNL     1       2.384   2.041  19.232  0.00  0.00    +0.000 A 
ATOM     24  C   UNL     1       1.061   2.162  18.793  0.00  0.00    +0.000 A 
ATOM     25  C   UNL     1       0.630   3.346  18.211  0.00  0.00    +0.000 A 
ATOM     26  C   UNL     1       1.527   4.401  18.050  0.00  0.00    +0.000 A 
ATOM     27  C   UNL     1       2.870   4.280  18.483  0.00  0.00    +0.000 A 
ENDBRANCH  18  27
ENDBRANCH   1  18
TORSDOF 2
ENDMDL
