MODEL 1
REMARK VINA RESULT:      -8.4      0.000      0.000
REMARK  Name = 
REMARK  0 active torsions:
REMARK  status: ('A' for Active; 'I' for Inactive)
REMARK                            x       y       z     vdW  Elec       q    Type
REMARK                         _______ _______ _______ _____ _____    ______ ____
ROOT
ATOM      1 CL   UNL     1      -2.131  12.668  23.118  0.00  0.00    +0.000 Cl
ATOM      2  C   UNL     1      -1.171  11.364  22.540  0.00  0.00    +0.000 A 
ATOM      3  C   UNL     1      -0.760  10.361  23.406  0.00  0.00    +0.000 A 
ATOM      4  C   UNL     1      -0.003   9.294  22.911  0.00  0.00    +0.000 A 
ATOM      5  C   UNL     1       0.369   9.219  21.569  0.00  0.00    +0.000 A 
ATOM      6  N   UNL     1       1.089   8.170  21.102  0.00  0.00    +0.000 NA
ATOM      7  C   UNL     1       1.487   8.218  19.808  0.00  0.00    +0.000 A 
ATOM      8  C   UNL     1       1.156   9.355  19.009  0.00  0.00    +0.000 A 
ATOM      9  N   UNL     1       0.383  10.358  19.453  0.00  0.00    +0.000 NA
ATOM     10  C   UNL     1      -0.022  10.282  20.724  0.00  0.00    +0.000 A 
ATOM     11  C   UNL     1      -0.794  11.322  21.207  0.00  0.00    +0.000 A 
ATOM     12  N   UNL     1       1.602   9.500  17.683  0.00  0.00    +0.000 N 
ATOM     13  C   UNL     1       2.894   8.848  17.492  0.00  0.00    +0.000 C 
ATOM     14  C   UNL     1       2.747   7.370  17.901  0.00  0.00    +0.000 C 
ATOM     15  C   UNL     1       3.917   6.440  17.673  0.00  0.00    +0.000 A 
ATOM     16  C   UNL     1       5.217   6.809  17.337  0.00  0.00    +0.000 A 
ATOM     17  C   UNL     1       6.148   5.818  17.022  0.00  0.00    +0.000 A 
ATOM     18  C   UNL     1       5.766   4.473  16.990  0.00  0.00    +0.000 A 
ATOM     19  C   UNL     1       4.498   4.093  17.423  0.00  0.00    +0.000 A 
ATOM     20  C   UNL     1       3.616   5.075  17.865  0.00  0.00    +0.000 A 
ATOM     21  C   UNL     1       2.359   4.781  18.663  0.00  0.00    +0.000 C 
ATOM     22  C   UNL     1       2.239   5.833  19.817  0.00  0.00    +0.000 C 
ATOM     23  N   UNL     1       2.313   7.210  19.299  0.00  0.00    +0.000 N 
ATOM     24  H   UNL     1       1.493  10.468  17.409  0.00  0.00    +0.000 HD
ENDROOT
TORSDOF 0
ENDMDL
MODEL 2
REMARK VINA RESULT:      -8.0      3.381      7.037
REMARK  Name = 
REMARK  0 active torsions:
REMARK  status: ('A' for Active; 'I' for Inactive)
REMARK                            x       y       z     vdW  Elec       q    Type
REMARK                         _______ _______ _______ _____ _____    ______ ____
ROOT
ATOM      1 CL   UNL     1       4.774   1.298  19.879  0.00  0.00    +0.000 Cl
ATOM      2  C   UNL     1       3.822   2.703  20.148  0.00  0.00    +0.000 A 
ATOM      3  C   UNL     1       2.848   2.709  21.136  0.00  0.00    +0.000 A 
ATOM      4  C   UNL     1       2.102   3.871  21.358  0.00  0.00    +0.000 A 
ATOM      5  C   UNL     1       2.297   5.024  20.598  0.00  0.00    +0.000 A 
ATOM      6  N   UNL     1       1.578   6.148  20.838  0.00  0.00    +0.000 NA
ATOM      7  C   UNL     1       1.763   7.194  19.998  0.00  0.00    +0.000 A 
ATOM      8  C   UNL     1       2.676   7.070  18.905  0.00  0.00    +0.000 A 
ATOM      9  N   UNL     1       3.438   5.982  18.713  0.00  0.00    +0.000 NA
ATOM     10  C   UNL     1       3.261   4.970  19.567  0.00  0.00    +0.000 A 
ATOM     11  C   UNL     1       4.018   3.831  19.365  0.00  0.00    +0.000 A 
ATOM     12  N   UNL     1       2.858   8.090  17.955  0.00  0.00    +0.000 N 
ATOM     13  C   UNL     1       1.630   8.860  17.773  0.00  0.00    +0.000 C 
ATOM     14  C   UNL     1       1.204   9.410  19.148  0.00  0.00    +0.000 C 
ATOM     15  C   UNL     1       0.025  10.354  19.211  0.00  0.00    +0.000 A 
ATOM     16  C   UNL     1      -0.881  10.620  18.187  0.00  0.00    +0.000 A 
ATOM     17  C   UNL     1      -1.832  11.627  18.361  0.00  0.00    +0.000 A 
ATOM     18  C   UNL     1      -1.840  12.397  19.528  0.00  0.00    +0.000 A 
ATOM     19  C   UNL     1      -1.003  12.069  20.592  0.00  0.00    +0.000 A 
ATOM     20  C   UNL     1      -0.149  10.977  20.464  0.00  0.00    +0.000 A 
ATOM     21  C   UNL     1       0.553  10.315  21.635  0.00  0.00    +0.000 C 
ATOM     22  C   UNL     1       0.470   8.761  21.457  0.00  0.00    +0.000 C 
ATOM     23  N   UNL     1       0.978   8.344  20.139  0.00  0.00    +0.000 N 
ATOM     24  H   UNL     1       3.319   7.699  17.144  0.00  0.00    +0.000 HD
ENDROOT
TORSDOF 0
ENDMDL
MODEL 3
REMARK VINA RESULT:      -7.8      1.420      2.959
REMARK  Name = 
REMARK  0 active torsions:
REMARK  status: ('A' for Active; 'I' for Inactive)
REMARK                            x       y       z     vdW  Elec       q    Type
REMARK                         _______ _______ _______ _____ _____    ______ ____
ROOT
ATOM      1 CL   UNL     1      -1.632  14.377  21.540  0.00  0.00    +0.000 Cl
ATOM      2  C   UNL     1      -0.862  13.104  20.682  0.00  0.00    +0.000 A 
ATOM      3  C   UNL     1      -0.756  13.156  19.299  0.00  0.00    +0.000 A 
ATOM      4  C   UNL     1      -0.101  12.123  18.621  0.00  0.00    +0.000 A 
ATOM      5  C   UNL     1       0.435  11.027  19.295  0.00  0.00    +0.000 A 
ATOM      6  N   UNL     1       1.083  10.043  18.624  0.00  0.00    +0.000 NA
ATOM      7  C   UNL     1       1.494   8.970  19.342  0.00  0.00    +0.000 A 
ATOM      8  C   UNL     1       1.221   8.910  20.743  0.00  0.00    +0.000 A 
ATOM      9  N   UNL     1       0.644   9.917  21.417  0.00  0.00    +0.000 NA
ATOM     10  C   UNL     1       0.268  10.978  20.697  0.00  0.00    +0.000 A 
ATOM     11  C   UNL     1      -0.355  12.013  21.371  0.00  0.00    +0.000 A 
ATOM     12  N   UNL     1       1.554   7.793  21.529  0.00  0.00    +0.000 N 
ATOM     13  C   UNL     1       1.503   6.565  20.741  0.00  0.00    +0.000 C 
ATOM     14  C   UNL     1       2.446   6.734  19.534  0.00  0.00    +0.000 C 
ATOM     15  C   UNL     1       2.672   5.545  18.627  0.00  0.00    +0.000 A 
ATOM     16  C   UNL     1       1.946   4.357  18.619  0.00  0.00    +0.000 A 
ATOM     17  C   UNL     1       2.374   3.301  17.812  0.00  0.00    +0.000 A 
ATOM     18  C   UNL     1       3.549   3.415  17.063  0.00  0.00    +0.000 A 
ATOM     19  C   UNL     1       4.220   4.633  16.991  0.00  0.00    +0.000 A 
ATOM     20  C   UNL     1       3.713   5.723  17.691  0.00  0.00    +0.000 A 
ATOM     21  C   UNL     1       4.136   7.159  17.438  0.00  0.00    +0.000 C 
ATOM     22  C   UNL     1       2.861   8.068  17.452  0.00  0.00    +0.000 C 
ATOM     23  N   UNL     1       2.081   7.882  18.687  0.00  0.00    +0.000 N 
ATOM     24  H   UNL     1       1.039   7.843  22.398  0.00  0.00    +0.000 HD
ENDROOT
TORSDOF 0
ENDMDL
MODEL 4
REMARK VINA RESULT:      -7.7      0.931      1.054
REMARK  Name = 
REMARK  0 active torsions:
REMARK  status: ('A' for Active; 'I' for Inactive)
REMARK                            x       y       z     vdW  Elec       q    Type
REMARK                         _______ _______ _______ _____ _____    ______ ____
ROOT
ATOM      1 CL   UNL     1      -1.906  13.693  22.141  0.00  0.00    +0.000 Cl
ATOM      2  C   UNL     1      -1.116  12.185  21.910  0.00  0.00    +0.000 A 
ATOM      3  C   UNL     1      -0.950  11.311  22.975  0.00  0.00    +0.000 A 
ATOM      4  C   UNL     1      -0.329  10.076  22.760  0.00  0.00    +0.000 A 
ATOM      5  C   UNL     1       0.149   9.704  21.505  0.00  0.00    +0.000 A 
ATOM      6  N   UNL     1       0.733   8.497  21.310  0.00  0.00    +0.000 NA
ATOM      7  C   UNL     1       1.252   8.249  20.084  0.00  0.00    +0.000 A 
ATOM      8  C   UNL     1       1.182   9.254  19.070  0.00  0.00    +0.000 A 
ATOM      9  N   UNL     1       0.539  10.420  19.244  0.00  0.00    +0.000 NA
ATOM     10  C   UNL     1       0.012  10.636  20.452  0.00  0.00    +0.000 A 
ATOM     11  C   UNL     1      -0.628  11.845  20.657  0.00  0.00    +0.000 A 
ATOM     12  N   UNL     1       1.765   9.089  17.802  0.00  0.00    +0.000 N 
ATOM     13  C   UNL     1       2.950   8.238  17.879  0.00  0.00    +0.000 C 
ATOM     14  C   UNL     1       2.533   6.896  18.511  0.00  0.00    +0.000 C 
ATOM     15  C   UNL     1       3.558   5.786  18.584  0.00  0.00    +0.000 A 
ATOM     16  C   UNL     1       4.925   5.903  18.348  0.00  0.00    +0.000 A 
ATOM     17  C   UNL     1       5.713   4.751  18.318  0.00  0.00    +0.000 A 
ATOM     18  C   UNL     1       5.127   3.490  18.468  0.00  0.00    +0.000 A 
ATOM     19  C   UNL     1       3.780   3.377  18.804  0.00  0.00    +0.000 A 
ATOM     20  C   UNL     1       3.028   4.536  18.966  0.00  0.00    +0.000 A 
ATOM     21  C   UNL     1       1.672   4.572  19.646  0.00  0.00    +0.000 C 
ATOM     22  C   UNL     1       1.614   5.825  20.584  0.00  0.00    +0.000 C 
ATOM     23  N   UNL     1       1.952   7.059  19.854  0.00  0.00    +0.000 N 
ATOM     24  H   UNL     1       1.837   9.995  17.358  0.00  0.00    +0.000 HD
ENDROOT
TORSDOF 0
ENDMDL
MODEL 5
REMARK VINA RESULT:      -7.4      3.154      7.604
REMARK  Name = 
REMARK  0 active torsions:
REMARK  status: ('A' for Active; 'I' for Inactive)
REMARK                            x       y       z     vdW  Elec       q    Type
REMARK                         _______ _______ _______ _____ _____    ______ ____
ROOT
ATOM      1 CL   UNL     1       6.600   4.004  17.003  0.00  0.00    +0.000 Cl
ATOM      2  C   UNL     1       5.465   5.275  17.223  0.00  0.00    +0.000 A 
ATOM      3  C   UNL     1       5.374   6.301  16.293  0.00  0.00    +0.000 A 
ATOM      4  C   UNL     1       4.424   7.312  16.476  0.00  0.00    +0.000 A 
ATOM      5  C   UNL     1       3.575   7.329  17.581  0.00  0.00    +0.000 A 
ATOM      6  N   UNL     1       2.648   8.306  17.734  0.00  0.00    +0.000 NA
ATOM      7  C   UNL     1       1.925   8.302  18.880  0.00  0.00    +0.000 A 
ATOM      8  C   UNL     1       2.174   7.300  19.869  0.00  0.00    +0.000 A 
ATOM      9  N   UNL     1       3.041   6.292  19.683  0.00  0.00    +0.000 NA
ATOM     10  C   UNL     1       3.726   6.299  18.536  0.00  0.00    +0.000 A 
ATOM     11  C   UNL     1       4.645   5.284  18.342  0.00  0.00    +0.000 A 
ATOM     12  N   UNL     1       1.511   7.283  21.108  0.00  0.00    +0.000 N 
ATOM     13  C   UNL     1       1.171   8.637  21.537  0.00  0.00    +0.000 C 
ATOM     14  C   UNL     1       0.322   9.289  20.429  0.00  0.00    +0.000 C 
ATOM     15  C   UNL     1      -0.270  10.656  20.687  0.00  0.00    +0.000 A 
ATOM     16  C   UNL     1       0.047  11.513  21.737  0.00  0.00    +0.000 A 
ATOM     17  C   UNL     1      -0.695  12.683  21.912  0.00  0.00    +0.000 A 
ATOM     18  C   UNL     1      -1.779  12.964  21.075  0.00  0.00    +0.000 A 
ATOM     19  C   UNL     1      -2.035  12.162  19.965  0.00  0.00    +0.000 A 
ATOM     20  C   UNL     1      -1.208  11.071  19.718  0.00  0.00    +0.000 A 
ATOM     21  C   UNL     1      -1.162  10.332  18.393  0.00  0.00    +0.000 C 
ATOM     22  C   UNL     1       0.334  10.036  18.035  0.00  0.00    +0.000 C 
ATOM     23  N   UNL     1       1.023   9.340  19.135  0.00  0.00    +0.000 N 
ATOM     24  H   UNL     1       2.021   6.680  21.740  0.00  0.00    +0.000 HD
ENDROOT
TORSDOF 0
ENDMDL
MODEL 6
REMARK VINA RESULT:      -7.4      3.039      7.973
REMARK  Name = 
REMARK  0 active torsions:
REMARK  status: ('A' for Active; 'I' for Inactive)
REMARK                            x       y       z     vdW  Elec       q    Type
REMARK                         _______ _______ _______ _____ _____    ______ ____
ROOT
ATOM      1 CL   UNL     1       4.231   5.679  17.473  0.00  0.00    +0.000 Cl
ATOM      2  C   UNL     1       3.150   6.623  18.419  0.00  0.00    +0.000 A 
ATOM      3  C   UNL     1       2.715   6.162  19.653  0.00  0.00    +0.000 A 
ATOM      4  C   UNL     1       1.857   6.957  20.420  0.00  0.00    +0.000 A 
ATOM      5  C   UNL     1       1.408   8.198  19.970  0.00  0.00    +0.000 A 
ATOM      6  N   UNL     1       0.591   8.963  20.733  0.00  0.00    +0.000 NA
ATOM      7  C   UNL     1       0.128  10.113  20.185  0.00  0.00    +0.000 A 
ATOM      8  C   UNL     1       0.496  10.457  18.848  0.00  0.00    +0.000 A 
ATOM      9  N   UNL     1       1.362   9.733  18.121  0.00  0.00    +0.000 NA
ATOM     10  C   UNL     1       1.829   8.617  18.687  0.00  0.00    +0.000 A 
ATOM     11  C   UNL     1       2.699   7.844  17.941  0.00  0.00    +0.000 A 
ATOM     12  N   UNL     1      -0.010  11.595  18.196  0.00  0.00    +0.000 N 
ATOM     13  C   UNL     1      -1.354  11.915  18.669  0.00  0.00    +0.000 C 
ATOM     14  C   UNL     1      -1.291  12.095  20.197  0.00  0.00    +0.000 C 
ATOM     15  C   UNL     1      -2.536  12.560  20.918  0.00  0.00    +0.000 A 
ATOM     16  C   UNL     1      -3.822  12.634  20.390  0.00  0.00    +0.000 A 
ATOM     17  C   UNL     1      -4.839  13.221  21.146  0.00  0.00    +0.000 A 
ATOM     18  C   UNL     1      -4.557  13.778  22.397  0.00  0.00    +0.000 A 
ATOM     19  C   UNL     1      -3.298  13.616  22.971  0.00  0.00    +0.000 A 
ATOM     20  C   UNL     1      -2.325  12.911  22.268  0.00  0.00    +0.000 A 
ATOM     21  C   UNL     1      -1.051  12.379  22.898  0.00  0.00    +0.000 C 
ATOM     22  C   UNL     1      -0.793  10.930  22.362  0.00  0.00    +0.000 C 
ATOM     23  N   UNL     1      -0.795  10.893  20.890  0.00  0.00    +0.000 N 
ATOM     24  H   UNL     1       0.154  11.499  17.202  0.00  0.00    +0.000 HD
ENDROOT
TORSDOF 0
ENDMDL
MODEL 7
REMARK VINA RESULT:      -7.3      1.157      2.790
REMARK  Name = 
REMARK  0 active torsions:
REMARK  status: ('A' for Active; 'I' for Inactive)
REMARK                            x       y       z     vdW  Elec       q    Type
REMARK                         _______ _______ _______ _____ _____    ______ ____
ROOT
ATOM      1 CL   UNL     1      -1.931  11.855  22.316  0.00  0.00    +0.000 Cl
ATOM      2  C   UNL     1      -0.875  11.012  21.253  0.00  0.00    +0.000 A 
ATOM      3  C   UNL     1      -0.637  11.496  19.975  0.00  0.00    +0.000 A 
ATOM      4  C   UNL     1       0.247  10.811  19.135  0.00  0.00    +0.000 A 
ATOM      5  C   UNL     1       0.884   9.638  19.540  0.00  0.00    +0.000 A 
ATOM      6  N   UNL     1       1.751   8.996  18.720  0.00  0.00    +0.000 NA
ATOM      7  C   UNL     1       2.258   7.817  19.154  0.00  0.00    +0.000 A 
ATOM      8  C   UNL     1       1.853   7.298  20.423  0.00  0.00    +0.000 A 
ATOM      9  N   UNL     1       1.051   7.971  21.263  0.00  0.00    +0.000 NA
ATOM     10  C   UNL     1       0.582   9.144  20.829  0.00  0.00    +0.000 A 
ATOM     11  C   UNL     1      -0.270   9.836  21.670  0.00  0.00    +0.000 A 
ATOM     12  N   UNL     1       2.283   6.047  20.898  0.00  0.00    +0.000 N 
ATOM     13  C   UNL     1       2.517   5.121  19.793  0.00  0.00    +0.000 C 
ATOM     14  C   UNL     1       3.540   5.767  18.838  0.00  0.00    +0.000 C 
ATOM     15  C   UNL     1       4.053   4.951  17.673  0.00  0.00    +0.000 A 
ATOM     16  C   UNL     1       3.537   3.740  17.218  0.00  0.00    +0.000 A 
ATOM     17  C   UNL     1       4.215   3.043  16.217  0.00  0.00    +0.000 A 
ATOM     18  C   UNL     1       5.427   3.527  15.715  0.00  0.00    +0.000 A 
ATOM     19  C   UNL     1       5.892   4.785  16.094  0.00  0.00    +0.000 A 
ATOM     20  C   UNL     1       5.141   5.536  16.994  0.00  0.00    +0.000 A 
ATOM     21  C   UNL     1       5.346   7.022  17.227  0.00  0.00    +0.000 C 
ATOM     22  C   UNL     1       3.944   7.715  17.310  0.00  0.00    +0.000 C 
ATOM     23  N   UNL     1       3.081   7.064  18.310  0.00  0.00    +0.000 N 
ATOM     24  H   UNL     1       1.679   5.763  21.658  0.00  0.00    +0.000 HD
ENDROOT
TORSDOF 0
ENDMDL
MODEL 8
REMARK VINA RESULT:      -7.2      1.657      2.142
REMARK  Name = 
REMARK  0 active torsions:
REMARK  status: ('A' for Active; 'I' for Inactive)
REMARK                            x       y       z     vdW  Elec       q    Type
REMARK                         _______ _______ _______ _____ _____    ______ ____
ROOT
ATOM      1 CL   UNL     1      -0.551  14.464  20.285  0.00  0.00    +0.000 Cl
ATOM      2  C   UNL     1      -0.074  12.823  20.466  0.00  0.00    +0.000 A 
ATOM      3  C   UNL     1      -0.162  12.202  21.704  0.00  0.00    +0.000 A 
ATOM      4  C   UNL     1       0.205  10.857  21.826  0.00  0.00    +0.000 A 
ATOM      5  C   UNL     1       0.677  10.125  20.738  0.00  0.00    +0.000 A 
ATOM      6  N   UNL     1       1.012   8.818  20.869  0.00  0.00    +0.000 NA
ATOM      7  C   UNL     1       1.548   8.203  19.787  0.00  0.00    +0.000 A 
ATOM      8  C   UNL     1       1.752   8.945  18.582  0.00  0.00    +0.000 A 
ATOM      9  N   UNL     1       1.354  10.217  18.433  0.00  0.00    +0.000 NA
ATOM     10  C   UNL     1       0.804  10.799  19.503  0.00  0.00    +0.000 A 
ATOM     11  C   UNL     1       0.414  12.120  19.375  0.00  0.00    +0.000 A 
ATOM     12  N   UNL     1       2.371   8.387  17.450  0.00  0.00    +0.000 N 
ATOM     13  C   UNL     1       3.348   7.372  17.835  0.00  0.00    +0.000 C 
ATOM     14  C   UNL     1       2.623   6.312  18.687  0.00  0.00    +0.000 C 
ATOM     15  C   UNL     1       3.391   5.078  19.105  0.00  0.00    +0.000 A 
ATOM     16  C   UNL     1       4.765   4.881  19.002  0.00  0.00    +0.000 A 
ATOM     17  C   UNL     1       5.299   3.627  19.303  0.00  0.00    +0.000 A 
ATOM     18  C   UNL     1       4.458   2.565  19.652  0.00  0.00    +0.000 A 
ATOM     19  C   UNL     1       3.098   2.785  19.854  0.00  0.00    +0.000 A 
ATOM     20  C   UNL     1       2.591   4.070  19.683  0.00  0.00    +0.000 A 
ATOM     21  C   UNL     1       1.230   4.512  20.187  0.00  0.00    +0.000 C 
ATOM     22  C   UNL     1       1.369   5.935  20.826  0.00  0.00    +0.000 C 
ATOM     23  N   UNL     1       2.001   6.884  19.893  0.00  0.00    +0.000 N 
ATOM     24  H   UNL     1       2.657   9.137  16.834  0.00  0.00    +0.000 HD
ENDROOT
TORSDOF 0
ENDMDL
MODEL 9
REMARK VINA RESULT:      -7.2      2.977      8.339
REMARK  Name = 
REMARK  0 active torsions:
REMARK  status: ('A' for Active; 'I' for Inactive)
REMARK                            x       y       z     vdW  Elec       q    Type
REMARK                         _______ _______ _______ _____ _____    ______ ____
ROOT
ATOM      1 CL   UNL     1       3.964   5.528  18.343  0.00  0.00    +0.000 Cl
ATOM      2  C   UNL     1       2.979   6.905  18.635  0.00  0.00    +0.000 A 
ATOM      3  C   UNL     1       2.948   7.949  17.722  0.00  0.00    +0.000 A 
ATOM      4  C   UNL     1       2.119   9.050  17.965  0.00  0.00    +0.000 A 
ATOM      5  C   UNL     1       1.334   9.138  19.114  0.00  0.00    +0.000 A 
ATOM      6  N   UNL     1       0.523  10.203  19.325  0.00  0.00    +0.000 NA
ATOM      7  C   UNL     1      -0.136  10.256  20.507  0.00  0.00    +0.000 A 
ATOM      8  C   UNL     1       0.057   9.218  21.471  0.00  0.00    +0.000 A 
ATOM      9  N   UNL     1       0.804   8.130  21.230  0.00  0.00    +0.000 NA
ATOM     10  C   UNL     1       1.427   8.083  20.049  0.00  0.00    +0.000 A 
ATOM     11  C   UNL     1       2.224   6.981  19.796  0.00  0.00    +0.000 A 
ATOM     12  N   UNL     1      -0.539   9.251  22.744  0.00  0.00    +0.000 N 
ATOM     13  C   UNL     1      -0.713  10.627  23.204  0.00  0.00    +0.000 C 
ATOM     14  C   UNL     1      -1.546  11.379  22.149  0.00  0.00    +0.000 C 
ATOM     15  C   UNL     1      -1.979  12.796  22.451  0.00  0.00    +0.000 A 
ATOM     16  C   UNL     1      -1.520  13.600  23.492  0.00  0.00    +0.000 A 
ATOM     17  C   UNL     1      -2.126  14.837  23.717  0.00  0.00    +0.000 A 
ATOM     18  C   UNL     1      -3.217  15.241  22.941  0.00  0.00    +0.000 A 
ATOM     19  C   UNL     1      -3.612  14.488  21.838  0.00  0.00    +0.000 A 
ATOM     20  C   UNL     1      -2.916  13.321  21.537  0.00  0.00    +0.000 A 
ATOM     21  C   UNL     1      -3.016  12.601  20.205  0.00  0.00    +0.000 C 
ATOM     22  C   UNL     1      -1.580  12.159  19.765  0.00  0.00    +0.000 C 
ATOM     23  N   UNL     1      -0.911  11.378  20.820  0.00  0.00    +0.000 N 
ATOM     24  H   UNL     1      -0.062   8.589  23.342  0.00  0.00    +0.000 HD
ENDROOT
TORSDOF 0
ENDMDL
