MODEL 1
REMARK VINA RESULT:      -7.3      0.000      0.000
REMARK  Name = 
REMARK  5 active torsions:
REMARK  status: ('A' for Active; 'I' for Inactive)
REMARK    1  A    between atoms: C_1  and  O_2
REMARK    2  A    between atoms: O_2  and  C_3
REMARK    3  A    between atoms: C_7  and  N_8
REMARK    4  A    between atoms: N_11  and  C_12
REMARK    5  A    between atoms: C_12  and  C_13
REMARK                            x       y       z     vdW  Elec       q    Type
REMARK                         _______ _______ _______ _____ _____    ______ ____
ROOT
ATOM      1  N   UNL     1       4.634   4.466  17.403  0.00  0.00    +0.000 N 
ATOM      2  C   UNL     1       4.990   5.802  17.346  0.00  0.00    +0.000 C 
ATOM      3  O   UNL     1       4.321   6.747  17.748  0.00  0.00    +0.000 OA
ATOM      4  N   UNL     1       6.222   6.010  16.776  0.00  0.00    +0.000 N 
ATOM      5  H   UNL     1       5.435   3.921  17.680  0.00  0.00    +0.000 HD
ATOM      6  H   UNL     1       6.560   6.963  16.818  0.00  0.00    +0.000 HD
ENDROOT
BRANCH   1  11
ATOM      7  C   UNL     1       2.380   3.720  20.206  0.00  0.00    +0.000 A 
ATOM      8  C   UNL     1       1.160   3.609  19.531  0.00  0.00    +0.000 A 
ATOM      9  C   UNL     1       1.106   3.715  18.139  0.00  0.00    +0.000 A 
ATOM     10  C   UNL     1       2.271   3.959  17.420  0.00  0.00    +0.000 A 
ATOM     11  C   UNL     1       3.488   4.066  18.096  0.00  0.00    +0.000 A 
ATOM     12  C   UNL     1       3.549   3.957  19.484  0.00  0.00    +0.000 A 
BRANCH   7  14
ATOM     13  C   UNL     1       1.605   2.487  22.059  0.00  0.00    +0.000 C 
ATOM     14  O   UNL     1       2.314   3.623  21.570  0.00  0.00    +0.000 OA
ENDBRANCH   7  14
ENDBRANCH   1  11
BRANCH   4  15
ATOM     15  C   UNL     1       7.057   4.962  16.229  0.00  0.00    +0.000 C 
BRANCH  15  16
ATOM     16  C   UNL     1       6.975   4.761  14.745  0.00  0.00    +0.000 A 
ATOM     17  C   UNL     1       6.133   3.797  14.196  0.00  0.00    +0.000 A 
ATOM     18  C   UNL     1       6.200   3.562  12.826  0.00  0.00    +0.000 A 
ATOM     19  C   UNL     1       7.099   4.288  12.051  0.00  0.00    +0.000 A 
ATOM     20  C   UNL     1       7.889   5.233  12.672  0.00  0.00    +0.000 A 
ATOM     21  N   UNL     1       7.847   5.485  13.998  0.00  0.00    +0.000 NA
ENDBRANCH  15  16
ENDBRANCH   4  15
TORSDOF 4
ENDMDL
MODEL 2
REMARK VINA RESULT:      -7.1      3.205      6.965
REMARK  Name = 
REMARK  5 active torsions:
REMARK  status: ('A' for Active; 'I' for Inactive)
REMARK    1  A    between atoms: C_1  and  O_2
REMARK    2  A    between atoms: O_2  and  C_3
REMARK    3  A    between atoms: C_7  and  N_8
REMARK    4  A    between atoms: N_11  and  C_12
REMARK    5  A    between atoms: C_12  and  C_13
REMARK                            x       y       z     vdW  Elec       q    Type
REMARK                         _______ _______ _______ _____ _____    ______ ____
ROOT
ATOM      1  N   UNL     1       4.549   5.068  17.728  0.00  0.00    +0.000 N 
ATOM      2  C   UNL     1       4.384   4.083  16.771  0.00  0.00    +0.000 C 
ATOM      3  O   UNL     1       5.231   3.701  15.972  0.00  0.00    +0.000 OA
ATOM      4  N   UNL     1       3.129   3.524  16.780  0.00  0.00    +0.000 N 
ATOM      5  H   UNL     1       4.118   4.769  18.590  0.00  0.00    +0.000 HD
ATOM      6  H   UNL     1       3.008   2.728  16.168  0.00  0.00    +0.000 HD
ENDROOT
BRANCH   1  11
ATOM      7  C   UNL     1       7.318   7.481  17.690  0.00  0.00    +0.000 A 
ATOM      8  C   UNL     1       8.153   6.929  18.667  0.00  0.00    +0.000 A 
ATOM      9  C   UNL     1       7.821   5.720  19.283  0.00  0.00    +0.000 A 
ATOM     10  C   UNL     1       6.639   5.073  18.942  0.00  0.00    +0.000 A 
ATOM     11  C   UNL     1       5.810   5.625  17.963  0.00  0.00    +0.000 A 
ATOM     12  C   UNL     1       6.137   6.828  17.342  0.00  0.00    +0.000 A 
BRANCH   7  14
ATOM     13  C   UNL     1       8.424   9.525  18.081  0.00  0.00    +0.000 C 
ATOM     14  O   UNL     1       7.729   8.679  17.169  0.00  0.00    +0.000 OA
ENDBRANCH   7  14
ENDBRANCH   1  11
BRANCH   4  15
ATOM     15  C   UNL     1       2.053   3.946  17.652  0.00  0.00    +0.000 C 
BRANCH  15  16
ATOM     16  C   UNL     1       2.083   3.399  19.048  0.00  0.00    +0.000 A 
ATOM     17  C   UNL     1       0.958   3.461  19.867  0.00  0.00    +0.000 A 
ATOM     18  C   UNL     1       1.084   3.063  21.195  0.00  0.00    +0.000 A 
ATOM     19  C   UNL     1       2.317   2.620  21.662  0.00  0.00    +0.000 A 
ATOM     20  C   UNL     1       3.377   2.576  20.781  0.00  0.00    +0.000 A 
ATOM     21  N   UNL     1       3.288   2.955  19.487  0.00  0.00    +0.000 NA
ENDBRANCH  15  16
ENDBRANCH   4  15
TORSDOF 4
ENDMDL
MODEL 3
REMARK VINA RESULT:      -7.1      2.344      6.955
REMARK  Name = 
REMARK  5 active torsions:
REMARK  status: ('A' for Active; 'I' for Inactive)
REMARK    1  A    between atoms: C_1  and  O_2
REMARK    2  A    between atoms: O_2  and  C_3
REMARK    3  A    between atoms: C_7  and  N_8
REMARK    4  A    between atoms: N_11  and  C_12
REMARK    5  A    between atoms: C_12  and  C_13
REMARK                            x       y       z     vdW  Elec       q    Type
REMARK                         _______ _______ _______ _____ _____    ______ ____
ROOT
ATOM      1  N   UNL     1       6.043   4.831  15.926  0.00  0.00    +0.000 N 
ATOM      2  C   UNL     1       6.889   4.677  17.009  0.00  0.00    +0.000 C 
ATOM      3  O   UNL     1       8.011   4.186  16.987  0.00  0.00    +0.000 OA
ATOM      4  N   UNL     1       6.354   5.143  18.186  0.00  0.00    +0.000 N 
ATOM      5  H   UNL     1       5.603   5.738  15.975  0.00  0.00    +0.000 HD
ATOM      6  H   UNL     1       6.987   5.145  18.975  0.00  0.00    +0.000 HD
ENDROOT
BRANCH   1  11
ATOM      7  C   UNL     1       6.120   3.474  12.514  0.00  0.00    +0.000 A 
ATOM      8  C   UNL     1       7.142   4.248  11.953  0.00  0.00    +0.000 A 
ATOM      9  C   UNL     1       7.844   5.169  12.734  0.00  0.00    +0.000 A 
ATOM     10  C   UNL     1       7.509   5.337  14.073  0.00  0.00    +0.000 A 
ATOM     11  C   UNL     1       6.492   4.560  14.630  0.00  0.00    +0.000 A 
ATOM     12  C   UNL     1       5.790   3.637  13.858  0.00  0.00    +0.000 A 
BRANCH   7  14
ATOM     13  C   UNL     1       4.179   3.029  11.255  0.00  0.00    +0.000 C 
ATOM     14  O   UNL     1       5.484   2.620  11.652  0.00  0.00    +0.000 OA
ENDBRANCH   7  14
ENDBRANCH   1  11
BRANCH   4  15
ATOM     15  C   UNL     1       5.020   5.690  18.316  0.00  0.00    +0.000 C 
BRANCH  15  16
ATOM     16  C   UNL     1       3.914   4.695  18.503  0.00  0.00    +0.000 A 
ATOM     17  C   UNL     1       2.693   4.847  17.851  0.00  0.00    +0.000 A 
ATOM     18  C   UNL     1       1.659   3.971  18.168  0.00  0.00    +0.000 A 
ATOM     19  C   UNL     1       1.872   2.977  19.118  0.00  0.00    +0.000 A 
ATOM     20  C   UNL     1       3.116   2.887  19.707  0.00  0.00    +0.000 A 
ATOM     21  N   UNL     1       4.139   3.721  19.421  0.00  0.00    +0.000 NA
ENDBRANCH  15  16
ENDBRANCH   4  15
TORSDOF 4
ENDMDL
MODEL 4
REMARK VINA RESULT:      -7.0      2.470      6.763
REMARK  Name = 
REMARK  5 active torsions:
REMARK  status: ('A' for Active; 'I' for Inactive)
REMARK    1  A    between atoms: C_1  and  O_2
REMARK    2  A    between atoms: O_2  and  C_3
REMARK    3  A    between atoms: C_7  and  N_8
REMARK    4  A    between atoms: N_11  and  C_12
REMARK    5  A    between atoms: C_12  and  C_13
REMARK                            x       y       z     vdW  Elec       q    Type
REMARK                         _______ _______ _______ _____ _____    ______ ____
ROOT
ATOM      1  N   UNL     1       6.182   4.692  16.152  0.00  0.00    +0.000 N 
ATOM      2  C   UNL     1       7.081   4.546  17.193  0.00  0.00    +0.000 C 
ATOM      3  O   UNL     1       8.233   4.137  17.102  0.00  0.00    +0.000 OA
ATOM      4  N   UNL     1       6.565   4.917  18.411  0.00  0.00    +0.000 N 
ATOM      5  H   UNL     1       5.683   5.562  16.264  0.00  0.00    +0.000 HD
ATOM      6  H   UNL     1       7.229   4.926  19.175  0.00  0.00    +0.000 HD
ENDROOT
BRANCH   1  11
ATOM      7  C   UNL     1       6.185   3.545  12.663  0.00  0.00    +0.000 A 
ATOM      8  C   UNL     1       7.159   4.388  12.117  0.00  0.00    +0.000 A 
ATOM      9  C   UNL     1       7.857   5.285  12.929  0.00  0.00    +0.000 A 
ATOM     10  C   UNL     1       7.564   5.360  14.286  0.00  0.00    +0.000 A 
ATOM     11  C   UNL     1       6.594   4.515  14.828  0.00  0.00    +0.000 A 
ATOM     12  C   UNL     1       5.897   3.615  14.024  0.00  0.00    +0.000 A 
BRANCH   7  14
ATOM     13  C   UNL     1       4.245   3.149  11.385  0.00  0.00    +0.000 C 
ATOM     14  O   UNL     1       5.547   2.723  11.772  0.00  0.00    +0.000 OA
ENDBRANCH   7  14
ENDBRANCH   1  11
BRANCH   4  15
ATOM     15  C   UNL     1       5.204   5.362  18.620  0.00  0.00    +0.000 C 
BRANCH  15  16
ATOM     16  C   UNL     1       4.145   4.301  18.551  0.00  0.00    +0.000 A 
ATOM     17  C   UNL     1       4.051   3.316  19.531  0.00  0.00    +0.000 A 
ATOM     18  C   UNL     1       3.139   2.281  19.343  0.00  0.00    +0.000 A 
ATOM     19  C   UNL     1       2.356   2.260  18.193  0.00  0.00    +0.000 A 
ATOM     20  C   UNL     1       2.503   3.282  17.279  0.00  0.00    +0.000 A 
ATOM     21  N   UNL     1       3.377   4.300  17.432  0.00  0.00    +0.000 NA
ENDBRANCH  15  16
ENDBRANCH   4  15
TORSDOF 4
ENDMDL
MODEL 5
REMARK VINA RESULT:      -7.0      2.241      7.189
REMARK  Name = 
REMARK  5 active torsions:
REMARK  status: ('A' for Active; 'I' for Inactive)
REMARK    1  A    between atoms: C_1  and  O_2
REMARK    2  A    between atoms: O_2  and  C_3
REMARK    3  A    between atoms: C_7  and  N_8
REMARK    4  A    between atoms: N_11  and  C_12
REMARK    5  A    between atoms: C_12  and  C_13
REMARK                            x       y       z     vdW  Elec       q    Type
REMARK                         _______ _______ _______ _____ _____    ______ ____
ROOT
ATOM      1  N   UNL     1       5.798   4.757  15.888  0.00  0.00    +0.000 N 
ATOM      2  C   UNL     1       5.147   5.953  16.133  0.00  0.00    +0.000 C 
ATOM      3  O   UNL     1       5.050   6.895  15.356  0.00  0.00    +0.000 OA
ATOM      4  N   UNL     1       4.580   6.015  17.382  0.00  0.00    +0.000 N 
ATOM      5  H   UNL     1       5.240   3.996  16.246  0.00  0.00    +0.000 HD
ATOM      6  H   UNL     1       4.005   6.830  17.554  0.00  0.00    +0.000 HD
ENDROOT
BRANCH   1  11
ATOM      7  C   UNL     1       5.947   3.420  12.470  0.00  0.00    +0.000 A 
ATOM      8  C   UNL     1       7.045   4.126  11.967  0.00  0.00    +0.000 A 
ATOM      9  C   UNL     1       7.771   4.991  12.789  0.00  0.00    +0.000 A 
ATOM     10  C   UNL     1       7.383   5.172  14.112  0.00  0.00    +0.000 A 
ATOM     11  C   UNL     1       6.289   4.464  14.613  0.00  0.00    +0.000 A 
ATOM     12  C   UNL     1       5.564   3.596  13.799  0.00  0.00    +0.000 A 
BRANCH   7  14
ATOM     13  C   UNL     1       4.031   3.106  11.135  0.00  0.00    +0.000 C 
ATOM     14  O   UNL     1       5.296   2.618  11.571  0.00  0.00    +0.000 OA
ENDBRANCH   7  14
ENDBRANCH   1  11
BRANCH   4  15
ATOM     15  C   UNL     1       4.688   4.973  18.381  0.00  0.00    +0.000 C 
BRANCH  15  16
ATOM     16  C   UNL     1       3.400   4.519  19.003  0.00  0.00    +0.000 A 
ATOM     17  C   UNL     1       2.538   3.664  18.322  0.00  0.00    +0.000 A 
ATOM     18  C   UNL     1       1.297   3.386  18.890  0.00  0.00    +0.000 A 
ATOM     19  C   UNL     1       0.958   3.965  20.108  0.00  0.00    +0.000 A 
ATOM     20  C   UNL     1       1.876   4.790  20.723  0.00  0.00    +0.000 A 
ATOM     21  N   UNL     1       3.087   5.079  20.199  0.00  0.00    +0.000 NA
ENDBRANCH  15  16
ENDBRANCH   4  15
TORSDOF 4
ENDMDL
MODEL 6
REMARK VINA RESULT:      -6.9      2.339      7.278
REMARK  Name = 
REMARK  5 active torsions:
REMARK  status: ('A' for Active; 'I' for Inactive)
REMARK    1  A    between atoms: C_1  and  O_2
REMARK    2  A    between atoms: O_2  and  C_3
REMARK    3  A    between atoms: C_7  and  N_8
REMARK    4  A    between atoms: N_11  and  C_12
REMARK    5  A    between atoms: C_12  and  C_13
REMARK                            x       y       z     vdW  Elec       q    Type
REMARK                         _______ _______ _______ _____ _____    ______ ____
ROOT
ATOM      1  N   UNL     1       5.880   4.798  15.857  0.00  0.00    +0.000 N 
ATOM      2  C   UNL     1       5.187   5.971  16.094  0.00  0.00    +0.000 C 
ATOM      3  O   UNL     1       5.013   6.883  15.294  0.00  0.00    +0.000 OA
ATOM      4  N   UNL     1       4.673   6.050  17.366  0.00  0.00    +0.000 N 
ATOM      5  H   UNL     1       5.374   4.025  16.263  0.00  0.00    +0.000 HD
ATOM      6  H   UNL     1       4.070   6.843  17.538  0.00  0.00    +0.000 HD
ENDROOT
BRANCH   1  11
ATOM      7  C   UNL     1       5.904   3.429  12.449  0.00  0.00    +0.000 A 
ATOM      8  C   UNL     1       6.999   4.111  11.907  0.00  0.00    +0.000 A 
ATOM      9  C   UNL     1       7.764   4.970  12.699  0.00  0.00    +0.000 A 
ATOM     10  C   UNL     1       7.419   5.170  14.032  0.00  0.00    +0.000 A 
ATOM     11  C   UNL     1       6.328   4.485  14.571  0.00  0.00    +0.000 A 
ATOM     12  C   UNL     1       5.564   3.623  13.786  0.00  0.00    +0.000 A 
BRANCH   7  14
ATOM     13  C   UNL     1       3.957   3.151  11.152  0.00  0.00    +0.000 C 
ATOM     14  O   UNL     1       5.212   2.631  11.577  0.00  0.00    +0.000 OA
ENDBRANCH   7  14
ENDBRANCH   1  11
BRANCH   4  15
ATOM     15  C   UNL     1       4.872   5.047  18.390  0.00  0.00    +0.000 C 
BRANCH  15  16
ATOM     16  C   UNL     1       3.659   4.669  19.189  0.00  0.00    +0.000 A 
ATOM     17  C   UNL     1       2.820   5.644  19.723  0.00  0.00    +0.000 A 
ATOM     18  C   UNL     1       1.790   5.239  20.568  0.00  0.00    +0.000 A 
ATOM     19  C   UNL     1       1.630   3.887  20.852  0.00  0.00    +0.000 A 
ATOM     20  C   UNL     1       2.497   2.986  20.270  0.00  0.00    +0.000 A 
ATOM     21  N   UNL     1       3.505   3.346  19.447  0.00  0.00    +0.000 NA
ENDBRANCH  15  16
ENDBRANCH   4  15
TORSDOF 4
ENDMDL
MODEL 7
REMARK VINA RESULT:      -6.9      1.630      1.944
REMARK  Name = 
REMARK  5 active torsions:
REMARK  status: ('A' for Active; 'I' for Inactive)
REMARK    1  A    between atoms: C_1  and  O_2
REMARK    2  A    between atoms: O_2  and  C_3
REMARK    3  A    between atoms: C_7  and  N_8
REMARK    4  A    between atoms: N_11  and  C_12
REMARK    5  A    between atoms: C_12  and  C_13
REMARK                            x       y       z     vdW  Elec       q    Type
REMARK                         _______ _______ _______ _____ _____    ______ ____
ROOT
ATOM      1  N   UNL     1       4.536   5.356  18.006  0.00  0.00    +0.000 N 
ATOM      2  C   UNL     1       5.509   4.386  18.167  0.00  0.00    +0.000 C 
ATOM      3  O   UNL     1       5.524   3.511  19.025  0.00  0.00    +0.000 OA
ATOM      4  N   UNL     1       6.518   4.472  17.239  0.00  0.00    +0.000 N 
ATOM      5  H   UNL     1       4.333   5.463  17.024  0.00  0.00    +0.000 HD
ATOM      6  H   UNL     1       7.188   3.714  17.260  0.00  0.00    +0.000 HD
ENDROOT
BRANCH   1  11
ATOM      7  C   UNL     1       1.543   4.015  19.660  0.00  0.00    +0.000 A 
ATOM      8  C   UNL     1       1.219   5.081  20.506  0.00  0.00    +0.000 A 
ATOM      9  C   UNL     1       1.957   6.266  20.471  0.00  0.00    +0.000 A 
ATOM     10  C   UNL     1       3.041   6.378  19.606  0.00  0.00    +0.000 A 
ATOM     11  C   UNL     1       3.360   5.313  18.761  0.00  0.00    +0.000 A 
ATOM     12  C   UNL     1       2.624   4.131  18.788  0.00  0.00    +0.000 A 
BRANCH   7  14
ATOM     13  C   UNL     1       0.731   2.046  18.652  0.00  0.00    +0.000 C 
ATOM     14  O   UNL     1       0.766   2.895  19.795  0.00  0.00    +0.000 OA
ENDBRANCH   7  14
ENDBRANCH   1  11
BRANCH   4  15
ATOM     15  C   UNL     1       6.609   5.500  16.224  0.00  0.00    +0.000 C 
BRANCH  15  16
ATOM     16  C   UNL     1       6.638   5.022  14.802  0.00  0.00    +0.000 A 
ATOM     17  C   UNL     1       5.733   4.067  14.347  0.00  0.00    +0.000 A 
ATOM     18  C   UNL     1       5.895   3.563  13.059  0.00  0.00    +0.000 A 
ATOM     19  C   UNL     1       6.946   4.021  12.273  0.00  0.00    +0.000 A 
ATOM     20  C   UNL     1       7.790   4.978  12.796  0.00  0.00    +0.000 A 
ATOM     21  N   UNL     1       7.660   5.488  14.040  0.00  0.00    +0.000 NA
ENDBRANCH  15  16
ENDBRANCH   4  15
TORSDOF 4
ENDMDL
MODEL 8
REMARK VINA RESULT:      -6.8      2.362      7.266
REMARK  Name = 
REMARK  5 active torsions:
REMARK  status: ('A' for Active; 'I' for Inactive)
REMARK    1  A    between atoms: C_1  and  O_2
REMARK    2  A    between atoms: O_2  and  C_3
REMARK    3  A    between atoms: C_7  and  N_8
REMARK    4  A    between atoms: N_11  and  C_12
REMARK    5  A    between atoms: C_12  and  C_13
REMARK                            x       y       z     vdW  Elec       q    Type
REMARK                         _______ _______ _______ _____ _____    ______ ____
ROOT
ATOM      1  N   UNL     1       5.532   4.864  15.698  0.00  0.00    +0.000 N 
ATOM      2  C   UNL     1       6.239   4.797  16.885  0.00  0.00    +0.000 C 
ATOM      3  O   UNL     1       7.359   4.322  17.034  0.00  0.00    +0.000 OA
ATOM      4  N   UNL     1       5.561   5.335  17.951  0.00  0.00    +0.000 N 
ATOM      5  H   UNL     1       5.084   5.765  15.629  0.00  0.00    +0.000 HD
ATOM      6  H   UNL     1       6.091   5.401  18.810  0.00  0.00    +0.000 HD
ENDROOT
BRANCH   1  11
ATOM      7  C   UNL     1       6.021   3.306  12.407  0.00  0.00    +0.000 A 
ATOM      8  C   UNL     1       7.122   4.032  11.942  0.00  0.00    +0.000 A 
ATOM      9  C   UNL     1       7.738   4.987  12.754  0.00  0.00    +0.000 A 
ATOM     10  C   UNL     1       7.236   5.238  14.026  0.00  0.00    +0.000 A 
ATOM     11  C   UNL     1       6.138   4.510  14.489  0.00  0.00    +0.000 A 
ATOM     12  C   UNL     1       5.523   3.553  13.686  0.00  0.00    +0.000 A 
BRANCH   7  14
ATOM     13  C   UNL     1       6.321   1.309  11.194  0.00  0.00    +0.000 C 
ATOM     14  O   UNL     1       5.482   2.413  11.520  0.00  0.00    +0.000 OA
ENDBRANCH   7  14
ENDBRANCH   1  11
BRANCH   4  15
ATOM     15  C   UNL     1       4.218   5.871  17.878  0.00  0.00    +0.000 C 
BRANCH  15  16
ATOM     16  C   UNL     1       3.165   5.119  18.638  0.00  0.00    +0.000 A 
ATOM     17  C   UNL     1       2.293   4.251  17.987  0.00  0.00    +0.000 A 
ATOM     18  C   UNL     1       1.251   3.687  18.720  0.00  0.00    +0.000 A 
ATOM     19  C   UNL     1       1.114   4.004  20.067  0.00  0.00    +0.000 A 
ATOM     20  C   UNL     1       2.030   4.862  20.638  0.00  0.00    +0.000 A 
ATOM     21  N   UNL     1       3.050   5.425  19.955  0.00  0.00    +0.000 NA
ENDBRANCH  15  16
ENDBRANCH   4  15
TORSDOF 4
ENDMDL
MODEL 9
REMARK VINA RESULT:      -6.7      2.482      7.347
REMARK  Name = 
REMARK  5 active torsions:
REMARK  status: ('A' for Active; 'I' for Inactive)
REMARK    1  A    between atoms: C_1  and  O_2
REMARK    2  A    between atoms: O_2  and  C_3
REMARK    3  A    between atoms: C_7  and  N_8
REMARK    4  A    between atoms: N_11  and  C_12
REMARK    5  A    between atoms: C_12  and  C_13
REMARK                            x       y       z     vdW  Elec       q    Type
REMARK                         _______ _______ _______ _____ _____    ______ ____
ROOT
ATOM      1  N   UNL     1       5.916   4.646  15.894  0.00  0.00    +0.000 N 
ATOM      2  C   UNL     1       6.772   4.626  16.981  0.00  0.00    +0.000 C 
ATOM      3  O   UNL     1       7.952   4.297  16.966  0.00  0.00    +0.000 OA
ATOM      4  N   UNL     1       6.172   5.027  18.150  0.00  0.00    +0.000 N 
ATOM      5  H   UNL     1       5.353   5.482  15.931  0.00  0.00    +0.000 HD
ATOM      6  H   UNL     1       6.796   5.128  18.940  0.00  0.00    +0.000 HD
ENDROOT
BRANCH   1  11
ATOM      7  C   UNL     1       6.125   3.369  12.456  0.00  0.00    +0.000 A 
ATOM      8  C   UNL     1       7.120   4.201  11.934  0.00  0.00    +0.000 A 
ATOM      9  C   UNL     1       7.764   5.135  12.749  0.00  0.00    +0.000 A 
ATOM     10  C   UNL     1       7.394   5.258  14.084  0.00  0.00    +0.000 A 
ATOM     11  C   UNL     1       6.403   4.424  14.603  0.00  0.00    +0.000 A 
ATOM     12  C   UNL     1       5.760   3.487  13.796  0.00  0.00    +0.000 A 
BRANCH   7  14
ATOM     13  C   UNL     1       6.323   1.356  11.247  0.00  0.00    +0.000 C 
ATOM     14  O   UNL     1       5.545   2.506  11.564  0.00  0.00    +0.000 OA
ENDBRANCH   7  14
ENDBRANCH   1  11
BRANCH   4  15
ATOM     15  C   UNL     1       4.775   5.383  18.271  0.00  0.00    +0.000 C 
BRANCH  15  16
ATOM     16  C   UNL     1       3.996   4.654  19.326  0.00  0.00    +0.000 A 
ATOM     17  C   UNL     1       4.134   3.279  19.497  0.00  0.00    +0.000 A 
ATOM     18  C   UNL     1       3.288   2.636  20.397  0.00  0.00    +0.000 A 
ATOM     19  C   UNL     1       2.338   3.379  21.091  0.00  0.00    +0.000 A 
ATOM     20  C   UNL     1       2.277   4.739  20.872  0.00  0.00    +0.000 A 
ATOM     21  N   UNL     1       3.084   5.391  20.007  0.00  0.00    +0.000 NA
ENDBRANCH  15  16
ENDBRANCH   4  15
TORSDOF 4
ENDMDL
