MODEL 1
REMARK VINA RESULT:      -7.6      0.000      0.000
REMARK  Name = 
REMARK  6 active torsions:
REMARK  status: ('A' for Active; 'I' for Inactive)
REMARK    1  A    between atoms: C_1  and  C_2
REMARK    2  A    between atoms: C_2  and  C_3
REMARK    3  A    between atoms: C_7  and  N_8
REMARK    4  A    between atoms: N_8  and  S_9
REMARK    5  A    between atoms: S_9  and  C_12
REMARK    6  A    between atoms: C_15  and  C_16
REMARK                            x       y       z     vdW  Elec       q    Type
REMARK                         _______ _______ _______ _____ _____    ______ ____
ROOT
ATOM      1  S   UNL     1       3.553   5.700  18.277  0.00  0.00    +0.000 S 
ATOM      2  O   UNL     1       2.661   4.825  17.550  0.00  0.00    +0.000 OA
ATOM      3  O   UNL     1       4.487   5.171  19.252  0.00  0.00    +0.000 OA
ENDROOT
BRANCH   1   4
ATOM      4  C   UNL     1       2.540   6.873  19.089  0.00  0.00    +0.000 A 
ATOM      5  C   UNL     1       2.107   6.665  20.375  0.00  0.00    +0.000 A 
ATOM      6  N   UNL     1       1.371   7.566  21.061  0.00  0.00    +0.000 NA
ATOM      7  C   UNL     1       1.086   8.735  20.444  0.00  0.00    +0.000 A 
ATOM      8  N   UNL     1       1.520   9.043  19.201  0.00  0.00    +0.000 NA
ATOM      9  C   UNL     1       2.260   8.106  18.557  0.00  0.00    +0.000 A 
BRANCH   7  10
ATOM     10  C   UNL     1       0.171   9.670  21.139  0.00  0.00    +0.000 A 
ATOM     11  C   UNL     1      -0.330  10.818  20.490  0.00  0.00    +0.000 A 
ATOM     12  C   UNL     1      -1.109  11.767  21.161  0.00  0.00    +0.000 A 
ATOM     13  C   UNL     1      -1.422  11.585  22.503  0.00  0.00    +0.000 A 
ATOM     14  C   UNL     1      -0.978  10.444  23.164  0.00  0.00    +0.000 A 
ATOM     15  C   UNL     1      -0.196   9.496  22.489  0.00  0.00    +0.000 A 
ENDBRANCH   7  10
ENDBRANCH   1   4
BRANCH   1  16
ATOM     16  N   UNL     1       4.416   6.560  17.087  0.00  0.00    +0.000 N 
ATOM     17  H   UNL     1       4.687   7.468  17.464  0.00  0.00    +0.000 HD
BRANCH  16  22
ATOM     18  C   UNL     1       6.806   5.879  16.821  0.00  0.00    +0.000 A 
ATOM     19  N   UNL     1       7.622   5.036  16.073  0.00  0.00    +0.000 NA
ATOM     20  C   UNL     1       6.895   4.357  15.214  0.00  0.00    +0.000 A 
ATOM     21  S   UNL     1       5.207   4.650  15.265  0.00  0.00    +0.000 S 
ATOM     22  C   UNL     1       5.473   5.851  16.444  0.00  0.00    +0.000 A 
BRANCH  18  24
ATOM     23  C   UNL     1       7.749   8.073  17.582  0.00  0.00    +0.000 C 
ATOM     24  C   UNL     1       7.434   6.627  17.953  0.00  0.00    +0.000 C 
ENDBRANCH  18  24
ENDBRANCH  16  22
ENDBRANCH   1  16
TORSDOF 5
ENDMDL
MODEL 2
REMARK VINA RESULT:      -7.5      1.590      2.174
REMARK  Name = 
REMARK  6 active torsions:
REMARK  status: ('A' for Active; 'I' for Inactive)
REMARK    1  A    between atoms: C_1  and  C_2
REMARK    2  A    between atoms: C_2  and  C_3
REMARK    3  A    between atoms: C_7  and  N_8
REMARK    4  A    between atoms: N_8  and  S_9
REMARK    5  A    between atoms: S_9  and  C_12
REMARK    6  A    between atoms: C_15  and  C_16
REMARK                            x       y       z     vdW  Elec       q    Type
REMARK                         _______ _______ _______ _____ _____    ______ ____
ROOT
ATOM      1  S   UNL     1       4.301   3.482  18.605  0.00  0.00    +0.000 S 
ATOM      2  O   UNL     1       3.854   3.244  17.251  0.00  0.00    +0.000 OA
ATOM      3  O   UNL     1       4.166   2.460  19.626  0.00  0.00    +0.000 OA
ENDROOT
BRANCH   1   4
ATOM      4  C   UNL     1       3.453   4.907  19.162  0.00  0.00    +0.000 A 
ATOM      5  C   UNL     1       3.413   6.050  18.403  0.00  0.00    +0.000 A 
ATOM      6  N   UNL     1       2.725   7.154  18.766  0.00  0.00    +0.000 NA
ATOM      7  C   UNL     1       2.024   7.098  19.921  0.00  0.00    +0.000 A 
ATOM      8  N   UNL     1       1.964   5.995  20.700  0.00  0.00    +0.000 NA
ATOM      9  C   UNL     1       2.668   4.911  20.288  0.00  0.00    +0.000 A 
BRANCH   7  10
ATOM     10  C   UNL     1       1.376   8.346  20.389  0.00  0.00    +0.000 A 
ATOM     11  C   UNL     1       1.108   9.406  19.498  0.00  0.00    +0.000 A 
ATOM     12  C   UNL     1       0.594  10.631  19.939  0.00  0.00    +0.000 A 
ATOM     13  C   UNL     1       0.321  10.824  21.288  0.00  0.00    +0.000 A 
ATOM     14  C   UNL     1       0.536   9.786  22.189  0.00  0.00    +0.000 A 
ATOM     15  C   UNL     1       1.053   8.560  21.744  0.00  0.00    +0.000 A 
ENDBRANCH   7  10
ENDBRANCH   1   4
BRANCH   1  16
ATOM     16  N   UNL     1       5.939   3.924  18.472  0.00  0.00    +0.000 N 
ATOM     17  H   UNL     1       6.521   3.138  18.763  0.00  0.00    +0.000 HD
BRANCH  16  22
ATOM     18  C   UNL     1       7.037   5.701  17.099  0.00  0.00    +0.000 A 
ATOM     19  N   UNL     1       7.358   6.018  15.783  0.00  0.00    +0.000 NA
ATOM     20  C   UNL     1       6.955   5.058  14.981  0.00  0.00    +0.000 A 
ATOM     21  S   UNL     1       6.207   3.715  15.737  0.00  0.00    +0.000 S 
ATOM     22  C   UNL     1       6.330   4.517  17.236  0.00  0.00    +0.000 A 
BRANCH  18  24
ATOM     23  C   UNL     1       7.836   8.011  17.654  0.00  0.00    +0.000 C 
ATOM     24  C   UNL     1       7.547   6.606  18.175  0.00  0.00    +0.000 C 
ENDBRANCH  18  24
ENDBRANCH  16  22
ENDBRANCH   1  16
TORSDOF 5
ENDMDL
MODEL 3
REMARK VINA RESULT:      -7.5      0.206      1.410
REMARK  Name = 
REMARK  6 active torsions:
REMARK  status: ('A' for Active; 'I' for Inactive)
REMARK    1  A    between atoms: C_1  and  C_2
REMARK    2  A    between atoms: C_2  and  C_3
REMARK    3  A    between atoms: C_7  and  N_8
REMARK    4  A    between atoms: N_8  and  S_9
REMARK    5  A    between atoms: S_9  and  C_12
REMARK    6  A    between atoms: C_15  and  C_16
REMARK                            x       y       z     vdW  Elec       q    Type
REMARK                         _______ _______ _______ _____ _____    ______ ____
ROOT
ATOM      1  S   UNL     1       3.531   5.588  18.319  0.00  0.00    +0.000 S 
ATOM      2  O   UNL     1       2.572   4.797  17.581  0.00  0.00    +0.000 OA
ATOM      3  O   UNL     1       4.465   4.964  19.236  0.00  0.00    +0.000 OA
ENDROOT
BRANCH   1   4
ATOM      4  C   UNL     1       2.606   6.770  19.220  0.00  0.00    +0.000 A 
ATOM      5  C   UNL     1       2.312   7.998  18.683  0.00  0.00    +0.000 A 
ATOM      6  N   UNL     1       1.555   8.920  19.318  0.00  0.00    +0.000 NA
ATOM      7  C   UNL     1       1.047   8.582  20.525  0.00  0.00    +0.000 A 
ATOM      8  N   UNL     1       1.241   7.374  21.100  0.00  0.00    +0.000 NA
ATOM      9  C   UNL     1       2.004   6.482  20.419  0.00  0.00    +0.000 A 
BRANCH   7  10
ATOM     10  C   UNL     1       0.327   9.632  21.282  0.00  0.00    +0.000 A 
ATOM     11  C   UNL     1      -0.169   9.385  22.579  0.00  0.00    +0.000 A 
ATOM     12  C   UNL     1      -0.941  10.327  23.269  0.00  0.00    +0.000 A 
ATOM     13  C   UNL     1      -1.226  11.554  22.681  0.00  0.00    +0.000 A 
ATOM     14  C   UNL     1      -0.719  11.847  21.419  0.00  0.00    +0.000 A 
ATOM     15  C   UNL     1       0.053  10.900  20.731  0.00  0.00    +0.000 A 
ENDBRANCH   7  10
ENDBRANCH   1   4
BRANCH   1  16
ATOM     16  N   UNL     1       4.401   6.460  17.144  0.00  0.00    +0.000 N 
ATOM     17  H   UNL     1       4.659   7.370  17.528  0.00  0.00    +0.000 HD
BRANCH  16  22
ATOM     18  C   UNL     1       6.806   5.833  16.883  0.00  0.00    +0.000 A 
ATOM     19  N   UNL     1       7.640   4.994  16.150  0.00  0.00    +0.000 NA
ATOM     20  C   UNL     1       6.927   4.279  15.309  0.00  0.00    +0.000 A 
ATOM     21  S   UNL     1       5.233   4.531  15.360  0.00  0.00    +0.000 S 
ATOM     22  C   UNL     1       5.473   5.764  16.513  0.00  0.00    +0.000 A 
BRANCH  18  24
ATOM     23  C   UNL     1       7.772   8.043  17.569  0.00  0.00    +0.000 C 
ATOM     24  C   UNL     1       7.420   6.621  17.997  0.00  0.00    +0.000 C 
ENDBRANCH  18  24
ENDBRANCH  16  22
ENDBRANCH   1  16
TORSDOF 5
ENDMDL
MODEL 4
REMARK VINA RESULT:      -7.5      0.386      1.136
REMARK  Name = 
REMARK  6 active torsions:
REMARK  status: ('A' for Active; 'I' for Inactive)
REMARK    1  A    between atoms: C_1  and  C_2
REMARK    2  A    between atoms: C_2  and  C_3
REMARK    3  A    between atoms: C_7  and  N_8
REMARK    4  A    between atoms: N_8  and  S_9
REMARK    5  A    between atoms: S_9  and  C_12
REMARK    6  A    between atoms: C_15  and  C_16
REMARK                            x       y       z     vdW  Elec       q    Type
REMARK                         _______ _______ _______ _____ _____    ______ ____
ROOT
ATOM      1  S   UNL     1       3.541   5.742  18.338  0.00  0.00    +0.000 S 
ATOM      2  O   UNL     1       2.595   4.887  17.656  0.00  0.00    +0.000 OA
ATOM      3  O   UNL     1       4.514   5.190  19.262  0.00  0.00    +0.000 OA
ENDROOT
BRANCH   1   4
ATOM      4  C   UNL     1       2.595   6.930  19.207  0.00  0.00    +0.000 A 
ATOM      5  C   UNL     1       2.238   8.118  18.620  0.00  0.00    +0.000 A 
ATOM      6  N   UNL     1       1.463   9.041  19.230  0.00  0.00    +0.000 NA
ATOM      7  C   UNL     1       1.001   8.744  20.466  0.00  0.00    +0.000 A 
ATOM      8  N   UNL     1       1.257   7.574  21.093  0.00  0.00    +0.000 NA
ATOM      9  C   UNL     1       2.037   6.680  20.435  0.00  0.00    +0.000 A 
BRANCH   7  10
ATOM     10  C   UNL     1       0.261   9.803  21.192  0.00  0.00    +0.000 A 
ATOM     11  C   UNL     1       0.231  11.129  20.713  0.00  0.00    +0.000 A 
ATOM     12  C   UNL     1      -0.373  12.164  21.438  0.00  0.00    +0.000 A 
ATOM     13  C   UNL     1      -0.978  11.894  22.659  0.00  0.00    +0.000 A 
ATOM     14  C   UNL     1      -1.002  10.590  23.143  0.00  0.00    +0.000 A 
ATOM     15  C   UNL     1      -0.394   9.556  22.415  0.00  0.00    +0.000 A 
ENDBRANCH   7  10
ENDBRANCH   1   4
BRANCH   1  16
ATOM     16  N   UNL     1       4.357   6.589  17.108  0.00  0.00    +0.000 N 
ATOM     17  H   UNL     1       4.618   7.512  17.457  0.00  0.00    +0.000 HD
BRANCH  16  22
ATOM     18  C   UNL     1       6.765   6.038  16.726  0.00  0.00    +0.000 A 
ATOM     19  N   UNL     1       7.584   5.176  16.003  0.00  0.00    +0.000 NA
ATOM     20  C   UNL     1       6.848   4.369  15.272  0.00  0.00    +0.000 A 
ATOM     21  S   UNL     1       5.152   4.558  15.424  0.00  0.00    +0.000 S 
ATOM     22  C   UNL     1       5.414   5.888  16.458  0.00  0.00    +0.000 A 
BRANCH  18  24
ATOM     23  C   UNL     1       7.862   6.177  18.976  0.00  0.00    +0.000 C 
ATOM     24  C   UNL     1       7.417   6.936  17.729  0.00  0.00    +0.000 C 
ENDBRANCH  18  24
ENDBRANCH  16  22
ENDBRANCH   1  16
TORSDOF 5
ENDMDL
MODEL 5
REMARK VINA RESULT:      -7.4      1.537      2.101
REMARK  Name = 
REMARK  6 active torsions:
REMARK  status: ('A' for Active; 'I' for Inactive)
REMARK    1  A    between atoms: C_1  and  C_2
REMARK    2  A    between atoms: C_2  and  C_3
REMARK    3  A    between atoms: C_7  and  N_8
REMARK    4  A    between atoms: N_8  and  S_9
REMARK    5  A    between atoms: S_9  and  C_12
REMARK    6  A    between atoms: C_15  and  C_16
REMARK                            x       y       z     vdW  Elec       q    Type
REMARK                         _______ _______ _______ _____ _____    ______ ____
ROOT
ATOM      1  S   UNL     1       4.106   3.517  18.544  0.00  0.00    +0.000 S 
ATOM      2  O   UNL     1       3.691   3.253  17.184  0.00  0.00    +0.000 OA
ATOM      3  O   UNL     1       3.912   2.528  19.587  0.00  0.00    +0.000 OA
ENDROOT
BRANCH   1   4
ATOM      4  C   UNL     1       3.284   4.981  19.036  0.00  0.00    +0.000 A 
ATOM      5  C   UNL     1       2.596   5.043  20.222  0.00  0.00    +0.000 A 
ATOM      6  N   UNL     1       1.994   6.167  20.669  0.00  0.00    +0.000 NA
ATOM      7  C   UNL     1       2.115   7.280  19.911  0.00  0.00    +0.000 A 
ATOM      8  N   UNL     1       2.820   7.320  18.759  0.00  0.00    +0.000 NA
ATOM      9  C   UNL     1       3.410   6.166  18.356  0.00  0.00    +0.000 A 
BRANCH   7  10
ATOM     10  C   UNL     1       1.349   8.478  20.328  0.00  0.00    +0.000 A 
ATOM     11  C   UNL     1       0.961   8.663  21.672  0.00  0.00    +0.000 A 
ATOM     12  C   UNL     1       0.149   9.732  22.067  0.00  0.00    +0.000 A 
ATOM     13  C   UNL     1      -0.287  10.657  21.125  0.00  0.00    +0.000 A 
ATOM     14  C   UNL     1       0.109  10.527  19.798  0.00  0.00    +0.000 A 
ATOM     15  C   UNL     1       0.921   9.453  19.406  0.00  0.00    +0.000 A 
ENDBRANCH   7  10
ENDBRANCH   1   4
BRANCH   1  16
ATOM     16  N   UNL     1       5.759   3.909  18.447  0.00  0.00    +0.000 N 
ATOM     17  H   UNL     1       6.311   3.100  18.734  0.00  0.00    +0.000 HD
BRANCH  16  22
ATOM     18  C   UNL     1       6.950   5.665  17.126  0.00  0.00    +0.000 A 
ATOM     19  N   UNL     1       7.301   5.995  15.820  0.00  0.00    +0.000 NA
ATOM     20  C   UNL     1       6.867   5.071  14.993  0.00  0.00    +0.000 A 
ATOM     21  S   UNL     1       6.053   3.745  15.711  0.00  0.00    +0.000 S 
ATOM     22  C   UNL     1       6.191   4.510  17.228  0.00  0.00    +0.000 A 
BRANCH  18  24
ATOM     23  C   UNL     1       7.871   7.915  17.733  0.00  0.00    +0.000 C 
ATOM     24  C   UNL     1       7.485   6.524  18.227  0.00  0.00    +0.000 C 
ENDBRANCH  18  24
ENDBRANCH  16  22
ENDBRANCH   1  16
TORSDOF 5
ENDMDL
MODEL 6
REMARK VINA RESULT:      -7.4      1.478      1.761
REMARK  Name = 
REMARK  6 active torsions:
REMARK  status: ('A' for Active; 'I' for Inactive)
REMARK    1  A    between atoms: C_1  and  C_2
REMARK    2  A    between atoms: C_2  and  C_3
REMARK    3  A    between atoms: C_7  and  N_8
REMARK    4  A    between atoms: N_8  and  S_9
REMARK    5  A    between atoms: S_9  and  C_12
REMARK    6  A    between atoms: C_15  and  C_16
REMARK                            x       y       z     vdW  Elec       q    Type
REMARK                         _______ _______ _______ _____ _____    ______ ____
ROOT
ATOM      1  S   UNL     1       4.070   3.662  18.383  0.00  0.00    +0.000 S 
ATOM      2  O   UNL     1       3.696   3.502  16.995  0.00  0.00    +0.000 OA
ATOM      3  O   UNL     1       3.845   2.600  19.344  0.00  0.00    +0.000 OA
ENDROOT
BRANCH   1   4
ATOM      4  C   UNL     1       3.235   5.088  18.957  0.00  0.00    +0.000 A 
ATOM      5  C   UNL     1       2.602   5.097  20.175  0.00  0.00    +0.000 A 
ATOM      6  N   UNL     1       1.992   6.190  20.683  0.00  0.00    +0.000 NA
ATOM      7  C   UNL     1       2.049   7.328  19.955  0.00  0.00    +0.000 A 
ATOM      8  N   UNL     1       2.699   7.422  18.774  0.00  0.00    +0.000 NA
ATOM      9  C   UNL     1       3.299   6.297  18.309  0.00  0.00    +0.000 A 
BRANCH   7  10
ATOM     10  C   UNL     1       1.272   8.491  20.444  0.00  0.00    +0.000 A 
ATOM     11  C   UNL     1       0.902   9.538  19.574  0.00  0.00    +0.000 A 
ATOM     12  C   UNL     1       0.261  10.694  20.036  0.00  0.00    +0.000 A 
ATOM     13  C   UNL     1      -0.040  10.826  21.386  0.00  0.00    +0.000 A 
ATOM     14  C   UNL     1       0.275   9.796  22.267  0.00  0.00    +0.000 A 
ATOM     15  C   UNL     1       0.919   8.641  21.800  0.00  0.00    +0.000 A 
ENDBRANCH   7  10
ENDBRANCH   1   4
BRANCH   1  16
ATOM     16  N   UNL     1       5.726   4.056  18.364  0.00  0.00    +0.000 N 
ATOM     17  H   UNL     1       6.259   3.270  18.736  0.00  0.00    +0.000 HD
BRANCH  16  22
ATOM     18  C   UNL     1       7.043   5.697  17.015  0.00  0.00    +0.000 A 
ATOM     19  N   UNL     1       7.461   5.950  15.712  0.00  0.00    +0.000 NA
ATOM     20  C   UNL     1       7.022   5.006  14.911  0.00  0.00    +0.000 A 
ATOM     21  S   UNL     1       6.124   3.750  15.654  0.00  0.00    +0.000 S 
ATOM     22  C   UNL     1       6.232   4.581  17.139  0.00  0.00    +0.000 A 
BRANCH  18  24
ATOM     23  C   UNL     1       7.769   8.020  17.616  0.00  0.00    +0.000 C 
ATOM     24  C   UNL     1       7.569   6.586  18.097  0.00  0.00    +0.000 C 
ENDBRANCH  18  24
ENDBRANCH  16  22
ENDBRANCH   1  16
TORSDOF 5
ENDMDL
MODEL 7
REMARK VINA RESULT:      -7.3      1.624      2.353
REMARK  Name = 
REMARK  6 active torsions:
REMARK  status: ('A' for Active; 'I' for Inactive)
REMARK    1  A    between atoms: C_1  and  C_2
REMARK    2  A    between atoms: C_2  and  C_3
REMARK    3  A    between atoms: C_7  and  N_8
REMARK    4  A    between atoms: N_8  and  S_9
REMARK    5  A    between atoms: S_9  and  C_12
REMARK    6  A    between atoms: C_15  and  C_16
REMARK                            x       y       z     vdW  Elec       q    Type
REMARK                         _______ _______ _______ _____ _____    ______ ____
ROOT
ATOM      1  S   UNL     1       3.045   3.979  18.187  0.00  0.00    +0.000 S 
ATOM      2  O   UNL     1       1.913   3.354  17.540  0.00  0.00    +0.000 OA
ATOM      3  O   UNL     1       3.847   3.252  19.152  0.00  0.00    +0.000 OA
ENDROOT
BRANCH   1   4
ATOM      4  C   UNL     1       2.430   5.414  18.978  0.00  0.00    +0.000 A 
ATOM      5  C   UNL     1       1.894   5.354  20.240  0.00  0.00    +0.000 A 
ATOM      6  N   UNL     1       1.458   6.442  20.910  0.00  0.00    +0.000 NA
ATOM      7  C   UNL     1       1.597   7.643  20.303  0.00  0.00    +0.000 A 
ATOM      8  N   UNL     1       2.165   7.798  19.087  0.00  0.00    +0.000 NA
ATOM      9  C   UNL     1       2.591   6.674  18.457  0.00  0.00    +0.000 A 
BRANCH   7  10
ATOM     10  C   UNL     1       1.004   8.822  20.977  0.00  0.00    +0.000 A 
ATOM     11  C   UNL     1       0.649   8.780  22.341  0.00  0.00    +0.000 A 
ATOM     12  C   UNL     1      -0.008   9.845  22.968  0.00  0.00    +0.000 A 
ATOM     13  C   UNL     1      -0.316  10.992  22.246  0.00  0.00    +0.000 A 
ATOM     14  C   UNL     1       0.055  11.083  20.908  0.00  0.00    +0.000 A 
ATOM     15  C   UNL     1       0.711  10.013  20.283  0.00  0.00    +0.000 A 
ENDBRANCH   7  10
ENDBRANCH   1   4
BRANCH   1  16
ATOM     16  N   UNL     1       4.047   4.524  16.924  0.00  0.00    +0.000 N 
ATOM     17  H   UNL     1       3.668   5.394  16.551  0.00  0.00    +0.000 HD
BRANCH  16  22
ATOM     18  C   UNL     1       6.455   4.293  16.297  0.00  0.00    +0.000 A 
ATOM     19  N   UNL     1       7.736   4.480  16.807  0.00  0.00    +0.000 NA
ATOM     20  C   UNL     1       7.666   4.940  18.036  0.00  0.00    +0.000 A 
ATOM     21  S   UNL     1       6.087   5.210  18.645  0.00  0.00    +0.000 S 
ATOM     22  C   UNL     1       5.444   4.564  17.205  0.00  0.00    +0.000 A 
BRANCH  18  24
ATOM     23  C   UNL     1       7.180   4.800  13.952  0.00  0.00    +0.000 C 
ATOM     24  C   UNL     1       6.331   3.912  14.856  0.00  0.00    +0.000 C 
ENDBRANCH  18  24
ENDBRANCH  16  22
ENDBRANCH   1  16
TORSDOF 5
ENDMDL
MODEL 8
REMARK VINA RESULT:      -7.3      3.626      6.995
REMARK  Name = 
REMARK  6 active torsions:
REMARK  status: ('A' for Active; 'I' for Inactive)
REMARK    1  A    between atoms: C_1  and  C_2
REMARK    2  A    between atoms: C_2  and  C_3
REMARK    3  A    between atoms: C_7  and  N_8
REMARK    4  A    between atoms: N_8  and  S_9
REMARK    5  A    between atoms: S_9  and  C_12
REMARK    6  A    between atoms: C_15  and  C_16
REMARK                            x       y       z     vdW  Elec       q    Type
REMARK                         _______ _______ _______ _____ _____    ______ ____
ROOT
ATOM      1  S   UNL     1       5.906   4.639  17.554  0.00  0.00    +0.000 S 
ATOM      2  O   UNL     1       5.786   4.034  18.861  0.00  0.00    +0.000 OA
ATOM      3  O   UNL     1       6.590   3.953  16.475  0.00  0.00    +0.000 OA
ENDROOT
BRANCH   1   4
ATOM      4  C   UNL     1       6.698   6.181  17.794  0.00  0.00    +0.000 A 
ATOM      5  C   UNL     1       7.764   6.304  18.649  0.00  0.00    +0.000 A 
ATOM      6  N   UNL     1       8.441   7.460  18.824  0.00  0.00    +0.000 NA
ATOM      7  C   UNL     1       8.052   8.525  18.088  0.00  0.00    +0.000 A 
ATOM      8  N   UNL     1       7.050   8.476  17.183  0.00  0.00    +0.000 NA
ATOM      9  C   UNL     1       6.405   7.290  17.041  0.00  0.00    +0.000 A 
BRANCH   7  10
ATOM     10  C   UNL     1       8.704   9.826  18.370  0.00  0.00    +0.000 A 
ATOM     11  C   UNL     1       9.519  10.000  19.508  0.00  0.00    +0.000 A 
ATOM     12  C   UNL     1      10.057  11.247  19.848  0.00  0.00    +0.000 A 
ATOM     13  C   UNL     1       9.803  12.354  19.048  0.00  0.00    +0.000 A 
ATOM     14  C   UNL     1       9.036  12.210  17.896  0.00  0.00    +0.000 A 
ATOM     15  C   UNL     1       8.497  10.960  17.560  0.00  0.00    +0.000 A 
ENDBRANCH   7  10
ENDBRANCH   1   4
BRANCH   1  16
ATOM     16  N   UNL     1       4.313   4.993  17.069  0.00  0.00    +0.000 N 
ATOM     17  H   UNL     1       4.205   4.754  16.083  0.00  0.00    +0.000 HD
BRANCH  16  22
ATOM     18  C   UNL     1       2.586   5.233  18.859  0.00  0.00    +0.000 A 
ATOM     19  N   UNL     1       1.567   4.526  19.492  0.00  0.00    +0.000 NA
ATOM     20  C   UNL     1       1.470   3.323  18.974  0.00  0.00    +0.000 A 
ATOM     21  S   UNL     1       2.548   2.969  17.690  0.00  0.00    +0.000 S 
ATOM     22  C   UNL     1       3.276   4.495  17.911  0.00  0.00    +0.000 A 
BRANCH  18  24
ATOM     23  C   UNL     1       2.333   7.599  18.072  0.00  0.00    +0.000 C 
ATOM     24  C   UNL     1       2.752   6.676  19.213  0.00  0.00    +0.000 C 
ENDBRANCH  18  24
ENDBRANCH  16  22
ENDBRANCH   1  16
TORSDOF 5
ENDMDL
MODEL 9
REMARK VINA RESULT:      -7.2      0.453      1.127
REMARK  Name = 
REMARK  6 active torsions:
REMARK  status: ('A' for Active; 'I' for Inactive)
REMARK    1  A    between atoms: C_1  and  C_2
REMARK    2  A    between atoms: C_2  and  C_3
REMARK    3  A    between atoms: C_7  and  N_8
REMARK    4  A    between atoms: N_8  and  S_9
REMARK    5  A    between atoms: S_9  and  C_12
REMARK    6  A    between atoms: C_15  and  C_16
REMARK                            x       y       z     vdW  Elec       q    Type
REMARK                         _______ _______ _______ _____ _____    ______ ____
ROOT
ATOM      1  S   UNL     1       3.391   5.883  18.420  0.00  0.00    +0.000 S 
ATOM      2  O   UNL     1       2.476   4.934  17.825  0.00  0.00    +0.000 OA
ATOM      3  O   UNL     1       4.385   5.455  19.386  0.00  0.00    +0.000 OA
ENDROOT
BRANCH   1   4
ATOM      4  C   UNL     1       2.404   7.111  19.179  0.00  0.00    +0.000 A 
ATOM      5  C   UNL     1       2.053   7.021  20.503  0.00  0.00    +0.000 A 
ATOM      6  N   UNL     1       1.340   7.971  21.145  0.00  0.00    +0.000 NA
ATOM      7  C   UNL     1       0.993   9.072  20.439  0.00  0.00    +0.000 A 
ATOM      8  N   UNL     1       1.346   9.267  19.149  0.00  0.00    +0.000 NA
ATOM      9  C   UNL     1       2.067   8.284  18.551  0.00  0.00    +0.000 A 
BRANCH   7  10
ATOM     10  C   UNL     1       0.102  10.055  21.098  0.00  0.00    +0.000 A 
ATOM     11  C   UNL     1      -0.221   9.942  22.467  0.00  0.00    +0.000 A 
ATOM     12  C   UNL     1      -1.143  10.798  23.082  0.00  0.00    +0.000 A 
ATOM     13  C   UNL     1      -1.757  11.802  22.344  0.00  0.00    +0.000 A 
ATOM     14  C   UNL     1      -1.432  11.966  21.001  0.00  0.00    +0.000 A 
ATOM     15  C   UNL     1      -0.510  11.106  20.388  0.00  0.00    +0.000 A 
ENDBRANCH   7  10
ENDBRANCH   1   4
BRANCH   1  16
ATOM     16  N   UNL     1       4.174   6.641  17.113  0.00  0.00    +0.000 N 
ATOM     17  H   UNL     1       4.377   7.609  17.363  0.00  0.00    +0.000 HD
BRANCH  16  22
ATOM     18  C   UNL     1       6.609   6.295  16.669  0.00  0.00    +0.000 A 
ATOM     19  N   UNL     1       7.492   5.392  16.085  0.00  0.00    +0.000 NA
ATOM     20  C   UNL     1       6.829   4.364  15.605  0.00  0.00    +0.000 A 
ATOM     21  S   UNL     1       5.133   4.389  15.847  0.00  0.00    +0.000 S 
ATOM     22  C   UNL     1       5.276   5.936  16.547  0.00  0.00    +0.000 A 
BRANCH  18  24
ATOM     23  C   UNL     1       8.103   7.025  18.544  0.00  0.00    +0.000 C 
ATOM     24  C   UNL     1       7.192   7.461  17.401  0.00  0.00    +0.000 C 
ENDBRANCH  18  24
ENDBRANCH  16  22
ENDBRANCH   1  16
TORSDOF 5
ENDMDL
