MODEL 1
REMARK VINA RESULT:      -8.3      0.000      0.000
REMARK  Name = 
REMARK  7 active torsions:
REMARK  status: ('A' for Active; 'I' for Inactive)
REMARK    1  A    between atoms: C_1  and  C_2
REMARK    2  A    between atoms: C_4  and  C_5
REMARK    3  A    between atoms: C_9  and  C_10
REMARK    4  A    between atoms: C_16  and  C_17
REMARK    5  A    between atoms: C_17  and  N_18
REMARK    6  A    between atoms: C_22  and  C_23
REMARK    7  A    between atoms: C_23  and  O_24
REMARK                            x       y       z     vdW  Elec       q    Type
REMARK                         _______ _______ _______ _____ _____    ______ ____
ROOT
ATOM      1  C   UNL     1       7.823   7.019  18.422  0.00  0.00    +0.000 C 
ATOM      2  C   UNL     1       7.031   6.045  17.646  0.00  0.00    +0.000 A 
ATOM      3  O   UNL     1       7.356   5.974  16.325  0.00  0.00    +0.000 OA
ATOM      4  C   UNL     1       6.483   5.071  15.796  0.00  0.00    +0.000 A 
ATOM      5  N   UNL     1       5.623   4.590  16.661  0.00  0.00    +0.000 NA
ATOM      6  C   UNL     1       5.998   5.152  17.875  0.00  0.00    +0.000 A 
ENDROOT
BRANCH   4   7
ATOM      7  C   UNL     1       6.654   4.773  14.385  0.00  0.00    +0.000 A 
ATOM      8  C   UNL     1       7.793   5.206  13.697  0.00  0.00    +0.000 A 
ATOM      9  C   UNL     1       7.936   4.943  12.333  0.00  0.00    +0.000 A 
ATOM     10  C   UNL     1       6.933   4.261  11.644  0.00  0.00    +0.000 A 
ATOM     11  C   UNL     1       5.778   3.828  12.311  0.00  0.00    +0.000 A 
ATOM     12  C   UNL     1       5.658   4.077  13.686  0.00  0.00    +0.000 A 
BRANCH  11  13
ATOM     13  C   UNL     1       4.657   3.122  11.591  0.00  0.00    +0.000 C 
ATOM     14  F   UNL     1       4.283   3.730  10.432  0.00  0.00    +0.000 F 
ATOM     15  F   UNL     1       4.977   1.842  11.260  0.00  0.00    +0.000 F 
ATOM     16  F   UNL     1       3.527   3.038  12.349  0.00  0.00    +0.000 F 
ENDBRANCH  11  13
ENDBRANCH   4   7
BRANCH   6  17
ATOM     17  C   UNL     1       5.268   4.797  19.142  0.00  0.00    +0.000 C 
BRANCH  17  18
ATOM     18  N   UNL     1       3.939   4.146  18.991  0.00  0.00    +0.000 NA
ATOM     19  C   UNL     1       2.826   4.967  19.480  0.00  0.00    +0.000 C 
ATOM     20  C   UNL     1       2.544   4.485  20.888  0.00  0.00    +0.000 C 
ATOM     21  C   UNL     1       2.812   2.995  20.807  0.00  0.00    +0.000 C 
ATOM     22  C   UNL     1       3.815   2.822  19.659  0.00  0.00    +0.000 C 
BRANCH  22  23
ATOM     23  C   UNL     1       3.301   1.741  18.683  0.00  0.00    +0.000 C 
BRANCH  23  24
ATOM     24  O   UNL     1       4.309   0.771  18.418  0.00  0.00    +0.000 OA
ATOM     25  H   UNL     1       5.025   0.980  19.044  0.00  0.00    +0.000 HD
ENDBRANCH  23  24
ENDBRANCH  22  23
ENDBRANCH  17  18
ENDBRANCH   6  17
TORSDOF 6
ENDMDL
MODEL 2
REMARK VINA RESULT:      -8.1      1.318      1.963
REMARK  Name = 
REMARK  7 active torsions:
REMARK  status: ('A' for Active; 'I' for Inactive)
REMARK    1  A    between atoms: C_1  and  C_2
REMARK    2  A    between atoms: C_4  and  C_5
REMARK    3  A    between atoms: C_9  and  C_10
REMARK    4  A    between atoms: C_16  and  C_17
REMARK    5  A    between atoms: C_17  and  N_18
REMARK    6  A    between atoms: C_22  and  C_23
REMARK    7  A    between atoms: C_23  and  O_24
REMARK                            x       y       z     vdW  Elec       q    Type
REMARK                         _______ _______ _______ _____ _____    ______ ____
ROOT
ATOM      1  C   UNL     1       7.085   5.358  19.424  0.00  0.00    +0.000 C 
ATOM      2  C   UNL     1       6.173   5.086  18.295  0.00  0.00    +0.000 A 
ATOM      3  O   UNL     1       6.787   4.972  17.085  0.00  0.00    +0.000 OA
ATOM      4  C   UNL     1       5.774   4.778  16.194  0.00  0.00    +0.000 A 
ATOM      5  N   UNL     1       4.579   4.788  16.734  0.00  0.00    +0.000 NA
ATOM      6  C   UNL     1       4.813   4.917  18.097  0.00  0.00    +0.000 A 
ENDROOT
BRANCH   4   7
ATOM      7  C   UNL     1       6.172   4.575  14.813  0.00  0.00    +0.000 A 
ATOM      8  C   UNL     1       7.414   5.029  14.354  0.00  0.00    +0.000 A 
ATOM      9  C   UNL     1       7.777   4.857  13.017  0.00  0.00    +0.000 A 
ATOM     10  C   UNL     1       6.894   4.248  12.125  0.00  0.00    +0.000 A 
ATOM     11  C   UNL     1       5.640   3.796  12.560  0.00  0.00    +0.000 A 
ATOM     12  C   UNL     1       5.298   3.952  13.911  0.00  0.00    +0.000 A 
BRANCH  11  13
ATOM     13  C   UNL     1       4.645   3.167  11.618  0.00  0.00    +0.000 C 
ATOM     14  F   UNL     1       5.034   1.952  11.143  0.00  0.00    +0.000 F 
ATOM     15  F   UNL     1       3.430   2.975  12.198  0.00  0.00    +0.000 F 
ATOM     16  F   UNL     1       4.414   3.940  10.518  0.00  0.00    +0.000 F 
ENDBRANCH  11  13
ENDBRANCH   4   7
BRANCH   6  17
ATOM     17  C   UNL     1       3.670   4.916  19.076  0.00  0.00    +0.000 C 
BRANCH  17  18
ATOM     18  N   UNL     1       3.264   3.596  19.630  0.00  0.00    +0.000 NA
ATOM     19  C   UNL     1       3.574   2.468  18.744  0.00  0.00    +0.000 C 
ATOM     20  C   UNL     1       2.299   2.179  17.979  0.00  0.00    +0.000 C 
ATOM     21  C   UNL     1       1.211   2.467  18.995  0.00  0.00    +0.000 C 
ATOM     22  C   UNL     1       1.820   3.483  19.971  0.00  0.00    +0.000 C 
BRANCH  22  23
ATOM     23  C   UNL     1       1.618   2.991  21.421  0.00  0.00    +0.000 C 
BRANCH  23  24
ATOM     24  O   UNL     1       2.825   2.452  21.951  0.00  0.00    +0.000 OA
ATOM     25  H   UNL     1       2.597   1.541  22.210  0.00  0.00    +0.000 HD
ENDBRANCH  23  24
ENDBRANCH  22  23
ENDBRANCH  17  18
ENDBRANCH   6  17
TORSDOF 6
ENDMDL
MODEL 3
REMARK VINA RESULT:      -8.0      0.824      1.114
REMARK  Name = 
REMARK  7 active torsions:
REMARK  status: ('A' for Active; 'I' for Inactive)
REMARK    1  A    between atoms: C_1  and  C_2
REMARK    2  A    between atoms: C_4  and  C_5
REMARK    3  A    between atoms: C_9  and  C_10
REMARK    4  A    between atoms: C_16  and  C_17
REMARK    5  A    between atoms: C_17  and  N_18
REMARK    6  A    between atoms: C_22  and  C_23
REMARK    7  A    between atoms: C_23  and  O_24
REMARK                            x       y       z     vdW  Elec       q    Type
REMARK                         _______ _______ _______ _____ _____    ______ ____
ROOT
ATOM      1  C   UNL     1       7.889   6.902  18.577  0.00  0.00    +0.000 C 
ATOM      2  C   UNL     1       6.967   6.117  17.734  0.00  0.00    +0.000 A 
ATOM      3  O   UNL     1       7.378   5.951  16.446  0.00  0.00    +0.000 OA
ATOM      4  C   UNL     1       6.372   5.256  15.843  0.00  0.00    +0.000 A 
ATOM      5  N   UNL     1       5.357   4.995  16.630  0.00  0.00    +0.000 NA
ATOM      6  C   UNL     1       5.745   5.481  17.873  0.00  0.00    +0.000 A 
ENDROOT
BRANCH   4   7
ATOM      7  C   UNL     1       6.590   4.902  14.452  0.00  0.00    +0.000 A 
ATOM      8  C   UNL     1       7.752   5.308  13.785  0.00  0.00    +0.000 A 
ATOM      9  C   UNL     1       7.940   4.990  12.439  0.00  0.00    +0.000 A 
ATOM     10  C   UNL     1       6.959   4.282  11.744  0.00  0.00    +0.000 A 
ATOM     11  C   UNL     1       5.782   3.875  12.388  0.00  0.00    +0.000 A 
ATOM     12  C   UNL     1       5.617   4.179  13.747  0.00  0.00    +0.000 A 
BRANCH  11  13
ATOM     13  C   UNL     1       4.685   3.141  11.660  0.00  0.00    +0.000 C 
ATOM     14  F   UNL     1       5.048   1.902  11.230  0.00  0.00    +0.000 F 
ATOM     15  F   UNL     1       3.578   2.963  12.432  0.00  0.00    +0.000 F 
ATOM     16  F   UNL     1       4.261   3.812  10.552  0.00  0.00    +0.000 F 
ENDBRANCH  11  13
ENDBRANCH   4   7
BRANCH   6  17
ATOM     17  C   UNL     1       4.851   5.319  19.073  0.00  0.00    +0.000 C 
BRANCH  17  18
ATOM     18  N   UNL     1       3.409   5.069  18.805  0.00  0.00    +0.000 NA
ATOM     19  C   UNL     1       2.510   5.889  19.625  0.00  0.00    +0.000 C 
ATOM     20  C   UNL     1       2.113   5.021  20.801  0.00  0.00    +0.000 C 
ATOM     21  C   UNL     1       2.033   3.633  20.197  0.00  0.00    +0.000 C 
ATOM     22  C   UNL     1       2.979   3.656  18.989  0.00  0.00    +0.000 C 
BRANCH  22  23
ATOM     23  C   UNL     1       2.238   3.124  17.742  0.00  0.00    +0.000 C 
BRANCH  23  24
ATOM     24  O   UNL     1       2.314   1.704  17.671  0.00  0.00    +0.000 OA
ATOM     25  H   UNL     1       2.171   1.495  16.730  0.00  0.00    +0.000 HD
ENDBRANCH  23  24
ENDBRANCH  22  23
ENDBRANCH  17  18
ENDBRANCH   6  17
TORSDOF 6
ENDMDL
MODEL 4
REMARK VINA RESULT:      -8.0      1.577      2.252
REMARK  Name = 
REMARK  7 active torsions:
REMARK  status: ('A' for Active; 'I' for Inactive)
REMARK    1  A    between atoms: C_1  and  C_2
REMARK    2  A    between atoms: C_4  and  C_5
REMARK    3  A    between atoms: C_9  and  C_10
REMARK    4  A    between atoms: C_16  and  C_17
REMARK    5  A    between atoms: C_17  and  N_18
REMARK    6  A    between atoms: C_22  and  C_23
REMARK    7  A    between atoms: C_23  and  O_24
REMARK                            x       y       z     vdW  Elec       q    Type
REMARK                         _______ _______ _______ _____ _____    ______ ____
ROOT
ATOM      1  C   UNL     1       7.592   5.911  19.028  0.00  0.00    +0.000 C 
ATOM      2  C   UNL     1       6.779   5.140  18.067  0.00  0.00    +0.000 A 
ATOM      3  O   UNL     1       7.170   5.260  16.768  0.00  0.00    +0.000 OA
ATOM      4  C   UNL     1       6.267   4.524  16.060  0.00  0.00    +0.000 A 
ATOM      5  N   UNL     1       5.331   3.975  16.796  0.00  0.00    +0.000 NA
ATOM      6  C   UNL     1       5.677   4.302  18.101  0.00  0.00    +0.000 A 
ENDROOT
BRANCH   4   7
ATOM      7  C   UNL     1       6.494   4.447  14.628  0.00  0.00    +0.000 A 
ATOM      8  C   UNL     1       7.627   5.033  14.052  0.00  0.00    +0.000 A 
ATOM      9  C   UNL     1       7.823   4.982  12.671  0.00  0.00    +0.000 A 
ATOM     10  C   UNL     1       6.877   4.362  11.853  0.00  0.00    +0.000 A 
ATOM     11  C   UNL     1       5.728   3.779  12.407  0.00  0.00    +0.000 A 
ATOM     12  C   UNL     1       5.557   3.815  13.798  0.00  0.00    +0.000 A 
BRANCH  11  13
ATOM     13  C   UNL     1       4.667   3.135  11.552  0.00  0.00    +0.000 C 
ATOM     14  F   UNL     1       3.492   2.924  12.206  0.00  0.00    +0.000 F 
ATOM     15  F   UNL     1       4.360   3.880  10.455  0.00  0.00    +0.000 F 
ATOM     16  F   UNL     1       5.053   1.916  11.078  0.00  0.00    +0.000 F 
ENDBRANCH  11  13
ENDBRANCH   4   7
BRANCH   6  17
ATOM     17  C   UNL     1       4.858   3.801  19.260  0.00  0.00    +0.000 C 
BRANCH  17  18
ATOM     18  N   UNL     1       3.514   4.412  19.444  0.00  0.00    +0.000 NA
ATOM     19  C   UNL     1       2.449   3.429  19.674  0.00  0.00    +0.000 C 
ATOM     20  C   UNL     1       1.804   3.192  18.324  0.00  0.00    +0.000 C 
ATOM     21  C   UNL     1       1.869   4.556  17.664  0.00  0.00    +0.000 C 
ATOM     22  C   UNL     1       3.061   5.270  18.315  0.00  0.00    +0.000 C 
BRANCH  22  23
ATOM     23  C   UNL     1       2.621   6.666  18.807  0.00  0.00    +0.000 C 
BRANCH  23  24
ATOM     24  O   UNL     1       2.741   6.771  20.221  0.00  0.00    +0.000 OA
ATOM     25  H   UNL     1       3.438   7.437  20.363  0.00  0.00    +0.000 HD
ENDBRANCH  23  24
ENDBRANCH  22  23
ENDBRANCH  17  18
ENDBRANCH   6  17
TORSDOF 6
ENDMDL
MODEL 5
REMARK VINA RESULT:      -7.9      5.330      8.253
REMARK  Name = 
REMARK  7 active torsions:
REMARK  status: ('A' for Active; 'I' for Inactive)
REMARK    1  A    between atoms: C_1  and  C_2
REMARK    2  A    between atoms: C_4  and  C_5
REMARK    3  A    between atoms: C_9  and  C_10
REMARK    4  A    between atoms: C_16  and  C_17
REMARK    5  A    between atoms: C_17  and  N_18
REMARK    6  A    between atoms: C_22  and  C_23
REMARK    7  A    between atoms: C_23  and  O_24
REMARK                            x       y       z     vdW  Elec       q    Type
REMARK                         _______ _______ _______ _____ _____    ______ ____
ROOT
ATOM      1  C   UNL     1       2.486   3.372  17.219  0.00  0.00    +0.000 C 
ATOM      2  C   UNL     1       3.004   4.551  17.941  0.00  0.00    +0.000 A 
ATOM      3  O   UNL     1       2.120   5.582  18.053  0.00  0.00    +0.000 OA
ATOM      4  C   UNL     1       2.809   6.567  18.695  0.00  0.00    +0.000 A 
ATOM      5  N   UNL     1       4.053   6.256  18.971  0.00  0.00    +0.000 NA
ATOM      6  C   UNL     1       4.183   4.937  18.555  0.00  0.00    +0.000 A 
ENDROOT
BRANCH   4   7
ATOM      7  C   UNL     1       2.063   7.778  18.985  0.00  0.00    +0.000 A 
ATOM      8  C   UNL     1       1.846   8.739  17.991  0.00  0.00    +0.000 A 
ATOM      9  C   UNL     1       1.155   9.915  18.286  0.00  0.00    +0.000 A 
ATOM     10  C   UNL     1       0.692  10.148  19.581  0.00  0.00    +0.000 A 
ATOM     11  C   UNL     1       0.909   9.205  20.596  0.00  0.00    +0.000 A 
ATOM     12  C   UNL     1       1.583   8.017  20.280  0.00  0.00    +0.000 A 
BRANCH  11  13
ATOM     13  C   UNL     1       0.457   9.439  22.015  0.00  0.00    +0.000 C 
ATOM     14  F   UNL     1      -0.613   8.681  22.381  0.00  0.00    +0.000 F 
ATOM     15  F   UNL     1       1.435   9.173  22.923  0.00  0.00    +0.000 F 
ATOM     16  F   UNL     1       0.089  10.734  22.234  0.00  0.00    +0.000 F 
ENDBRANCH  11  13
ENDBRANCH   4   7
BRANCH   6  17
ATOM     17  C   UNL     1       5.477   4.194  18.755  0.00  0.00    +0.000 C 
BRANCH  17  18
ATOM     18  N   UNL     1       6.578   4.500  17.803  0.00  0.00    +0.000 NA
ATOM     19  C   UNL     1       7.782   5.035  18.450  0.00  0.00    +0.000 C 
ATOM     20  C   UNL     1       7.685   6.541  18.324  0.00  0.00    +0.000 C 
ATOM     21  C   UNL     1       7.029   6.736  16.972  0.00  0.00    +0.000 C 
ATOM     22  C   UNL     1       6.218   5.457  16.722  0.00  0.00    +0.000 C 
BRANCH  22  23
ATOM     23  C   UNL     1       6.562   4.892  15.327  0.00  0.00    +0.000 C 
BRANCH  23  24
ATOM     24  O   UNL     1       7.793   5.424  14.849  0.00  0.00    +0.000 OA
ATOM     25  H   UNL     1       7.698   5.439  13.880  0.00  0.00    +0.000 HD
ENDBRANCH  23  24
ENDBRANCH  22  23
ENDBRANCH  17  18
ENDBRANCH   6  17
TORSDOF 6
ENDMDL
MODEL 6
REMARK VINA RESULT:      -7.9      5.686      7.957
REMARK  Name = 
REMARK  7 active torsions:
REMARK  status: ('A' for Active; 'I' for Inactive)
REMARK    1  A    between atoms: C_1  and  C_2
REMARK    2  A    between atoms: C_4  and  C_5
REMARK    3  A    between atoms: C_9  and  C_10
REMARK    4  A    between atoms: C_16  and  C_17
REMARK    5  A    between atoms: C_17  and  N_18
REMARK    6  A    between atoms: C_22  and  C_23
REMARK    7  A    between atoms: C_23  and  O_24
REMARK                            x       y       z     vdW  Elec       q    Type
REMARK                         _______ _______ _______ _____ _____    ______ ____
ROOT
ATOM      1  C   UNL     1       5.070   5.801  16.420  0.00  0.00    +0.000 C 
ATOM      2  C   UNL     1       4.265   5.948  17.649  0.00  0.00    +0.000 A 
ATOM      3  O   UNL     1       3.506   7.078  17.697  0.00  0.00    +0.000 OA
ATOM      4  C   UNL     1       2.896   7.040  18.916  0.00  0.00    +0.000 A 
ATOM      5  N   UNL     1       3.227   6.002  19.646  0.00  0.00    +0.000 NA
ATOM      6  C   UNL     1       4.056   5.248  18.825  0.00  0.00    +0.000 A 
ENDROOT
BRANCH   4   7
ATOM      7  C   UNL     1       1.977   8.127  19.201  0.00  0.00    +0.000 A 
ATOM      8  C   UNL     1       1.699   9.099  18.233  0.00  0.00    +0.000 A 
ATOM      9  C   UNL     1       0.837  10.158  18.525  0.00  0.00    +0.000 A 
ATOM     10  C   UNL     1       0.264  10.264  19.792  0.00  0.00    +0.000 A 
ATOM     11  C   UNL     1       0.538   9.309  20.781  0.00  0.00    +0.000 A 
ATOM     12  C   UNL     1       1.384   8.236  20.467  0.00  0.00    +0.000 A 
BRANCH  11  13
ATOM     13  C   UNL     1      -0.034   9.411  22.172  0.00  0.00    +0.000 C 
ATOM     14  F   UNL     1       0.905   9.347  23.156  0.00  0.00    +0.000 F 
ATOM     15  F   UNL     1      -0.710  10.575  22.372  0.00  0.00    +0.000 F 
ATOM     16  F   UNL     1      -0.924   8.414  22.441  0.00  0.00    +0.000 F 
ENDBRANCH  11  13
ENDBRANCH   4   7
BRANCH   6  17
ATOM     17  C   UNL     1       4.609   3.930  19.296  0.00  0.00    +0.000 C 
BRANCH  17  18
ATOM     18  N   UNL     1       3.621   2.866  19.618  0.00  0.00    +0.000 NA
ATOM     19  C   UNL     1       3.571   1.791  18.621  0.00  0.00    +0.000 C 
ATOM     20  C   UNL     1       2.420   2.134  17.698  0.00  0.00    +0.000 C 
ATOM     21  C   UNL     1       1.406   2.771  18.628  0.00  0.00    +0.000 C 
ATOM     22  C   UNL     1       2.224   3.347  19.792  0.00  0.00    +0.000 C 
BRANCH  22  23
ATOM     23  C   UNL     1       1.623   2.869  21.132  0.00  0.00    +0.000 C 
BRANCH  23  24
ATOM     24  O   UNL     1       2.648   2.527  22.059  0.00  0.00    +0.000 OA
ATOM     25  H   UNL     1       3.480   2.737  21.597  0.00  0.00    +0.000 HD
ENDBRANCH  23  24
ENDBRANCH  22  23
ENDBRANCH  17  18
ENDBRANCH   6  17
TORSDOF 6
ENDMDL
MODEL 7
REMARK VINA RESULT:      -7.7      1.708      2.246
REMARK  Name = 
REMARK  7 active torsions:
REMARK  status: ('A' for Active; 'I' for Inactive)
REMARK    1  A    between atoms: C_1  and  C_2
REMARK    2  A    between atoms: C_4  and  C_5
REMARK    3  A    between atoms: C_9  and  C_10
REMARK    4  A    between atoms: C_16  and  C_17
REMARK    5  A    between atoms: C_17  and  N_18
REMARK    6  A    between atoms: C_22  and  C_23
REMARK    7  A    between atoms: C_23  and  O_24
REMARK                            x       y       z     vdW  Elec       q    Type
REMARK                         _______ _______ _______ _____ _____    ______ ____
ROOT
ATOM      1  C   UNL     1       3.866   6.937  17.666  0.00  0.00    +0.000 C 
ATOM      2  C   UNL     1       4.641   5.762  17.224  0.00  0.00    +0.000 A 
ATOM      3  O   UNL     1       5.047   5.806  15.925  0.00  0.00    +0.000 OA
ATOM      4  C   UNL     1       5.688   4.621  15.716  0.00  0.00    +0.000 A 
ATOM      5  N   UNL     1       5.696   3.828  16.760  0.00  0.00    +0.000 NA
ATOM      6  C   UNL     1       5.086   4.567  17.765  0.00  0.00    +0.000 A 
ENDROOT
BRANCH   4   7
ATOM      7  C   UNL     1       6.269   4.437  14.398  0.00  0.00    +0.000 A 
ATOM      8  C   UNL     1       7.252   5.312  13.923  0.00  0.00    +0.000 A 
ATOM      9  C   UNL     1       7.783   5.146  12.642  0.00  0.00    +0.000 A 
ATOM     10  C   UNL     1       7.321   4.118  11.821  0.00  0.00    +0.000 A 
ATOM     11  C   UNL     1       6.328   3.237  12.272  0.00  0.00    +0.000 A 
ATOM     12  C   UNL     1       5.821   3.398  13.569  0.00  0.00    +0.000 A 
BRANCH  11  13
ATOM     13  C   UNL     1       5.778   2.138  11.399  0.00  0.00    +0.000 C 
ATOM     14  F   UNL     1       4.531   2.394  10.918  0.00  0.00    +0.000 F 
ATOM     15  F   UNL     1       6.559   1.897  10.311  0.00  0.00    +0.000 F 
ATOM     16  F   UNL     1       5.686   0.949  12.060  0.00  0.00    +0.000 F 
ENDBRANCH  11  13
ENDBRANCH   4   7
BRANCH   6  17
ATOM     17  C   UNL     1       4.952   4.007  19.155  0.00  0.00    +0.000 C 
BRANCH  17  18
ATOM     18  N   UNL     1       3.705   3.252  19.456  0.00  0.00    +0.000 NA
ATOM     19  C   UNL     1       3.374   2.241  18.445  0.00  0.00    +0.000 C 
ATOM     20  C   UNL     1       2.373   2.896  17.515  0.00  0.00    +0.000 C 
ATOM     21  C   UNL     1       1.562   3.779  18.444  0.00  0.00    +0.000 C 
ATOM     22  C   UNL     1       2.492   4.098  19.622  0.00  0.00    +0.000 C 
BRANCH  22  23
ATOM     23  C   UNL     1       1.766   3.791  20.950  0.00  0.00    +0.000 C 
BRANCH  23  24
ATOM     24  O   UNL     1       0.577   3.042  20.722  0.00  0.00    +0.000 OA
ATOM     25  H   UNL     1       0.582   2.856  19.765  0.00  0.00    +0.000 HD
ENDBRANCH  23  24
ENDBRANCH  22  23
ENDBRANCH  17  18
ENDBRANCH   6  17
TORSDOF 6
ENDMDL
MODEL 8
REMARK VINA RESULT:      -7.7      1.792      2.443
REMARK  Name = 
REMARK  7 active torsions:
REMARK  status: ('A' for Active; 'I' for Inactive)
REMARK    1  A    between atoms: C_1  and  C_2
REMARK    2  A    between atoms: C_4  and  C_5
REMARK    3  A    between atoms: C_9  and  C_10
REMARK    4  A    between atoms: C_16  and  C_17
REMARK    5  A    between atoms: C_17  and  N_18
REMARK    6  A    between atoms: C_22  and  C_23
REMARK    7  A    between atoms: C_23  and  O_24
REMARK                            x       y       z     vdW  Elec       q    Type
REMARK                         _______ _______ _______ _____ _____    ______ ____
ROOT
ATOM      1  C   UNL     1       6.401   5.400  19.458  0.00  0.00    +0.000 C 
ATOM      2  C   UNL     1       5.801   4.634  18.348  0.00  0.00    +0.000 A 
ATOM      3  O   UNL     1       6.345   4.887  17.125  0.00  0.00    +0.000 OA
ATOM      4  C   UNL     1       5.621   4.127  16.255  0.00  0.00    +0.000 A 
ATOM      5  N   UNL     1       4.656   3.443  16.819  0.00  0.00    +0.000 NA
ATOM      6  C   UNL     1       4.793   3.700  18.177  0.00  0.00    +0.000 A 
ENDROOT
BRANCH   4   7
ATOM      7  C   UNL     1       6.040   4.180  14.865  0.00  0.00    +0.000 A 
ATOM      8  C   UNL     1       7.226   4.828  14.502  0.00  0.00    +0.000 A 
ATOM      9  C   UNL     1       7.606   4.901  13.160  0.00  0.00    +0.000 A 
ATOM     10  C   UNL     1       6.795   4.345  12.172  0.00  0.00    +0.000 A 
ATOM     11  C   UNL     1       5.597   3.701  12.512  0.00  0.00    +0.000 A 
ATOM     12  C   UNL     1       5.239   3.612  13.865  0.00  0.00    +0.000 A 
BRANCH  11  13
ATOM     13  C   UNL     1       4.676   3.120  11.469  0.00  0.00    +0.000 C 
ATOM     14  F   UNL     1       5.089   1.918  10.982  0.00  0.00    +0.000 F 
ATOM     15  F   UNL     1       3.415   2.923  11.941  0.00  0.00    +0.000 F 
ATOM     16  F   UNL     1       4.543   3.936  10.384  0.00  0.00    +0.000 F 
ENDBRANCH  11  13
ENDBRANCH   4   7
BRANCH   6  17
ATOM     17  C   UNL     1       3.883   3.041  19.179  0.00  0.00    +0.000 C 
BRANCH  17  18
ATOM     18  N   UNL     1       3.310   3.913  20.239  0.00  0.00    +0.000 NA
ATOM     19  C   UNL     1       2.702   3.167  21.346  0.00  0.00    +0.000 C 
ATOM     20  C   UNL     1       1.220   3.108  21.041  0.00  0.00    +0.000 C 
ATOM     21  C   UNL     1       0.946   4.445  20.382  0.00  0.00    +0.000 C 
ATOM     22  C   UNL     1       2.282   4.877  19.762  0.00  0.00    +0.000 C 
BRANCH  22  23
ATOM     23  C   UNL     1       2.613   6.320  20.200  0.00  0.00    +0.000 C 
BRANCH  23  24
ATOM     24  O   UNL     1       1.500   6.924  20.852  0.00  0.00    +0.000 OA
ATOM     25  H   UNL     1       0.803   6.243  20.835  0.00  0.00    +0.000 HD
ENDBRANCH  23  24
ENDBRANCH  22  23
ENDBRANCH  17  18
ENDBRANCH   6  17
TORSDOF 6
ENDMDL
MODEL 9
REMARK VINA RESULT:      -7.7      1.738      2.019
REMARK  Name = 
REMARK  7 active torsions:
REMARK  status: ('A' for Active; 'I' for Inactive)
REMARK    1  A    between atoms: C_1  and  C_2
REMARK    2  A    between atoms: C_4  and  C_5
REMARK    3  A    between atoms: C_9  and  C_10
REMARK    4  A    between atoms: C_16  and  C_17
REMARK    5  A    between atoms: C_17  and  N_18
REMARK    6  A    between atoms: C_22  and  C_23
REMARK    7  A    between atoms: C_23  and  O_24
REMARK                            x       y       z     vdW  Elec       q    Type
REMARK                         _______ _______ _______ _____ _____    ______ ____
ROOT
ATOM      1  C   UNL     1       3.754   7.468  17.974  0.00  0.00    +0.000 C 
ATOM      2  C   UNL     1       4.258   6.154  17.529  0.00  0.00    +0.000 A 
ATOM      3  O   UNL     1       4.751   6.135  16.259  0.00  0.00    +0.000 OA
ATOM      4  C   UNL     1       5.105   4.838  16.038  0.00  0.00    +0.000 A 
ATOM      5  N   UNL     1       4.853   4.037  17.045  0.00  0.00    +0.000 NA
ATOM      6  C   UNL     1       4.368   4.873  18.043  0.00  0.00    +0.000 A 
ENDROOT
BRANCH   4   7
ATOM      7  C   UNL     1       5.715   4.556  14.751  0.00  0.00    +0.000 A 
ATOM      8  C   UNL     1       7.027   4.958  14.480  0.00  0.00    +0.000 A 
ATOM      9  C   UNL     1       7.596   4.711  13.228  0.00  0.00    +0.000 A 
ATOM     10  C   UNL     1       6.850   4.079  12.234  0.00  0.00    +0.000 A 
ATOM     11  C   UNL     1       5.529   3.678  12.480  0.00  0.00    +0.000 A 
ATOM     12  C   UNL     1       4.978   3.909  13.749  0.00  0.00    +0.000 A 
BRANCH  11  13
ATOM     13  C   UNL     1       4.680   3.026  11.418  0.00  0.00    +0.000 C 
ATOM     14  F   UNL     1       5.187   1.850  10.958  0.00  0.00    +0.000 F 
ATOM     15  F   UNL     1       3.422   2.748  11.856  0.00  0.00    +0.000 F 
ATOM     16  F   UNL     1       4.524   3.820  10.320  0.00  0.00    +0.000 F 
ENDBRANCH  11  13
ENDBRANCH   4   7
BRANCH   6  17
ATOM     17  C   UNL     1       4.009   4.323  19.398  0.00  0.00    +0.000 C 
BRANCH  17  18
ATOM     18  N   UNL     1       2.562   4.134  19.681  0.00  0.00    +0.000 NA
ATOM     19  C   UNL     1       2.159   4.603  21.013  0.00  0.00    +0.000 C 
ATOM     20  C   UNL     1       2.166   3.377  21.903  0.00  0.00    +0.000 C 
ATOM     21  C   UNL     1       1.698   2.272  20.977  0.00  0.00    +0.000 C 
ATOM     22  C   UNL     1       2.084   2.730  19.564  0.00  0.00    +0.000 C 
BRANCH  22  23
ATOM     23  C   UNL     1       0.855   2.626  18.634  0.00  0.00    +0.000 C 
BRANCH  23  24
ATOM     24  O   UNL     1       0.840   3.688  17.686  0.00  0.00    +0.000 OA
ATOM     25  H   UNL     1       0.052   3.520  17.138  0.00  0.00    +0.000 HD
ENDBRANCH  23  24
ENDBRANCH  22  23
ENDBRANCH  17  18
ENDBRANCH   6  17
TORSDOF 6
ENDMDL
