MODEL 1
REMARK VINA RESULT:      -8.8      0.000      0.000
REMARK  Name = 
REMARK  5 active torsions:
REMARK  status: ('A' for Active; 'I' for Inactive)
REMARK    1  A    between atoms: C_1  and  C_2
REMARK    2  A    between atoms: C_2  and  C_3
REMARK    3  A    between atoms: C_10  and  C_11
REMARK    4  A    between atoms: N_13  and  C_14
REMARK    5  A    between atoms: C_14  and  C_15
REMARK                            x       y       z     vdW  Elec       q    Type
REMARK                         _______ _______ _______ _____ _____    ______ ____
ROOT
ATOM      1  C   UNL     1       2.427   8.393  18.063  0.00  0.00    +0.000 C 
ATOM      2  O   UNL     1       2.408   9.177  17.118  0.00  0.00    +0.000 OA
ATOM      3  N   UNL     1       1.773   8.649  19.252  0.00  0.00    +0.000 N 
ATOM      4  H   UNL     1       1.786   7.953  19.985  0.00  0.00    +0.000 HD
ENDROOT
BRANCH   1  14
ATOM      5  C   UNL     1       1.103   3.046  18.433  0.00  0.00    +0.000 C 
ATOM      6  C   UNL     1       2.490   3.421  18.949  0.00  0.00    +0.000 C 
ATOM      7  C   UNL     1       2.529   3.500  20.475  0.00  0.00    +0.000 C 
ATOM      8  C   UNL     1       3.561   2.431  18.421  0.00  0.00    +0.000 C 
ATOM      9  O   UNL     1       3.620   1.232  18.623  0.00  0.00    +0.000 OA
ATOM     10  N   UNL     1       4.479   3.172  17.670  0.00  0.00    +0.000 N 
ATOM     11  C   UNL     1       4.145   4.516  17.637  0.00  0.00    +0.000 A 
ATOM     12  C   UNL     1       4.815   5.559  17.021  0.00  0.00    +0.000 A 
ATOM     13  C   UNL     1       4.281   6.859  17.154  0.00  0.00    +0.000 A 
ATOM     14  C   UNL     1       3.088   7.071  17.878  0.00  0.00    +0.000 A 
ATOM     15  C   UNL     1       2.428   5.987  18.472  0.00  0.00    +0.000 A 
ATOM     16  C   UNL     1       2.974   4.721  18.354  0.00  0.00    +0.000 A 
ATOM     17  H   UNL     1       5.278   2.742  17.229  0.00  0.00    +0.000 HD
ENDBRANCH   1  14
BRANCH   3  18
ATOM     18  C   UNL     1       0.873   9.861  19.390  0.00  0.00    +0.000 C 
ATOM     19  C   UNL     1       1.424  11.155  18.676  0.00  0.00    +0.000 C 
ATOM     20  O   UNL     1       0.160  11.356  17.992  0.00  0.00    +0.000 OA
ATOM     21  C   UNL     1      -0.181   9.968  18.233  0.00  0.00    +0.000 C 
BRANCH  18  22
ATOM     22  C   UNL     1       0.313  10.086  20.886  0.00  0.00    +0.000 A 
ATOM     23  C   UNL     1      -0.262  11.316  21.275  0.00  0.00    +0.000 A 
ATOM     24  C   UNL     1      -0.935  11.470  22.488  0.00  0.00    +0.000 A 
ATOM     25  C   UNL     1      -1.019  10.405  23.376  0.00  0.00    +0.000 A 
ATOM     26  C   UNL     1      -0.389   9.205  23.069  0.00  0.00    +0.000 A 
ATOM     27  C   UNL     1       0.277   9.056  21.848  0.00  0.00    +0.000 A 
ENDBRANCH  18  22
ENDBRANCH   3  18
TORSDOF 3
ENDMDL
MODEL 2
REMARK VINA RESULT:      -8.7      2.021      7.928
REMARK  Name = 
REMARK  5 active torsions:
REMARK  status: ('A' for Active; 'I' for Inactive)
REMARK    1  A    between atoms: C_1  and  C_2
REMARK    2  A    between atoms: C_2  and  C_3
REMARK    3  A    between atoms: C_10  and  C_11
REMARK    4  A    between atoms: N_13  and  C_14
REMARK    5  A    between atoms: C_14  and  C_15
REMARK                            x       y       z     vdW  Elec       q    Type
REMARK                         _______ _______ _______ _____ _____    ______ ____
ROOT
ATOM      1  C   UNL     1       2.497   5.889  18.416  0.00  0.00    +0.000 C 
ATOM      2  O   UNL     1       1.820   5.222  17.638  0.00  0.00    +0.000 OA
ATOM      3  N   UNL     1       3.663   5.412  18.980  0.00  0.00    +0.000 N 
ATOM      4  H   UNL     1       4.205   6.015  19.584  0.00  0.00    +0.000 HD
ENDROOT
BRANCH   1  14
ATOM      5  C   UNL     1       1.734   9.221  22.750  0.00  0.00    +0.000 C 
ATOM      6  C   UNL     1       0.730   9.378  21.611  0.00  0.00    +0.000 C 
ATOM      7  C   UNL     1      -0.600   8.692  21.925  0.00  0.00    +0.000 C 
ATOM      8  C   UNL     1       0.510  10.875  21.270  0.00  0.00    +0.000 C 
ATOM      9  O   UNL     1       0.075  11.742  22.005  0.00  0.00    +0.000 OA
ATOM     10  N   UNL     1       0.892  11.059  19.938  0.00  0.00    +0.000 N 
ATOM     11  C   UNL     1       1.334   9.877  19.365  0.00  0.00    +0.000 A 
ATOM     12  C   UNL     1       1.769   9.654  18.070  0.00  0.00    +0.000 A 
ATOM     13  C   UNL     1       2.148   8.340  17.717  0.00  0.00    +0.000 A 
ATOM     14  C   UNL     1       2.101   7.302  18.672  0.00  0.00    +0.000 A 
ATOM     15  C   UNL     1       1.672   7.571  19.979  0.00  0.00    +0.000 A 
ATOM     16  C   UNL     1       1.281   8.857  20.306  0.00  0.00    +0.000 A 
ATOM     17  H   UNL     1       0.830  11.958  19.484  0.00  0.00    +0.000 HD
ENDBRANCH   1  14
BRANCH   3  18
ATOM     18  C   UNL     1       4.240   4.079  18.545  0.00  0.00    +0.000 C 
ATOM     19  C   UNL     1       4.748   3.179  19.735  0.00  0.00    +0.000 C 
ATOM     20  O   UNL     1       3.988   2.044  19.246  0.00  0.00    +0.000 OA
ATOM     21  C   UNL     1       3.159   2.945  18.471  0.00  0.00    +0.000 C 
BRANCH  18  22
ATOM     22  C   UNL     1       5.243   4.187  17.286  0.00  0.00    +0.000 A 
ATOM     23  C   UNL     1       4.775   4.046  15.962  0.00  0.00    +0.000 A 
ATOM     24  C   UNL     1       5.575   4.337  14.855  0.00  0.00    +0.000 A 
ATOM     25  C   UNL     1       6.891   4.742  15.039  0.00  0.00    +0.000 A 
ATOM     26  C   UNL     1       7.417   4.808  16.324  0.00  0.00    +0.000 A 
ATOM     27  C   UNL     1       6.606   4.521  17.427  0.00  0.00    +0.000 A 
ENDBRANCH  18  22
ENDBRANCH   3  18
TORSDOF 3
ENDMDL
MODEL 3
REMARK VINA RESULT:      -8.7      2.129      7.861
REMARK  Name = 
REMARK  5 active torsions:
REMARK  status: ('A' for Active; 'I' for Inactive)
REMARK    1  A    between atoms: C_1  and  C_2
REMARK    2  A    between atoms: C_2  and  C_3
REMARK    3  A    between atoms: C_10  and  C_11
REMARK    4  A    between atoms: N_13  and  C_14
REMARK    5  A    between atoms: C_14  and  C_15
REMARK                            x       y       z     vdW  Elec       q    Type
REMARK                         _______ _______ _______ _____ _____    ______ ____
ROOT
ATOM      1  C   UNL     1       2.435   6.922  19.136  0.00  0.00    +0.000 C 
ATOM      2  O   UNL     1       2.375   7.006  17.912  0.00  0.00    +0.000 OA
ATOM      3  N   UNL     1       3.148   5.929  19.777  0.00  0.00    +0.000 N 
ATOM      4  H   UNL     1       3.199   5.927  20.786  0.00  0.00    +0.000 HD
ENDROOT
BRANCH   1  14
ATOM      5  C   UNL     1      -0.913  11.245  18.373  0.00  0.00    +0.000 C 
ATOM      6  C   UNL     1       0.224  11.457  19.370  0.00  0.00    +0.000 C 
ATOM      7  C   UNL     1       1.373  12.260  18.761  0.00  0.00    +0.000 C 
ATOM      8  C   UNL     1      -0.296  12.134  20.664  0.00  0.00    +0.000 C 
ATOM      9  O   UNL     1      -0.821  13.227  20.765  0.00  0.00    +0.000 OA
ATOM     10  N   UNL     1      -0.039  11.258  21.724  0.00  0.00    +0.000 N 
ATOM     11  C   UNL     1       0.580  10.098  21.289  0.00  0.00    +0.000 A 
ATOM     12  C   UNL     1       1.009   9.015  22.037  0.00  0.00    +0.000 A 
ATOM     13  C   UNL     1       1.641   7.950  21.357  0.00  0.00    +0.000 A 
ATOM     14  C   UNL     1       1.804   7.995  19.955  0.00  0.00    +0.000 A 
ATOM     15  C   UNL     1       1.339   9.100  19.231  0.00  0.00    +0.000 A 
ATOM     16  C   UNL     1       0.743  10.147  19.911  0.00  0.00    +0.000 A 
ATOM     17  H   UNL     1      -0.283  11.487  22.676  0.00  0.00    +0.000 HD
ENDBRANCH   1  14
BRANCH   3  18
ATOM     18  C   UNL     1       4.017   4.972  18.984  0.00  0.00    +0.000 C 
ATOM     19  C   UNL     1       4.062   3.509  19.570  0.00  0.00    +0.000 C 
ATOM     20  O   UNL     1       3.739   2.944  18.273  0.00  0.00    +0.000 OA
ATOM     21  C   UNL     1       3.227   4.232  17.849  0.00  0.00    +0.000 C 
BRANCH  18  22
ATOM     22  C   UNL     1       5.448   5.591  18.567  0.00  0.00    +0.000 A 
ATOM     23  C   UNL     1       5.575   6.459  17.461  0.00  0.00    +0.000 A 
ATOM     24  C   UNL     1       6.751   7.167  17.203  0.00  0.00    +0.000 A 
ATOM     25  C   UNL     1       7.858   6.995  18.025  0.00  0.00    +0.000 A 
ATOM     26  C   UNL     1       7.801   6.082  19.071  0.00  0.00    +0.000 A 
ATOM     27  C   UNL     1       6.617   5.383  19.326  0.00  0.00    +0.000 A 
ENDBRANCH  18  22
ENDBRANCH   3  18
TORSDOF 3
ENDMDL
MODEL 4
REMARK VINA RESULT:      -8.7      2.021      7.577
REMARK  Name = 
REMARK  5 active torsions:
REMARK  status: ('A' for Active; 'I' for Inactive)
REMARK    1  A    between atoms: C_1  and  C_2
REMARK    2  A    between atoms: C_2  and  C_3
REMARK    3  A    between atoms: C_10  and  C_11
REMARK    4  A    between atoms: N_13  and  C_14
REMARK    5  A    between atoms: C_14  and  C_15
REMARK                            x       y       z     vdW  Elec       q    Type
REMARK                         _______ _______ _______ _____ _____    ______ ____
ROOT
ATOM      1  C   UNL     1       2.813   6.625  18.182  0.00  0.00    +0.000 C 
ATOM      2  O   UNL     1       3.482   6.595  17.152  0.00  0.00    +0.000 OA
ATOM      3  N   UNL     1       2.679   5.529  19.011  0.00  0.00    +0.000 N 
ATOM      4  H   UNL     1       2.150   5.617  19.868  0.00  0.00    +0.000 HD
ENDROOT
BRANCH   1  14
ATOM      5  C   UNL     1       1.651   9.277  22.882  0.00  0.00    +0.000 C 
ATOM      6  C   UNL     1       0.611   9.412  21.772  0.00  0.00    +0.000 C 
ATOM      7  C   UNL     1      -0.594   8.502  22.007  0.00  0.00    +0.000 C 
ATOM      8  C   UNL     1       0.164  10.888  21.611  0.00  0.00    +0.000 C 
ATOM      9  O   UNL     1      -0.381  11.588  22.445  0.00  0.00    +0.000 OA
ATOM     10  N   UNL     1       0.486  11.281  20.309  0.00  0.00    +0.000 N 
ATOM     11  C   UNL     1       1.087  10.254  19.599  0.00  0.00    +0.000 A 
ATOM     12  C   UNL     1       1.523  10.251  18.286  0.00  0.00    +0.000 A 
ATOM     13  C   UNL     1       2.088   9.060  17.779  0.00  0.00    +0.000 A 
ATOM     14  C   UNL     1       2.216   7.923  18.605  0.00  0.00    +0.000 A 
ATOM     15  C   UNL     1       1.779   7.970  19.935  0.00  0.00    +0.000 A 
ATOM     16  C   UNL     1       1.207   9.136  20.413  0.00  0.00    +0.000 A 
ATOM     17  H   UNL     1       0.280  12.207  19.965  0.00  0.00    +0.000 HD
ENDBRANCH   1  14
BRANCH   3  18
ATOM     18  C   UNL     1       3.481   4.268  18.755  0.00  0.00    +0.000 C 
ATOM     19  C   UNL     1       3.142   3.081  19.736  0.00  0.00    +0.000 C 
ATOM     20  O   UNL     1       2.958   2.169  18.624  0.00  0.00    +0.000 OA
ATOM     21  C   UNL     1       2.784   3.301  17.736  0.00  0.00    +0.000 C 
BRANCH  18  22
ATOM     22  C   UNL     1       5.054   4.537  18.518  0.00  0.00    +0.000 A 
ATOM     23  C   UNL     1       5.689   4.153  17.317  0.00  0.00    +0.000 A 
ATOM     24  C   UNL     1       6.989   4.555  17.002  0.00  0.00    +0.000 A 
ATOM     25  C   UNL     1       7.715   5.323  17.903  0.00  0.00    +0.000 A 
ATOM     26  C   UNL     1       7.157   5.646  19.135  0.00  0.00    +0.000 A 
ATOM     27  C   UNL     1       5.852   5.246  19.439  0.00  0.00    +0.000 A 
ENDBRANCH  18  22
ENDBRANCH   3  18
TORSDOF 3
ENDMDL
MODEL 5
REMARK VINA RESULT:      -8.6      1.709      2.741
REMARK  Name = 
REMARK  5 active torsions:
REMARK  status: ('A' for Active; 'I' for Inactive)
REMARK    1  A    between atoms: C_1  and  C_2
REMARK    2  A    between atoms: C_2  and  C_3
REMARK    3  A    between atoms: C_10  and  C_11
REMARK    4  A    between atoms: N_13  and  C_14
REMARK    5  A    between atoms: C_14  and  C_15
REMARK                            x       y       z     vdW  Elec       q    Type
REMARK                         _______ _______ _______ _____ _____    ______ ____
ROOT
ATOM      1  C   UNL     1       1.746   8.118  19.201  0.00  0.00    +0.000 C 
ATOM      2  O   UNL     1       1.652   8.287  20.414  0.00  0.00    +0.000 OA
ATOM      3  N   UNL     1       1.257   9.029  18.286  0.00  0.00    +0.000 N 
ATOM      4  H   UNL     1       1.395   8.863  17.298  0.00  0.00    +0.000 HD
ENDROOT
BRANCH   1  14
ATOM      5  C   UNL     1       1.082   2.652  18.802  0.00  0.00    +0.000 C 
ATOM      6  C   UNL     1       2.482   3.122  19.189  0.00  0.00    +0.000 C 
ATOM      7  C   UNL     1       2.742   2.964  20.687  0.00  0.00    +0.000 C 
ATOM      8  C   UNL     1       3.562   2.378  18.362  0.00  0.00    +0.000 C 
ATOM      9  O   UNL     1       3.780   1.180  18.341  0.00  0.00    +0.000 OA
ATOM     10  N   UNL     1       4.270   3.342  17.638  0.00  0.00    +0.000 N 
ATOM     11  C   UNL     1       3.790   4.619  17.884  0.00  0.00    +0.000 A 
ATOM     12  C   UNL     1       4.243   5.824  17.377  0.00  0.00    +0.000 A 
ATOM     13  C   UNL     1       3.598   7.006  17.803  0.00  0.00    +0.000 A 
ATOM     14  C   UNL     1       2.512   6.941  18.703  0.00  0.00    +0.000 A 
ATOM     15  C   UNL     1       2.071   5.700  19.180  0.00  0.00    +0.000 A 
ATOM     16  C   UNL     1       2.726   4.552  18.773  0.00  0.00    +0.000 A 
ATOM     17  H   UNL     1       5.035   3.096  17.028  0.00  0.00    +0.000 HD
ENDBRANCH   1  14
BRANCH   3  18
ATOM     18  C   UNL     1       0.705  10.363  18.749  0.00  0.00    +0.000 C 
ATOM     19  C   UNL     1       1.035  10.709  20.251  0.00  0.00    +0.000 C 
ATOM     20  O   UNL     1       1.543  12.015  19.874  0.00  0.00    +0.000 OA
ATOM     21  C   UNL     1       1.704  11.549  18.511  0.00  0.00    +0.000 C 
BRANCH  18  22
ATOM     22  C   UNL     1      -0.824  10.621  18.303  0.00  0.00    +0.000 A 
ATOM     23  C   UNL     1      -1.449   9.811  17.330  0.00  0.00    +0.000 A 
ATOM     24  C   UNL     1      -2.821   9.879  17.077  0.00  0.00    +0.000 A 
ATOM     25  C   UNL     1      -3.609  10.795  17.763  0.00  0.00    +0.000 A 
ATOM     26  C   UNL     1      -3.015  11.672  18.663  0.00  0.00    +0.000 A 
ATOM     27  C   UNL     1      -1.642  11.592  18.916  0.00  0.00    +0.000 A 
ENDBRANCH  18  22
ENDBRANCH   3  18
TORSDOF 3
ENDMDL
MODEL 6
REMARK VINA RESULT:      -8.6      1.426      2.782
REMARK  Name = 
REMARK  5 active torsions:
REMARK  status: ('A' for Active; 'I' for Inactive)
REMARK    1  A    between atoms: C_1  and  C_2
REMARK    2  A    between atoms: C_2  and  C_3
REMARK    3  A    between atoms: C_10  and  C_11
REMARK    4  A    between atoms: N_13  and  C_14
REMARK    5  A    between atoms: C_14  and  C_15
REMARK                            x       y       z     vdW  Elec       q    Type
REMARK                         _______ _______ _______ _____ _____    ______ ____
ROOT
ATOM      1  C   UNL     1       2.115   8.696  18.724  0.00  0.00    +0.000 C 
ATOM      2  O   UNL     1       2.219   9.708  18.036  0.00  0.00    +0.000 OA
ATOM      3  N   UNL     1       1.331   8.648  19.859  0.00  0.00    +0.000 N 
ATOM      4  H   UNL     1       1.248   7.779  20.369  0.00  0.00    +0.000 HD
ENDROOT
BRANCH   1  14
ATOM      5  C   UNL     1       1.007   3.291  18.525  0.00  0.00    +0.000 C 
ATOM      6  C   UNL     1       2.448   3.659  18.871  0.00  0.00    +0.000 C 
ATOM      7  C   UNL     1       2.724   3.530  20.369  0.00  0.00    +0.000 C 
ATOM      8  C   UNL     1       3.448   2.803  18.051  0.00  0.00    +0.000 C 
ATOM      9  O   UNL     1       3.569   1.592  18.068  0.00  0.00    +0.000 OA
ATOM     10  N   UNL     1       4.216   3.683  17.282  0.00  0.00    +0.000 N 
ATOM     11  C   UNL     1       3.845   5.002  17.493  0.00  0.00    +0.000 A 
ATOM     12  C   UNL     1       4.383   6.149  16.937  0.00  0.00    +0.000 A 
ATOM     13  C   UNL     1       3.843   7.393  17.334  0.00  0.00    +0.000 A 
ATOM     14  C   UNL     1       2.774   7.445  18.254  0.00  0.00    +0.000 A 
ATOM     15  C   UNL     1       2.244   6.260  18.781  0.00  0.00    +0.000 A 
ATOM     16  C   UNL     1       2.797   5.050  18.402  0.00  0.00    +0.000 A 
ATOM     17  H   UNL     1       4.947   3.356  16.668  0.00  0.00    +0.000 HD
ENDBRANCH   1  14
BRANCH   3  18
ATOM     18  C   UNL     1       0.439   9.818  20.229  0.00  0.00    +0.000 C 
ATOM     19  C   UNL     1      -0.295   9.654  21.615  0.00  0.00    +0.000 C 
ATOM     20  O   UNL     1       0.158  10.962  22.047  0.00  0.00    +0.000 OA
ATOM     21  C   UNL     1       1.197  10.927  21.038  0.00  0.00    +0.000 C 
BRANCH  18  22
ATOM     22  C   UNL     1      -0.490  10.333  19.014  0.00  0.00    +0.000 A 
ATOM     23  C   UNL     1      -1.370   9.456  18.344  0.00  0.00    +0.000 A 
ATOM     24  C   UNL     1      -2.327   9.915  17.437  0.00  0.00    +0.000 A 
ATOM     25  C   UNL     1      -2.406  11.269  17.137  0.00  0.00    +0.000 A 
ATOM     26  C   UNL     1      -1.498  12.153  17.708  0.00  0.00    +0.000 A 
ATOM     27  C   UNL     1      -0.548  11.686  18.622  0.00  0.00    +0.000 A 
ENDBRANCH  18  22
ENDBRANCH   3  18
TORSDOF 3
ENDMDL
MODEL 7
REMARK VINA RESULT:      -8.6      1.569      2.746
REMARK  Name = 
REMARK  5 active torsions:
REMARK  status: ('A' for Active; 'I' for Inactive)
REMARK    1  A    between atoms: C_1  and  C_2
REMARK    2  A    between atoms: C_2  and  C_3
REMARK    3  A    between atoms: C_10  and  C_11
REMARK    4  A    between atoms: N_13  and  C_14
REMARK    5  A    between atoms: C_14  and  C_15
REMARK                            x       y       z     vdW  Elec       q    Type
REMARK                         _______ _______ _______ _____ _____    ______ ____
ROOT
ATOM      1  C   UNL     1       2.054   9.050  18.346  0.00  0.00    +0.000 C 
ATOM      2  O   UNL     1       2.258   9.875  17.459  0.00  0.00    +0.000 OA
ATOM      3  N   UNL     1       1.219   9.302  19.416  0.00  0.00    +0.000 N 
ATOM      4  H   UNL     1       1.053   8.575  20.099  0.00  0.00    +0.000 HD
ENDROOT
BRANCH   1  14
ATOM      5  C   UNL     1       0.709   3.834  19.559  0.00  0.00    +0.000 C 
ATOM      6  C   UNL     1       2.173   4.208  19.777  0.00  0.00    +0.000 C 
ATOM      7  C   UNL     1       2.484   4.453  21.253  0.00  0.00    +0.000 C 
ATOM      8  C   UNL     1       3.112   3.123  19.189  0.00  0.00    +0.000 C 
ATOM      9  O   UNL     1       3.182   1.952  19.515  0.00  0.00    +0.000 OA
ATOM     10  N   UNL     1       3.897   3.739  18.208  0.00  0.00    +0.000 N 
ATOM     11  C   UNL     1       3.589   5.084  18.079  0.00  0.00    +0.000 A 
ATOM     12  C   UNL     1       4.161   6.023  17.239  0.00  0.00    +0.000 A 
ATOM     13  C   UNL     1       3.685   7.351  17.311  0.00  0.00    +0.000 A 
ATOM     14  C   UNL     1       2.645   7.689  18.203  0.00  0.00    +0.000 A 
ATOM     15  C   UNL     1       2.079   6.706  19.024  0.00  0.00    +0.000 A 
ATOM     16  C   UNL     1       2.569   5.414  18.960  0.00  0.00    +0.000 A 
ATOM     17  H   UNL     1       4.596   3.230  17.687  0.00  0.00    +0.000 HD
ENDBRANCH   1  14
BRANCH   3  18
ATOM     18  C   UNL     1       0.394  10.574  19.465  0.00  0.00    +0.000 C 
ATOM     19  C   UNL     1       0.275  11.208  20.904  0.00  0.00    +0.000 C 
ATOM     20  O   UNL     1       0.686  12.506  20.403  0.00  0.00    +0.000 OA
ATOM     21  C   UNL     1       1.255  11.865  19.235  0.00  0.00    +0.000 C 
BRANCH  18  22
ATOM     22  C   UNL     1      -0.987  10.483  18.636  0.00  0.00    +0.000 A 
ATOM     23  C   UNL     1      -2.107  11.265  18.994  0.00  0.00    +0.000 A 
ATOM     24  C   UNL     1      -3.237  11.361  18.179  0.00  0.00    +0.000 A 
ATOM     25  C   UNL     1      -3.300  10.639  16.993  0.00  0.00    +0.000 A 
ATOM     26  C   UNL     1      -2.256   9.788  16.651  0.00  0.00    +0.000 A 
ATOM     27  C   UNL     1      -1.125   9.705  17.469  0.00  0.00    +0.000 A 
ENDBRANCH  18  22
ENDBRANCH   3  18
TORSDOF 3
ENDMDL
MODEL 8
REMARK VINA RESULT:      -8.5      1.323      2.445
REMARK  Name = 
REMARK  5 active torsions:
REMARK  status: ('A' for Active; 'I' for Inactive)
REMARK    1  A    between atoms: C_1  and  C_2
REMARK    2  A    between atoms: C_2  and  C_3
REMARK    3  A    between atoms: C_10  and  C_11
REMARK    4  A    between atoms: N_13  and  C_14
REMARK    5  A    between atoms: C_14  and  C_15
REMARK                            x       y       z     vdW  Elec       q    Type
REMARK                         _______ _______ _______ _____ _____    ______ ____
ROOT
ATOM      1  C   UNL     1       2.303   8.548  18.055  0.00  0.00    +0.000 C 
ATOM      2  O   UNL     1       2.226   9.234  17.039  0.00  0.00    +0.000 OA
ATOM      3  N   UNL     1       1.666   8.891  19.231  0.00  0.00    +0.000 N 
ATOM      4  H   UNL     1       1.728   8.272  20.028  0.00  0.00    +0.000 HD
ENDROOT
BRANCH   1  14
ATOM      5  C   UNL     1       1.122   3.172  18.479  0.00  0.00    +0.000 C 
ATOM      6  C   UNL     1       2.438   3.612  19.115  0.00  0.00    +0.000 C 
ATOM      7  C   UNL     1       2.321   3.740  20.634  0.00  0.00    +0.000 C 
ATOM      8  C   UNL     1       3.587   2.645  18.731  0.00  0.00    +0.000 C 
ATOM      9  O   UNL     1       3.664   1.456  18.978  0.00  0.00    +0.000 OA
ATOM     10  N   UNL     1       4.551   3.394  18.048  0.00  0.00    +0.000 N 
ATOM     11  C   UNL     1       4.179   4.724  17.936  0.00  0.00    +0.000 A 
ATOM     12  C   UNL     1       4.874   5.769  17.353  0.00  0.00    +0.000 A 
ATOM     13  C   UNL     1       4.287   7.054  17.388  0.00  0.00    +0.000 A 
ATOM     14  C   UNL     1       3.022   7.245  17.982  0.00  0.00    +0.000 A 
ATOM     15  C   UNL     1       2.341   6.158  18.546  0.00  0.00    +0.000 A 
ATOM     16  C   UNL     1       2.936   4.910  18.526  0.00  0.00    +0.000 A 
ATOM     17  H   UNL     1       5.404   2.979  17.703  0.00  0.00    +0.000 HD
ENDBRANCH   1  14
BRANCH   3  18
ATOM     18  C   UNL     1       0.712  10.070  19.274  0.00  0.00    +0.000 C 
ATOM     19  C   UNL     1      -0.407  10.032  18.163  0.00  0.00    +0.000 C 
ATOM     20  O   UNL     1      -1.444  10.248  19.154  0.00  0.00    +0.000 OA
ATOM     21  C   UNL     1      -0.533   9.810  20.192  0.00  0.00    +0.000 C 
BRANCH  18  22
ATOM     22  C   UNL     1       1.449  11.493  19.461  0.00  0.00    +0.000 A 
ATOM     23  C   UNL     1       2.096  12.129  18.380  0.00  0.00    +0.000 A 
ATOM     24  C   UNL     1       2.559  13.444  18.460  0.00  0.00    +0.000 A 
ATOM     25  C   UNL     1       2.425  14.155  19.646  0.00  0.00    +0.000 A 
ATOM     26  C   UNL     1       1.874  13.534  20.760  0.00  0.00    +0.000 A 
ATOM     27  C   UNL     1       1.407  12.219  20.669  0.00  0.00    +0.000 A 
ENDBRANCH  18  22
ENDBRANCH   3  18
TORSDOF 3
ENDMDL
MODEL 9
REMARK VINA RESULT:      -8.5      2.071      7.480
REMARK  Name = 
REMARK  5 active torsions:
REMARK  status: ('A' for Active; 'I' for Inactive)
REMARK    1  A    between atoms: C_1  and  C_2
REMARK    2  A    between atoms: C_2  and  C_3
REMARK    3  A    between atoms: C_10  and  C_11
REMARK    4  A    between atoms: N_13  and  C_14
REMARK    5  A    between atoms: C_14  and  C_15
REMARK                            x       y       z     vdW  Elec       q    Type
REMARK                         _______ _______ _______ _____ _____    ______ ____
ROOT
ATOM      1  C   UNL     1       3.334   6.555  18.630  0.00  0.00    +0.000 C 
ATOM      2  O   UNL     1       3.547   5.879  19.633  0.00  0.00    +0.000 OA
ATOM      3  N   UNL     1       3.759   6.172  17.374  0.00  0.00    +0.000 N 
ATOM      4  H   UNL     1       3.523   6.744  16.574  0.00  0.00    +0.000 HD
ENDROOT
BRANCH   1  14
ATOM      5  C   UNL     1       1.220   9.679  22.661  0.00  0.00    +0.000 C 
ATOM      6  C   UNL     1       0.310   9.447  21.458  0.00  0.00    +0.000 C 
ATOM      7  C   UNL     1      -0.754   8.388  21.744  0.00  0.00    +0.000 C 
ATOM      8  C   UNL     1      -0.345  10.775  20.998  0.00  0.00    +0.000 C 
ATOM      9  O   UNL     1      -1.089  11.493  21.642  0.00  0.00    +0.000 OA
ATOM     10  N   UNL     1       0.061  11.006  19.680  0.00  0.00    +0.000 N 
ATOM     11  C   UNL     1       0.897  10.001  19.220  0.00  0.00    +0.000 A 
ATOM     12  C   UNL     1       1.479   9.865  17.972  0.00  0.00    +0.000 A 
ATOM     13  C   UNL     1       2.282   8.727  17.737  0.00  0.00    +0.000 A 
ATOM     14  C   UNL     1       2.491   7.777  18.760  0.00  0.00    +0.000 A 
ATOM     15  C   UNL     1       1.900   7.960  20.017  0.00  0.00    +0.000 A 
ATOM     16  C   UNL     1       1.097   9.067  20.227  0.00  0.00    +0.000 A 
ATOM     17  H   UNL     1      -0.248  11.813  19.160  0.00  0.00    +0.000 HD
ENDBRANCH   1  14
BRANCH   3  18
ATOM     18  C   UNL     1       4.390   4.810  17.157  0.00  0.00    +0.000 C 
ATOM     19  C   UNL     1       5.022   4.615  15.726  0.00  0.00    +0.000 C 
ATOM     20  O   UNL     1       6.272   4.158  16.303  0.00  0.00    +0.000 OA
ATOM     21  C   UNL     1       5.905   4.772  17.563  0.00  0.00    +0.000 C 
BRANCH  18  22
ATOM     22  C   UNL     1       3.482   3.584  17.681  0.00  0.00    +0.000 A 
ATOM     23  C   UNL     1       4.062   2.463  18.314  0.00  0.00    +0.000 A 
ATOM     24  C   UNL     1       3.292   1.492  18.957  0.00  0.00    +0.000 A 
ATOM     25  C   UNL     1       1.905   1.590  18.951  0.00  0.00    +0.000 A 
ATOM     26  C   UNL     1       1.294   2.631  18.262  0.00  0.00    +0.000 A 
ATOM     27  C   UNL     1       2.074   3.603  17.627  0.00  0.00    +0.000 A 
ENDBRANCH  18  22
ENDBRANCH   3  18
TORSDOF 3
ENDMDL
