MODEL 1
REMARK VINA RESULT:      -7.7      0.000      0.000
REMARK  Name = 
REMARK  10 active torsions:
REMARK  status: ('A' for Active; 'I' for Inactive)
REMARK    1  A    between atoms: C_1  and  N_2
REMARK    2  A    between atoms: N_2  and  C_3
REMARK    3  A    between atoms: C_3  and  C_4
REMARK    4  A    between atoms: N_6  and  C_7
REMARK    5  A    between atoms: C_16  and  C_17
REMARK    6  A    between atoms: C_17  and  O_19
REMARK    7  A    between atoms: N_21  and  C_22
REMARK    8  A    between atoms: C_22  and  C_23
REMARK    9  A    between atoms: C_22  and  C_24
REMARK   10  A    between atoms: C_22  and  C_25
REMARK                            x       y       z     vdW  Elec       q    Type
REMARK                         _______ _______ _______ _____ _____    ______ ____
ROOT
ATOM      1  C   UNL     1       1.655   7.553  20.171  0.00  0.00    +0.000 A 
ATOM      2  C   UNL     1       1.976   6.184  20.068  0.00  0.00    +0.000 A 
ATOM      3  C   UNL     1       2.863   5.652  19.112  0.00  0.00    +0.000 A 
ATOM      4  C   UNL     1       3.311   6.568  18.133  0.00  0.00    +0.000 A 
ATOM      5  C   UNL     1       2.925   7.917  18.137  0.00  0.00    +0.000 A 
ATOM      6  C   UNL     1       2.125   8.397  19.162  0.00  0.00    +0.000 A 
ATOM      7  F   UNL     1       1.809   9.701  19.160  0.00  0.00    +0.000 F 
ATOM      8  C   UNL     1       4.231   6.127  17.065  0.00  0.00    +0.000 A 
ATOM      9  O   UNL     1       4.594   6.883  16.164  0.00  0.00    +0.000 OA
ATOM     10  C   UNL     1       4.734   4.747  17.113  0.00  0.00    +0.000 A 
ATOM     11  C   UNL     1       4.257   3.971  18.095  0.00  0.00    +0.000 A 
ATOM     12  N   UNL     1       3.335   4.302  19.101  0.00  0.00    +0.000 N 
ENDROOT
BRANCH   1  16
ATOM     13  C   UNL     1      -0.066   9.776  21.935  0.00  0.00    +0.000 C 
ATOM     14  C   UNL     1       0.123  11.061  21.142  0.00  0.00    +0.000 C 
ATOM     15  C   UNL     1       1.258   9.040  22.238  0.00  0.00    +0.000 C 
ATOM     16  N   UNL     1       0.892   8.040  21.264  0.00  0.00    +0.000 N 
ATOM     17  C   UNL     1      -0.478   8.489  21.189  0.00  0.00    +0.000 C 
BRANCH  13  19
ATOM     18  C   UNL     1      -1.542  11.214  23.230  0.00  0.00    +0.000 C 
ATOM     19  N   UNL     1      -0.827   9.940  23.197  0.00  0.00    +0.000 NA
ATOM     20  H   UNL     1      -1.496   9.189  23.372  0.00  0.00    +0.000 HD
ENDBRANCH  13  19
ENDBRANCH   1  16
BRANCH  12  21
ATOM     21  C   UNL     1       2.896   3.291  20.158  0.00  0.00    +0.000 C 
ATOM     22  C   UNL     1       2.539   3.962  21.518  0.00  0.00    +0.000 C 
ATOM     23  C   UNL     1       1.590   2.562  19.759  0.00  0.00    +0.000 C 
ATOM     24  C   UNL     1       4.051   2.325  20.495  0.00  0.00    +0.000 C 
ENDBRANCH  12  21
BRANCH  10  25
ATOM     25  C   UNL     1       5.721   4.202  16.158  0.00  0.00    +0.000 C 
ATOM     26  O   UNL     1       5.459   3.948  14.992  0.00  0.00    +0.000 OA
BRANCH  25  27
ATOM     27  O   UNL     1       6.953   3.992  16.677  0.00  0.00    +0.000 OA
ATOM     28  H   UNL     1       7.675   4.485  16.214  0.00  0.00    +0.000 HD
ENDBRANCH  25  27
ENDBRANCH  10  25
TORSDOF 5
ENDMDL
MODEL 2
REMARK VINA RESULT:      -7.5      0.716      1.103
REMARK  Name = 
REMARK  10 active torsions:
REMARK  status: ('A' for Active; 'I' for Inactive)
REMARK    1  A    between atoms: C_1  and  N_2
REMARK    2  A    between atoms: N_2  and  C_3
REMARK    3  A    between atoms: C_3  and  C_4
REMARK    4  A    between atoms: N_6  and  C_7
REMARK    5  A    between atoms: C_16  and  C_17
REMARK    6  A    between atoms: C_17  and  O_19
REMARK    7  A    between atoms: N_21  and  C_22
REMARK    8  A    between atoms: C_22  and  C_23
REMARK    9  A    between atoms: C_22  and  C_24
REMARK   10  A    between atoms: C_22  and  C_25
REMARK                            x       y       z     vdW  Elec       q    Type
REMARK                         _______ _______ _______ _____ _____    ______ ____
ROOT
ATOM      1  C   UNL     1       1.794   7.871  19.571  0.00  0.00    +0.000 A 
ATOM      2  C   UNL     1       2.120   6.499  19.567  0.00  0.00    +0.000 A 
ATOM      3  C   UNL     1       3.086   5.921  18.721  0.00  0.00    +0.000 A 
ATOM      4  C   UNL     1       3.620   6.787  17.739  0.00  0.00    +0.000 A 
ATOM      5  C   UNL     1       3.238   8.133  17.640  0.00  0.00    +0.000 A 
ATOM      6  C   UNL     1       2.352   8.663  18.565  0.00  0.00    +0.000 A 
ATOM      7  F   UNL     1       2.040   9.964  18.468  0.00  0.00    +0.000 F 
ATOM      8  C   UNL     1       4.628   6.293  16.779  0.00  0.00    +0.000 A 
ATOM      9  O   UNL     1       5.071   7.002  15.876  0.00  0.00    +0.000 OA
ATOM     10  C   UNL     1       5.122   4.919  16.942  0.00  0.00    +0.000 A 
ATOM     11  C   UNL     1       4.560   4.193  17.918  0.00  0.00    +0.000 A 
ATOM     12  N   UNL     1       3.555   4.573  18.821  0.00  0.00    +0.000 N 
ENDROOT
BRANCH   1  16
ATOM     13  C   UNL     1       0.328  10.248  21.364  0.00  0.00    +0.000 C 
ATOM     14  C   UNL     1       1.029  11.513  20.891  0.00  0.00    +0.000 C 
ATOM     15  C   UNL     1       1.302   9.121  21.771  0.00  0.00    +0.000 C 
ATOM     16  N   UNL     1       0.940   8.411  20.567  0.00  0.00    +0.000 N 
ATOM     17  C   UNL     1      -0.207   9.251  20.314  0.00  0.00    +0.000 C 
BRANCH  13  19
ATOM     18  C   UNL     1      -0.923  11.880  22.665  0.00  0.00    +0.000 C 
ATOM     19  N   UNL     1      -0.649  10.461  22.459  0.00  0.00    +0.000 NA
ATOM     20  H   UNL     1      -1.537   9.978  22.314  0.00  0.00    +0.000 HD
ENDBRANCH  13  19
ENDBRANCH   1  16
BRANCH  12  21
ATOM     21  C   UNL     1       3.023   3.616  19.886  0.00  0.00    +0.000 C 
ATOM     22  C   UNL     1       1.721   2.886  19.440  0.00  0.00    +0.000 C 
ATOM     23  C   UNL     1       4.009   2.459  20.172  0.00  0.00    +0.000 C 
ATOM     24  C   UNL     1       2.614   4.394  21.155  0.00  0.00    +0.000 C 
ENDBRANCH  12  21
BRANCH  10  25
ATOM     25  C   UNL     1       6.189   4.328  16.106  0.00  0.00    +0.000 C 
ATOM     26  O   UNL     1       6.013   3.365  15.375  0.00  0.00    +0.000 OA
BRANCH  25  27
ATOM     27  O   UNL     1       7.394   4.932  16.218  0.00  0.00    +0.000 OA
ATOM     28  H   UNL     1       7.981   4.535  16.908  0.00  0.00    +0.000 HD
ENDBRANCH  25  27
ENDBRANCH  10  25
TORSDOF 5
ENDMDL
MODEL 3
REMARK VINA RESULT:      -7.3      2.681      4.027
REMARK  Name = 
REMARK  10 active torsions:
REMARK  status: ('A' for Active; 'I' for Inactive)
REMARK    1  A    between atoms: C_1  and  N_2
REMARK    2  A    between atoms: N_2  and  C_3
REMARK    3  A    between atoms: C_3  and  C_4
REMARK    4  A    between atoms: N_6  and  C_7
REMARK    5  A    between atoms: C_16  and  C_17
REMARK    6  A    between atoms: C_17  and  O_19
REMARK    7  A    between atoms: N_21  and  C_22
REMARK    8  A    between atoms: C_22  and  C_23
REMARK    9  A    between atoms: C_22  and  C_24
REMARK   10  A    between atoms: C_22  and  C_25
REMARK                            x       y       z     vdW  Elec       q    Type
REMARK                         _______ _______ _______ _____ _____    ______ ____
ROOT
ATOM      1  C   UNL     1       1.993   7.932  19.614  0.00  0.00    +0.000 A 
ATOM      2  C   UNL     1       3.054   7.354  18.886  0.00  0.00    +0.000 A 
ATOM      3  C   UNL     1       3.407   5.993  18.956  0.00  0.00    +0.000 A 
ATOM      4  C   UNL     1       2.719   5.243  19.938  0.00  0.00    +0.000 A 
ATOM      5  C   UNL     1       1.733   5.810  20.759  0.00  0.00    +0.000 A 
ATOM      6  C   UNL     1       1.367   7.134  20.574  0.00  0.00    +0.000 A 
ATOM      7  F   UNL     1       0.391   7.634  21.347  0.00  0.00    +0.000 F 
ATOM      8  C   UNL     1       3.014   3.807  20.121  0.00  0.00    +0.000 A 
ATOM      9  O   UNL     1       2.477   3.139  21.005  0.00  0.00    +0.000 OA
ATOM     10  C   UNL     1       3.961   3.173  19.194  0.00  0.00    +0.000 A 
ATOM     11  C   UNL     1       4.540   3.974  18.290  0.00  0.00    +0.000 A 
ATOM     12  N   UNL     1       4.359   5.353  18.101  0.00  0.00    +0.000 N 
ENDROOT
BRANCH   1  16
ATOM     13  C   UNL     1       0.045  10.355  18.452  0.00  0.00    +0.000 C 
ATOM     14  C   UNL     1      -1.005   9.596  17.654  0.00  0.00    +0.000 C 
ATOM     15  C   UNL     1       1.494   9.957  18.098  0.00  0.00    +0.000 C 
ATOM     16  N   UNL     1       1.585   9.268  19.364  0.00  0.00    +0.000 N 
ATOM     17  C   UNL     1       0.385   9.883  19.882  0.00  0.00    +0.000 C 
BRANCH  13  19
ATOM     18  C   UNL     1      -1.431  12.238  18.002  0.00  0.00    +0.000 C 
ATOM     19  N   UNL     1      -0.081  11.831  18.383  0.00  0.00    +0.000 NA
ATOM     20  H   UNL     1       0.165  12.304  19.254  0.00  0.00    +0.000 HD
ENDBRANCH  13  19
ENDBRANCH   1  16
BRANCH  12  21
ATOM     21  C   UNL     1       5.100   6.123  17.010  0.00  0.00    +0.000 C 
ATOM     22  C   UNL     1       5.473   5.227  15.791  0.00  0.00    +0.000 C 
ATOM     23  C   UNL     1       4.226   7.238  16.388  0.00  0.00    +0.000 C 
ATOM     24  C   UNL     1       6.456   6.639  17.539  0.00  0.00    +0.000 C 
ENDBRANCH  12  21
BRANCH  10  25
ATOM     25  C   UNL     1       4.282   1.730  19.212  0.00  0.00    +0.000 C 
ATOM     26  O   UNL     1       3.795   0.924  18.434  0.00  0.00    +0.000 OA
BRANCH  25  27
ATOM     27  O   UNL     1       5.159   1.359  20.173  0.00  0.00    +0.000 OA
ATOM     28  H   UNL     1       5.913   1.988  20.295  0.00  0.00    +0.000 HD
ENDBRANCH  25  27
ENDBRANCH  10  25
TORSDOF 5
ENDMDL
MODEL 4
REMARK VINA RESULT:      -7.3      2.737      4.093
REMARK  Name = 
REMARK  10 active torsions:
REMARK  status: ('A' for Active; 'I' for Inactive)
REMARK    1  A    between atoms: C_1  and  N_2
REMARK    2  A    between atoms: N_2  and  C_3
REMARK    3  A    between atoms: C_3  and  C_4
REMARK    4  A    between atoms: N_6  and  C_7
REMARK    5  A    between atoms: C_16  and  C_17
REMARK    6  A    between atoms: C_17  and  O_19
REMARK    7  A    between atoms: N_21  and  C_22
REMARK    8  A    between atoms: C_22  and  C_23
REMARK    9  A    between atoms: C_22  and  C_24
REMARK   10  A    between atoms: C_22  and  C_25
REMARK                            x       y       z     vdW  Elec       q    Type
REMARK                         _______ _______ _______ _____ _____    ______ ____
ROOT
ATOM      1  C   UNL     1       2.198   7.860  19.290  0.00  0.00    +0.000 A 
ATOM      2  C   UNL     1       3.290   7.224  18.665  0.00  0.00    +0.000 A 
ATOM      3  C   UNL     1       3.652   5.881  18.885  0.00  0.00    +0.000 A 
ATOM      4  C   UNL     1       2.934   5.227  19.912  0.00  0.00    +0.000 A 
ATOM      5  C   UNL     1       1.913   5.862  20.634  0.00  0.00    +0.000 A 
ATOM      6  C   UNL     1       1.543   7.156  20.302  0.00  0.00    +0.000 A 
ATOM      7  F   UNL     1       0.534   7.720  20.984  0.00  0.00    +0.000 F 
ATOM      8  C   UNL     1       3.234   3.821  20.251  0.00  0.00    +0.000 A 
ATOM      9  O   UNL     1       2.669   3.239  21.177  0.00  0.00    +0.000 OA
ATOM     10  C   UNL     1       4.220   3.107  19.429  0.00  0.00    +0.000 A 
ATOM     11  C   UNL     1       4.826   3.819  18.469  0.00  0.00    +0.000 A 
ATOM     12  N   UNL     1       4.641   5.170  18.135  0.00  0.00    +0.000 N 
ENDROOT
BRANCH   1  16
ATOM     13  C   UNL     1       0.071  10.347  18.732  0.00  0.00    +0.000 C 
ATOM     14  C   UNL     1      -1.282   9.703  18.995  0.00  0.00    +0.000 C 
ATOM     15  C   UNL     1       0.962   9.533  17.768  0.00  0.00    +0.000 C 
ATOM     16  N   UNL     1       1.788   9.159  18.890  0.00  0.00    +0.000 N 
ATOM     17  C   UNL     1       1.206  10.153  19.761  0.00  0.00    +0.000 C 
BRANCH  13  19
ATOM     18  C   UNL     1      -1.375  12.237  18.221  0.00  0.00    +0.000 C 
ATOM     19  N   UNL     1       0.002  11.750  18.258  0.00  0.00    +0.000 NA
ATOM     20  H   UNL     1       0.559  12.398  18.816  0.00  0.00    +0.000 HD
ENDBRANCH  13  19
ENDBRANCH   1  16
BRANCH  12  21
ATOM     21  C   UNL     1       5.416   5.835  16.999  0.00  0.00    +0.000 C 
ATOM     22  C   UNL     1       4.571   6.901  16.239  0.00  0.00    +0.000 C 
ATOM     23  C   UNL     1       6.633   6.638  17.518  0.00  0.00    +0.000 C 
ATOM     24  C   UNL     1       5.790   4.797  15.920  0.00  0.00    +0.000 C 
ENDBRANCH  12  21
BRANCH  10  25
ATOM     25  C   UNL     1       4.552   1.677  19.605  0.00  0.00    +0.000 C 
ATOM     26  O   UNL     1       5.193   1.248  20.552  0.00  0.00    +0.000 OA
BRANCH  25  27
ATOM     27  O   UNL     1       4.096   0.867  18.622  0.00  0.00    +0.000 OA
ATOM     28  H   UNL     1       4.219  -0.098  18.806  0.00  0.00    +0.000 HD
ENDBRANCH  25  27
ENDBRANCH  10  25
TORSDOF 5
ENDMDL
MODEL 5
REMARK VINA RESULT:      -7.0      2.663      4.141
REMARK  Name = 
REMARK  10 active torsions:
REMARK  status: ('A' for Active; 'I' for Inactive)
REMARK    1  A    between atoms: C_1  and  N_2
REMARK    2  A    between atoms: N_2  and  C_3
REMARK    3  A    between atoms: C_3  and  C_4
REMARK    4  A    between atoms: N_6  and  C_7
REMARK    5  A    between atoms: C_16  and  C_17
REMARK    6  A    between atoms: C_17  and  O_19
REMARK    7  A    between atoms: N_21  and  C_22
REMARK    8  A    between atoms: C_22  and  C_23
REMARK    9  A    between atoms: C_22  and  C_24
REMARK   10  A    between atoms: C_22  and  C_25
REMARK                            x       y       z     vdW  Elec       q    Type
REMARK                         _______ _______ _______ _____ _____    ______ ____
ROOT
ATOM      1  C   UNL     1       2.144   8.236  18.768  0.00  0.00    +0.000 A 
ATOM      2  C   UNL     1       3.228   7.539  18.196  0.00  0.00    +0.000 A 
ATOM      3  C   UNL     1       3.596   6.227  18.550  0.00  0.00    +0.000 A 
ATOM      4  C   UNL     1       2.895   5.682  19.651  0.00  0.00    +0.000 A 
ATOM      5  C   UNL     1       1.883   6.389  20.318  0.00  0.00    +0.000 A 
ATOM      6  C   UNL     1       1.506   7.641  19.858  0.00  0.00    +0.000 A 
ATOM      7  F   UNL     1       0.506   8.272  20.492  0.00  0.00    +0.000 F 
ATOM      8  C   UNL     1       3.203   4.320  20.130  0.00  0.00    +0.000 A 
ATOM      9  O   UNL     1       2.653   3.837  21.120  0.00  0.00    +0.000 OA
ATOM     10  C   UNL     1       4.178   3.525  19.372  0.00  0.00    +0.000 A 
ATOM     11  C   UNL     1       4.769   4.133  18.334  0.00  0.00    +0.000 A 
ATOM     12  N   UNL     1       4.575   5.442  17.864  0.00  0.00    +0.000 N 
ENDROOT
BRANCH   1  16
ATOM     13  C   UNL     1       0.906  11.314  18.847  0.00  0.00    +0.000 C 
ATOM     14  C   UNL     1       0.452  11.462  20.291  0.00  0.00    +0.000 C 
ATOM     15  C   UNL     1       0.390  10.027  18.169  0.00  0.00    +0.000 C 
ATOM     16  N   UNL     1       1.726   9.486  18.241  0.00  0.00    +0.000 N 
ATOM     17  C   UNL     1       2.319  10.764  18.558  0.00  0.00    +0.000 C 
BRANCH  13  19
ATOM     18  C   UNL     1      -0.187  13.484  18.700  0.00  0.00    +0.000 C 
ATOM     19  N   UNL     1       0.589  12.476  17.982  0.00  0.00    +0.000 NA
ATOM     20  H   UNL     1       1.413  12.927  17.583  0.00  0.00    +0.000 HD
ENDBRANCH  13  19
ENDBRANCH   1  16
BRANCH  12  21
ATOM     21  C   UNL     1       5.333   5.984  16.653  0.00  0.00    +0.000 C 
ATOM     22  C   UNL     1       5.653   4.879  15.602  0.00  0.00    +0.000 C 
ATOM     23  C   UNL     1       4.495   7.012  15.856  0.00  0.00    +0.000 C 
ATOM     24  C   UNL     1       6.714   6.525  17.078  0.00  0.00    +0.000 C 
ENDBRANCH  12  21
BRANCH  10  25
ATOM     25  C   UNL     1       4.516   2.121  19.691  0.00  0.00    +0.000 C 
ATOM     26  O   UNL     1       5.136   1.790  20.690  0.00  0.00    +0.000 OA
BRANCH  25  27
ATOM     27  O   UNL     1       4.091   1.217  18.779  0.00  0.00    +0.000 OA
ATOM     28  H   UNL     1       4.071   1.560  17.851  0.00  0.00    +0.000 HD
ENDBRANCH  25  27
ENDBRANCH  10  25
TORSDOF 5
ENDMDL
MODEL 6
REMARK VINA RESULT:      -7.0      1.076      1.700
REMARK  Name = 
REMARK  10 active torsions:
REMARK  status: ('A' for Active; 'I' for Inactive)
REMARK    1  A    between atoms: C_1  and  N_2
REMARK    2  A    between atoms: N_2  and  C_3
REMARK    3  A    between atoms: C_3  and  C_4
REMARK    4  A    between atoms: N_6  and  C_7
REMARK    5  A    between atoms: C_16  and  C_17
REMARK    6  A    between atoms: C_17  and  O_19
REMARK    7  A    between atoms: N_21  and  C_22
REMARK    8  A    between atoms: C_22  and  C_23
REMARK    9  A    between atoms: C_22  and  C_24
REMARK   10  A    between atoms: C_22  and  C_25
REMARK                            x       y       z     vdW  Elec       q    Type
REMARK                         _______ _______ _______ _____ _____    ______ ____
ROOT
ATOM      1  C   UNL     1       1.848   8.201  18.782  0.00  0.00    +0.000 A 
ATOM      2  C   UNL     1       2.073   6.819  18.951  0.00  0.00    +0.000 A 
ATOM      3  C   UNL     1       3.148   6.119  18.371  0.00  0.00    +0.000 A 
ATOM      4  C   UNL     1       3.929   6.866  17.458  0.00  0.00    +0.000 A 
ATOM      5  C   UNL     1       3.668   8.216  17.180  0.00  0.00    +0.000 A 
ATOM      6  C   UNL     1       2.652   8.871  17.857  0.00  0.00    +0.000 A 
ATOM      7  F   UNL     1       2.457  10.173  17.599  0.00  0.00    +0.000 F 
ATOM      8  C   UNL     1       5.074   6.238  16.770  0.00  0.00    +0.000 A 
ATOM      9  O   UNL     1       5.739   6.840  15.927  0.00  0.00    +0.000 OA
ATOM     10  C   UNL     1       5.429   4.860  17.136  0.00  0.00    +0.000 A 
ATOM     11  C   UNL     1       4.632   4.253  18.026  0.00  0.00    +0.000 A 
ATOM     12  N   UNL     1       3.492   4.764  18.668  0.00  0.00    +0.000 N 
ENDROOT
BRANCH   1  16
ATOM     13  C   UNL     1       0.482   9.609  21.460  0.00  0.00    +0.000 C 
ATOM     14  C   UNL     1       1.489   9.302  22.558  0.00  0.00    +0.000 C 
ATOM     15  C   UNL     1       0.068   8.368  20.639  0.00  0.00    +0.000 C 
ATOM     16  N   UNL     1       0.849   8.871  19.535  0.00  0.00    +0.000 N 
ATOM     17  C   UNL     1       0.987  10.185  20.119  0.00  0.00    +0.000 C 
BRANCH  13  19
ATOM     18  C   UNL     1      -0.808  10.356  23.384  0.00  0.00    +0.000 C 
ATOM     19  N   UNL     1      -0.740  10.309  21.926  0.00  0.00    +0.000 NA
ATOM     20  H   UNL     1      -0.827  11.261  21.567  0.00  0.00    +0.000 HD
ENDBRANCH  13  19
ENDBRANCH   1  16
BRANCH  12  21
ATOM     21  C   UNL     1       2.691   3.934  19.669  0.00  0.00    +0.000 C 
ATOM     22  C   UNL     1       3.464   2.672  20.158  0.00  0.00    +0.000 C 
ATOM     23  C   UNL     1       2.406   4.713  20.975  0.00  0.00    +0.000 C 
ATOM     24  C   UNL     1       1.415   3.373  19.007  0.00  0.00    +0.000 C 
ENDBRANCH  12  21
BRANCH  10  25
ATOM     25  C   UNL     1       6.600   4.142  16.588  0.00  0.00    +0.000 C 
ATOM     26  O   UNL     1       7.749   4.373  16.929  0.00  0.00    +0.000 OA
BRANCH  25  27
ATOM     27  O   UNL     1       6.302   3.205  15.659  0.00  0.00    +0.000 OA
ATOM     28  H   UNL     1       6.913   3.201  14.880  0.00  0.00    +0.000 HD
ENDBRANCH  25  27
ENDBRANCH  10  25
TORSDOF 5
ENDMDL
MODEL 7
REMARK VINA RESULT:      -6.7      6.818     10.984
REMARK  Name = 
REMARK  10 active torsions:
REMARK  status: ('A' for Active; 'I' for Inactive)
REMARK    1  A    between atoms: C_1  and  N_2
REMARK    2  A    between atoms: N_2  and  C_3
REMARK    3  A    between atoms: C_3  and  C_4
REMARK    4  A    between atoms: N_6  and  C_7
REMARK    5  A    between atoms: C_16  and  C_17
REMARK    6  A    between atoms: C_17  and  O_19
REMARK    7  A    between atoms: N_21  and  C_22
REMARK    8  A    between atoms: C_22  and  C_23
REMARK    9  A    between atoms: C_22  and  C_24
REMARK   10  A    between atoms: C_22  and  C_25
REMARK                            x       y       z     vdW  Elec       q    Type
REMARK                         _______ _______ _______ _____ _____    ______ ____
ROOT
ATOM      1  C   UNL     1      -2.678  11.777  18.969  0.00  0.00    +0.000 A 
ATOM      2  C   UNL     1      -2.621  12.458  20.202  0.00  0.00    +0.000 A 
ATOM      3  C   UNL     1      -3.740  12.702  21.020  0.00  0.00    +0.000 A 
ATOM      4  C   UNL     1      -4.987  12.353  20.453  0.00  0.00    +0.000 A 
ATOM      5  C   UNL     1      -5.094  11.775  19.179  0.00  0.00    +0.000 A 
ATOM      6  C   UNL     1      -3.945  11.474  18.465  0.00  0.00    +0.000 A 
ATOM      7  F   UNL     1      -4.081  10.881  17.269  0.00  0.00    +0.000 F 
ATOM      8  C   UNL     1      -6.238  12.578  21.205  0.00  0.00    +0.000 A 
ATOM      9  O   UNL     1      -7.343  12.340  20.719  0.00  0.00    +0.000 OA
ATOM     10  C   UNL     1      -6.135  13.077  22.583  0.00  0.00    +0.000 A 
ATOM     11  C   UNL     1      -4.902  13.357  23.027  0.00  0.00    +0.000 A 
ATOM     12  N   UNL     1      -3.679  13.232  22.348  0.00  0.00    +0.000 N 
ENDROOT
BRANCH   1  16
ATOM     13  C   UNL     1       0.248  10.274  18.531  0.00  0.00    +0.000 C 
ATOM     14  C   UNL     1       0.520   9.654  19.893  0.00  0.00    +0.000 C 
ATOM     15  C   UNL     1      -0.127  11.770  18.600  0.00  0.00    +0.000 C 
ATOM     16  N   UNL     1      -1.490  11.415  18.283  0.00  0.00    +0.000 N 
ATOM     17  C   UNL     1      -1.137  10.074  17.880  0.00  0.00    +0.000 C 
BRANCH  13  19
ATOM     18  C   UNL     1       2.165   8.931  17.862  0.00  0.00    +0.000 C 
ATOM     19  N   UNL     1       1.343  10.096  17.546  0.00  0.00    +0.000 NA
ATOM     20  H   UNL     1       1.015  10.009  16.583  0.00  0.00    +0.000 HD
ENDBRANCH  13  19
ENDBRANCH   1  16
BRANCH  12  21
ATOM     21  C   UNL     1      -2.350  13.594  23.006  0.00  0.00    +0.000 C 
ATOM     22  C   UNL     1      -1.549  14.656  22.195  0.00  0.00    +0.000 C 
ATOM     23  C   UNL     1      -2.547  14.265  24.386  0.00  0.00    +0.000 C 
ATOM     24  C   UNL     1      -1.419  12.364  23.057  0.00  0.00    +0.000 C 
ENDBRANCH  12  21
BRANCH  10  25
ATOM     25  C   UNL     1      -7.299  13.266  23.475  0.00  0.00    +0.000 C 
ATOM     26  O   UNL     1      -7.678  14.361  23.860  0.00  0.00    +0.000 OA
BRANCH  25  27
ATOM     27  O   UNL     1      -7.916  12.121  23.847  0.00  0.00    +0.000 OA
ATOM     28  H   UNL     1      -7.296  11.392  24.099  0.00  0.00    +0.000 HD
ENDBRANCH  25  27
ENDBRANCH  10  25
TORSDOF 5
ENDMDL
MODEL 8
REMARK VINA RESULT:      -6.7      1.139      1.637
REMARK  Name = 
REMARK  10 active torsions:
REMARK  status: ('A' for Active; 'I' for Inactive)
REMARK    1  A    between atoms: C_1  and  N_2
REMARK    2  A    between atoms: N_2  and  C_3
REMARK    3  A    between atoms: C_3  and  C_4
REMARK    4  A    between atoms: N_6  and  C_7
REMARK    5  A    between atoms: C_16  and  C_17
REMARK    6  A    between atoms: C_17  and  O_19
REMARK    7  A    between atoms: N_21  and  C_22
REMARK    8  A    between atoms: C_22  and  C_23
REMARK    9  A    between atoms: C_22  and  C_24
REMARK   10  A    between atoms: C_22  and  C_25
REMARK                            x       y       z     vdW  Elec       q    Type
REMARK                         _______ _______ _______ _____ _____    ______ ____
ROOT
ATOM      1  C   UNL     1       1.871   7.329  19.092  0.00  0.00    +0.000 A 
ATOM      2  C   UNL     1       2.162   5.968  18.867  0.00  0.00    +0.000 A 
ATOM      3  C   UNL     1       3.217   5.511  18.055  0.00  0.00    +0.000 A 
ATOM      4  C   UNL     1       3.898   6.518  17.332  0.00  0.00    +0.000 A 
ATOM      5  C   UNL     1       3.565   7.876  17.444  0.00  0.00    +0.000 A 
ATOM      6  C   UNL     1       2.577   8.267  18.335  0.00  0.00    +0.000 A 
ATOM      7  F   UNL     1       2.312   9.577  18.450  0.00  0.00    +0.000 F 
ATOM      8  C   UNL     1       5.013   6.163  16.430  0.00  0.00    +0.000 A 
ATOM      9  O   UNL     1       5.588   7.007  15.742  0.00  0.00    +0.000 OA
ATOM     10  C   UNL     1       5.448   4.761  16.388  0.00  0.00    +0.000 A 
ATOM     11  C   UNL     1       4.744   3.894  17.128  0.00  0.00    +0.000 A 
ATOM     12  N   UNL     1       3.636   4.148  17.953  0.00  0.00    +0.000 N 
ENDROOT
BRANCH   1  16
ATOM     13  C   UNL     1       0.718   8.847  21.809  0.00  0.00    +0.000 C 
ATOM     14  C   UNL     1       1.978   9.418  22.442  0.00  0.00    +0.000 C 
ATOM     15  C   UNL     1       0.834   7.349  21.452  0.00  0.00    +0.000 C 
ATOM     16  N   UNL     1       0.905   7.715  20.057  0.00  0.00    +0.000 N 
ATOM     17  C   UNL     1       0.468   9.070  20.302  0.00  0.00    +0.000 C 
BRANCH  13  19
ATOM     18  C   UNL     1      -0.610  10.432  23.093  0.00  0.00    +0.000 C 
ATOM     19  N   UNL     1      -0.517   9.060  22.602  0.00  0.00    +0.000 NA
ATOM     20  H   UNL     1      -1.374   8.841  22.091  0.00  0.00    +0.000 HD
ENDBRANCH  13  19
ENDBRANCH   1  16
BRANCH  12  21
ATOM     21  C   UNL     1       2.945   3.036  18.740  0.00  0.00    +0.000 C 
ATOM     22  C   UNL     1       3.498   1.621  18.392  0.00  0.00    +0.000 C 
ATOM     23  C   UNL     1       3.195   3.159  20.262  0.00  0.00    +0.000 C 
ATOM     24  C   UNL     1       1.447   2.966  18.375  0.00  0.00    +0.000 C 
ENDBRANCH  12  21
BRANCH  10  25
ATOM     25  C   UNL     1       6.601   4.285  15.595  0.00  0.00    +0.000 C 
ATOM     26  O   UNL     1       6.487   3.675  14.544  0.00  0.00    +0.000 OA
BRANCH  25  27
ATOM     27  O   UNL     1       7.810   4.569  16.132  0.00  0.00    +0.000 OA
ATOM     28  H   UNL     1       8.246   5.368  15.743  0.00  0.00    +0.000 HD
ENDBRANCH  25  27
ENDBRANCH  10  25
TORSDOF 5
ENDMDL
MODEL 9
REMARK VINA RESULT:      -6.6      3.139      7.221
REMARK  Name = 
REMARK  10 active torsions:
REMARK  status: ('A' for Active; 'I' for Inactive)
REMARK    1  A    between atoms: C_1  and  N_2
REMARK    2  A    between atoms: N_2  and  C_3
REMARK    3  A    between atoms: C_3  and  C_4
REMARK    4  A    between atoms: N_6  and  C_7
REMARK    5  A    between atoms: C_16  and  C_17
REMARK    6  A    between atoms: C_17  and  O_19
REMARK    7  A    between atoms: N_21  and  C_22
REMARK    8  A    between atoms: C_22  and  C_23
REMARK    9  A    between atoms: C_22  and  C_24
REMARK   10  A    between atoms: C_22  and  C_25
REMARK                            x       y       z     vdW  Elec       q    Type
REMARK                         _______ _______ _______ _____ _____    ______ ____
ROOT
ATOM      1  C   UNL     1       2.428   6.929  19.359  0.00  0.00    +0.000 A 
ATOM      2  C   UNL     1       1.799   7.819  20.253  0.00  0.00    +0.000 A 
ATOM      3  C   UNL     1       1.444   9.142  19.928  0.00  0.00    +0.000 A 
ATOM      4  C   UNL     1       1.902   9.596  18.670  0.00  0.00    +0.000 A 
ATOM      5  C   UNL     1       2.629   8.773  17.797  0.00  0.00    +0.000 A 
ATOM      6  C   UNL     1       2.863   7.450  18.138  0.00  0.00    +0.000 A 
ATOM      7  F   UNL     1       3.523   6.678  17.262  0.00  0.00    +0.000 F 
ATOM      8  C   UNL     1       1.610  10.973  18.223  0.00  0.00    +0.000 A 
ATOM      9  O   UNL     1       2.042  11.418  17.160  0.00  0.00    +0.000 OA
ATOM     10  C   UNL     1       0.754  11.809  19.075  0.00  0.00    +0.000 A 
ATOM     11  C   UNL     1       0.360  11.272  20.238  0.00  0.00    +0.000 A 
ATOM     12  N   UNL     1       0.653  10.000  20.756  0.00  0.00    +0.000 N 
ENDROOT
BRANCH   1  16
ATOM     13  C   UNL     1       2.981   3.702  18.810  0.00  0.00    +0.000 C 
ATOM     14  C   UNL     1       2.999   3.613  17.292  0.00  0.00    +0.000 C 
ATOM     15  C   UNL     1       1.746   4.443  19.368  0.00  0.00    +0.000 C 
ATOM     16  N   UNL     1       2.599   5.561  19.695  0.00  0.00    +0.000 N 
ATOM     17  C   UNL     1       3.812   4.801  19.506  0.00  0.00    +0.000 C 
BRANCH  13  19
ATOM     18  C   UNL     1       3.618   1.362  18.605  0.00  0.00    +0.000 C 
ATOM     19  N   UNL     1       3.116   2.398  19.504  0.00  0.00    +0.000 NA
ATOM     20  H   UNL     1       3.719   2.433  20.326  0.00  0.00    +0.000 HD
ENDBRANCH  13  19
ENDBRANCH   1  16
BRANCH  12  21
ATOM     21  C   UNL     1       0.116   9.536  22.108  0.00  0.00    +0.000 C 
ATOM     22  C   UNL     1      -0.807  10.596  22.782  0.00  0.00    +0.000 C 
ATOM     23  C   UNL     1      -0.795   8.292  21.978  0.00  0.00    +0.000 C 
ATOM     24  C   UNL     1       1.273   9.339  23.110  0.00  0.00    +0.000 C 
ENDBRANCH  12  21
BRANCH  10  25
ATOM     25  C   UNL     1       0.315  13.172  18.708  0.00  0.00    +0.000 C 
ATOM     26  O   UNL     1       0.741  14.182  19.246  0.00  0.00    +0.000 OA
BRANCH  25  27
ATOM     27  O   UNL     1      -0.614  13.221  17.726  0.00  0.00    +0.000 OA
ATOM     28  H   UNL     1      -0.701  14.108  17.297  0.00  0.00    +0.000 HD
ENDBRANCH  25  27
ENDBRANCH  10  25
TORSDOF 5
ENDMDL
