MODEL 1
REMARK VINA RESULT:      -7.9      0.000      0.000
REMARK  Name = 
REMARK  6 active torsions:
REMARK  status: ('A' for Active; 'I' for Inactive)
REMARK    1  A    between atoms: C_1  and  C_2
REMARK    2  A    between atoms: C_5  and  C_6
REMARK    3  A    between atoms: C_6  and  C_7
REMARK    4  A    between atoms: C_6  and  N_8
REMARK    5  A    between atoms: C_12  and  C_13
REMARK    6  A    between atoms: C_13  and  N_14
REMARK                            x       y       z     vdW  Elec       q    Type
REMARK                         _______ _______ _______ _____ _____    ______ ____
ROOT
ATOM      1  N   UNL     1       5.244   4.171  17.661  0.00  0.00    +0.000 NA
ATOM      2  C   UNL     1       4.323   5.142  17.057  0.00  0.00    +0.000 C 
ATOM      3  C   UNL     1       4.092   6.208  18.106  0.00  0.00    +0.000 C 
ATOM      4  C   UNL     1       4.160   5.445  19.411  0.00  0.00    +0.000 C 
ATOM      5  C   UNL     1       5.061   4.235  19.131  0.00  0.00    +0.000 C 
ENDROOT
BRANCH   1   6
ATOM      6  C   UNL     1       6.646   4.302  17.187  0.00  0.00    +0.000 C 
ATOM      7  C   UNL     1       7.392   5.369  18.003  0.00  0.00    +0.000 C 
BRANCH   6  12
ATOM      8  C   UNL     1       6.250   3.481  12.416  0.00  0.00    +0.000 C 
ATOM      9  C   UNL     1       6.655   4.198  13.636  0.00  0.00    +0.000 A 
ATOM     10  N   UNL     1       7.369   5.297  13.760  0.00  0.00    +0.000 NA
ATOM     11  N   UNL     1       7.487   5.531  15.111  0.00  0.00    +0.000 NA
ATOM     12  C   UNL     1       6.830   4.564  15.720  0.00  0.00    +0.000 A 
ATOM     13  O   UNL     1       6.269   3.672  14.840  0.00  0.00    +0.000 OA
ENDBRANCH   6  12
ENDBRANCH   1   6
BRANCH   5  14
ATOM     14  C   UNL     1       4.455   2.916  19.639  0.00  0.00    +0.000 C 
BRANCH  14  15
ATOM     15  N   UNL     1       3.003   2.919  19.651  0.00  0.00    +0.000 N 
ATOM     16  C   UNL     1       2.191   3.239  20.702  0.00  0.00    +0.000 A 
ATOM     17  C   UNL     1       0.903   3.087  20.246  0.00  0.00    +0.000 A 
ATOM     18  C   UNL     1       1.044   2.655  18.916  0.00  0.00    +0.000 A 
ATOM     19  N   UNL     1       2.323   2.548  18.549  0.00  0.00    +0.000 NA
ENDBRANCH  14  15
ENDBRANCH   5  14
TORSDOF 4
ENDMDL
MODEL 2
REMARK VINA RESULT:      -7.4      0.799      1.163
REMARK  Name = 
REMARK  6 active torsions:
REMARK  status: ('A' for Active; 'I' for Inactive)
REMARK    1  A    between atoms: C_1  and  C_2
REMARK    2  A    between atoms: C_5  and  C_6
REMARK    3  A    between atoms: C_6  and  C_7
REMARK    4  A    between atoms: C_6  and  N_8
REMARK    5  A    between atoms: C_12  and  C_13
REMARK    6  A    between atoms: C_13  and  N_14
REMARK                            x       y       z     vdW  Elec       q    Type
REMARK                         _______ _______ _______ _____ _____    ______ ____
ROOT
ATOM      1  N   UNL     1       4.935   4.532  17.032  0.00  0.00    +0.000 NA
ATOM      2  C   UNL     1       4.499   5.898  16.718  0.00  0.00    +0.000 C 
ATOM      3  C   UNL     1       4.404   6.622  18.043  0.00  0.00    +0.000 C 
ATOM      4  C   UNL     1       3.971   5.541  19.010  0.00  0.00    +0.000 C 
ATOM      5  C   UNL     1       4.492   4.226  18.414  0.00  0.00    +0.000 C 
ENDROOT
BRANCH   1   6
ATOM      6  C   UNL     1       6.375   4.285  16.756  0.00  0.00    +0.000 C 
ATOM      7  C   UNL     1       7.251   5.005  17.792  0.00  0.00    +0.000 C 
BRANCH   6  12
ATOM      8  C   UNL     1       6.836   3.773  11.948  0.00  0.00    +0.000 C 
ATOM      9  C   UNL     1       7.050   4.384  13.270  0.00  0.00    +0.000 A 
ATOM     10  N   UNL     1       7.802   5.412  13.602  0.00  0.00    +0.000 NA
ATOM     11  N   UNL     1       7.678   5.558  14.965  0.00  0.00    +0.000 NA
ATOM     12  C   UNL     1       6.852   4.614  15.372  0.00  0.00    +0.000 A 
ATOM     13  O   UNL     1       6.407   3.823  14.341  0.00  0.00    +0.000 OA
ENDBRANCH   6  12
ENDBRANCH   1   6
BRANCH   5  14
ATOM     14  C   UNL     1       3.419   3.124  18.385  0.00  0.00    +0.000 C 
BRANCH  14  15
ATOM     15  N   UNL     1       2.717   2.974  19.646  0.00  0.00    +0.000 N 
ATOM     16  C   UNL     1       1.389   3.191  19.878  0.00  0.00    +0.000 A 
ATOM     17  C   UNL     1       1.189   2.934  21.214  0.00  0.00    +0.000 A 
ATOM     18  C   UNL     1       2.460   2.588  21.704  0.00  0.00    +0.000 A 
ATOM     19  N   UNL     1       3.396   2.613  20.753  0.00  0.00    +0.000 NA
ENDBRANCH  14  15
ENDBRANCH   5  14
TORSDOF 4
ENDMDL
MODEL 3
REMARK VINA RESULT:      -7.2      1.951      6.407
REMARK  Name = 
REMARK  6 active torsions:
REMARK  status: ('A' for Active; 'I' for Inactive)
REMARK    1  A    between atoms: C_1  and  C_2
REMARK    2  A    between atoms: C_5  and  C_6
REMARK    3  A    between atoms: C_6  and  C_7
REMARK    4  A    between atoms: C_6  and  N_8
REMARK    5  A    between atoms: C_12  and  C_13
REMARK    6  A    between atoms: C_13  and  N_14
REMARK                            x       y       z     vdW  Elec       q    Type
REMARK                         _______ _______ _______ _____ _____    ______ ____
ROOT
ATOM      1  N   UNL     1       5.256   4.568  17.767  0.00  0.00    +0.000 NA
ATOM      2  C   UNL     1       4.945   5.598  18.766  0.00  0.00    +0.000 C 
ATOM      3  C   UNL     1       4.173   6.672  18.033  0.00  0.00    +0.000 C 
ATOM      4  C   UNL     1       4.771   6.657  16.643  0.00  0.00    +0.000 C 
ATOM      5  C   UNL     1       5.297   5.229  16.440  0.00  0.00    +0.000 C 
ENDROOT
BRANCH   1   6
ATOM      6  C   UNL     1       4.385   3.367  17.854  0.00  0.00    +0.000 C 
ATOM      7  C   UNL     1       3.146   3.536  16.962  0.00  0.00    +0.000 C 
BRANCH   6  12
ATOM      8  C   UNL     1       1.457   2.985  21.711  0.00  0.00    +0.000 C 
ATOM      9  C   UNL     1       2.680   2.789  20.917  0.00  0.00    +0.000 A 
ATOM     10  N   UNL     1       3.808   2.200  21.255  0.00  0.00    +0.000 NA
ATOM     11  N   UNL     1       4.643   2.310  20.166  0.00  0.00    +0.000 NA
ATOM     12  C   UNL     1       3.965   2.951  19.234  0.00  0.00    +0.000 A 
ATOM     13  O   UNL     1       2.698   3.289  19.643  0.00  0.00    +0.000 OA
ENDBRANCH   6  12
ENDBRANCH   1   6
BRANCH   5  14
ATOM     14  C   UNL     1       6.732   5.200  15.887  0.00  0.00    +0.000 C 
BRANCH  14  15
ATOM     15  N   UNL     1       6.805   4.764  14.505  0.00  0.00    +0.000 N 
ATOM     16  C   UNL     1       6.112   3.737  13.930  0.00  0.00    +0.000 A 
ATOM     17  C   UNL     1       6.516   3.694  12.616  0.00  0.00    +0.000 A 
ATOM     18  C   UNL     1       7.467   4.722  12.502  0.00  0.00    +0.000 A 
ATOM     19  N   UNL     1       7.649   5.376  13.652  0.00  0.00    +0.000 NA
ENDBRANCH  14  15
ENDBRANCH   5  14
TORSDOF 4
ENDMDL
MODEL 4
REMARK VINA RESULT:      -7.2      2.694      3.771
REMARK  Name = 
REMARK  6 active torsions:
REMARK  status: ('A' for Active; 'I' for Inactive)
REMARK    1  A    between atoms: C_1  and  C_2
REMARK    2  A    between atoms: C_5  and  C_6
REMARK    3  A    between atoms: C_6  and  C_7
REMARK    4  A    between atoms: C_6  and  N_8
REMARK    5  A    between atoms: C_12  and  C_13
REMARK    6  A    between atoms: C_13  and  N_14
REMARK                            x       y       z     vdW  Elec       q    Type
REMARK                         _______ _______ _______ _____ _____    ______ ____
ROOT
ATOM      1  N   UNL     1       4.045   4.462  18.982  0.00  0.00    +0.000 NA
ATOM      2  C   UNL     1       3.398   3.147  18.898  0.00  0.00    +0.000 C 
ATOM      3  C   UNL     1       2.417   3.236  17.750  0.00  0.00    +0.000 C 
ATOM      4  C   UNL     1       1.948   4.675  17.791  0.00  0.00    +0.000 C 
ATOM      5  C   UNL     1       3.102   5.462  18.427  0.00  0.00    +0.000 C 
ENDROOT
BRANCH   1   6
ATOM      6  C   UNL     1       5.416   4.492  18.407  0.00  0.00    +0.000 C 
ATOM      7  C   UNL     1       6.338   5.372  19.263  0.00  0.00    +0.000 C 
BRANCH   6  12
ATOM      8  C   UNL     1       5.934   3.871  13.617  0.00  0.00    +0.000 C 
ATOM      9  C   UNL     1       5.751   4.617  14.872  0.00  0.00    +0.000 A 
ATOM     10  N   UNL     1       5.678   5.917  15.067  0.00  0.00    +0.000 NA
ATOM     11  N   UNL     1       5.536   6.098  16.424  0.00  0.00    +0.000 NA
ATOM     12  C   UNL     1       5.523   4.895  16.965  0.00  0.00    +0.000 A 
ATOM     13  O   UNL     1       5.655   3.896  16.033  0.00  0.00    +0.000 OA
ENDBRANCH   6  12
ENDBRANCH   1   6
BRANCH   5  14
ATOM     14  C   UNL     1       2.627   6.407  19.544  0.00  0.00    +0.000 C 
BRANCH  14  15
ATOM     15  N   UNL     1       2.205   7.707  19.056  0.00  0.00    +0.000 N 
ATOM     16  C   UNL     1       2.526   8.278  17.857  0.00  0.00    +0.000 A 
ATOM     17  C   UNL     1       1.910   9.507  17.845  0.00  0.00    +0.000 A 
ATOM     18  C   UNL     1       1.259   9.592  19.088  0.00  0.00    +0.000 A 
ATOM     19  N   UNL     1       1.438   8.498  19.831  0.00  0.00    +0.000 NA
ENDBRANCH  14  15
ENDBRANCH   5  14
TORSDOF 4
ENDMDL
MODEL 5
REMARK VINA RESULT:      -7.2      1.112      1.204
REMARK  Name = 
REMARK  6 active torsions:
REMARK  status: ('A' for Active; 'I' for Inactive)
REMARK    1  A    between atoms: C_1  and  C_2
REMARK    2  A    between atoms: C_5  and  C_6
REMARK    3  A    between atoms: C_6  and  C_7
REMARK    4  A    between atoms: C_6  and  N_8
REMARK    5  A    between atoms: C_12  and  C_13
REMARK    6  A    between atoms: C_13  and  N_14
REMARK                            x       y       z     vdW  Elec       q    Type
REMARK                         _______ _______ _______ _____ _____    ______ ____
ROOT
ATOM      1  N   UNL     1       5.055   4.457  17.687  0.00  0.00    +0.000 NA
ATOM      2  C   UNL     1       4.036   5.406  17.221  0.00  0.00    +0.000 C 
ATOM      3  C   UNL     1       3.787   6.351  18.376  0.00  0.00    +0.000 C 
ATOM      4  C   UNL     1       3.979   5.480  19.599  0.00  0.00    +0.000 C 
ATOM      5  C   UNL     1       4.948   4.373  19.164  0.00  0.00    +0.000 C 
ENDROOT
BRANCH   1   6
ATOM      6  C   UNL     1       6.417   4.736  17.162  0.00  0.00    +0.000 C 
ATOM      7  C   UNL     1       6.872   6.145  17.570  0.00  0.00    +0.000 C 
BRANCH   6  12
ATOM      8  C   UNL     1       8.199   5.645  12.735  0.00  0.00    +0.000 C 
ATOM      9  C   UNL     1       7.393   4.951  13.753  0.00  0.00    +0.000 A 
ATOM     10  N   UNL     1       6.545   3.954  13.608  0.00  0.00    +0.000 NA
ATOM     11  N   UNL     1       6.034   3.696  14.860  0.00  0.00    +0.000 NA
ATOM     12  C   UNL     1       6.611   4.548  15.685  0.00  0.00    +0.000 A 
ATOM     13  O   UNL     1       7.495   5.383  15.048  0.00  0.00    +0.000 OA
ENDBRANCH   6  12
ENDBRANCH   1   6
BRANCH   5  14
ATOM     14  C   UNL     1       4.465   2.971  19.572  0.00  0.00    +0.000 C 
BRANCH  14  15
ATOM     15  N   UNL     1       3.083   2.946  20.013  0.00  0.00    +0.000 N 
ATOM     16  C   UNL     1       2.632   2.909  21.302  0.00  0.00    +0.000 A 
ATOM     17  C   UNL     1       1.259   2.885  21.223  0.00  0.00    +0.000 A 
ATOM     18  C   UNL     1       0.981   2.892  19.846  0.00  0.00    +0.000 A 
ATOM     19  N   UNL     1       2.090   2.926  19.103  0.00  0.00    +0.000 NA
ENDBRANCH  14  15
ENDBRANCH   5  14
TORSDOF 4
ENDMDL
MODEL 6
REMARK VINA RESULT:      -7.1      0.907      1.032
REMARK  Name = 
REMARK  6 active torsions:
REMARK  status: ('A' for Active; 'I' for Inactive)
REMARK    1  A    between atoms: C_1  and  C_2
REMARK    2  A    between atoms: C_5  and  C_6
REMARK    3  A    between atoms: C_6  and  C_7
REMARK    4  A    between atoms: C_6  and  N_8
REMARK    5  A    between atoms: C_12  and  C_13
REMARK    6  A    between atoms: C_13  and  N_14
REMARK                            x       y       z     vdW  Elec       q    Type
REMARK                         _______ _______ _______ _____ _____    ______ ____
ROOT
ATOM      1  N   UNL     1       4.687   4.549  18.222  0.00  0.00    +0.000 NA
ATOM      2  C   UNL     1       3.885   5.212  17.186  0.00  0.00    +0.000 C 
ATOM      3  C   UNL     1       3.537   6.577  17.737  0.00  0.00    +0.000 C 
ATOM      4  C   UNL     1       3.402   6.339  19.225  0.00  0.00    +0.000 C 
ATOM      5  C   UNL     1       4.302   5.135  19.530  0.00  0.00    +0.000 C 
ENDROOT
BRANCH   1   6
ATOM      6  C   UNL     1       6.145   4.538  17.934  0.00  0.00    +0.000 C 
ATOM      7  C   UNL     1       6.882   5.522  18.854  0.00  0.00    +0.000 C 
BRANCH   6  12
ATOM      8  C   UNL     1       6.359   3.719  13.150  0.00  0.00    +0.000 C 
ATOM      9  C   UNL     1       6.632   4.418  14.417  0.00  0.00    +0.000 A 
ATOM     10  N   UNL     1       7.382   5.476  14.640  0.00  0.00    +0.000 NA
ATOM     11  N   UNL     1       7.328   5.710  15.996  0.00  0.00    +0.000 NA
ATOM     12  C   UNL     1       6.541   4.782  16.507  0.00  0.00    +0.000 A 
ATOM     13  O   UNL     1       6.057   3.919  15.555  0.00  0.00    +0.000 OA
ENDBRANCH   6  12
ENDBRANCH   1   6
BRANCH   5  14
ATOM     14  C   UNL     1       3.597   4.072  20.390  0.00  0.00    +0.000 C 
BRANCH  14  15
ATOM     15  N   UNL     1       2.560   3.352  19.675  0.00  0.00    +0.000 N 
ATOM     16  C   UNL     1       1.240   3.692  19.580  0.00  0.00    +0.000 A 
ATOM     17  C   UNL     1       0.649   2.712  18.818  0.00  0.00    +0.000 A 
ATOM     18  C   UNL     1       1.690   1.817  18.518  0.00  0.00    +0.000 A 
ATOM     19  N   UNL     1       2.857   2.202  19.041  0.00  0.00    +0.000 NA
ENDBRANCH  14  15
ENDBRANCH   5  14
TORSDOF 4
ENDMDL
MODEL 7
REMARK VINA RESULT:      -7.1      2.547      4.598
REMARK  Name = 
REMARK  6 active torsions:
REMARK  status: ('A' for Active; 'I' for Inactive)
REMARK    1  A    between atoms: C_1  and  C_2
REMARK    2  A    between atoms: C_5  and  C_6
REMARK    3  A    between atoms: C_6  and  C_7
REMARK    4  A    between atoms: C_6  and  N_8
REMARK    5  A    between atoms: C_12  and  C_13
REMARK    6  A    between atoms: C_13  and  N_14
REMARK                            x       y       z     vdW  Elec       q    Type
REMARK                         _______ _______ _______ _____ _____    ______ ____
ROOT
ATOM      1  N   UNL     1       3.142   3.885  19.585  0.00  0.00    +0.000 NA
ATOM      2  C   UNL     1       2.849   2.744  20.462  0.00  0.00    +0.000 C 
ATOM      3  C   UNL     1       1.343   2.612  20.488  0.00  0.00    +0.000 C 
ATOM      4  C   UNL     1       0.857   4.040  20.369  0.00  0.00    +0.000 C 
ATOM      5  C   UNL     1       1.967   4.789  19.619  0.00  0.00    +0.000 C 
ENDROOT
BRANCH   1   6
ATOM      6  C   UNL     1       3.605   3.492  18.228  0.00  0.00    +0.000 C 
ATOM      7  C   UNL     1       3.627   1.963  18.090  0.00  0.00    +0.000 C 
BRANCH   6  12
ATOM      8  C   UNL     1       7.756   5.984  18.620  0.00  0.00    +0.000 C 
ATOM      9  C   UNL     1       6.734   5.154  17.963  0.00  0.00    +0.000 A 
ATOM     10  N   UNL     1       6.688   4.712  16.724  0.00  0.00    +0.000 NA
ATOM     11  N   UNL     1       5.510   4.009  16.607  0.00  0.00    +0.000 NA
ATOM     12  C   UNL     1       4.921   4.062  17.786  0.00  0.00    +0.000 A 
ATOM     13  O   UNL     1       5.646   4.779  18.706  0.00  0.00    +0.000 OA
ENDBRANCH   6  12
ENDBRANCH   1   6
BRANCH   5  14
ATOM     14  C   UNL     1       2.349   6.115  20.297  0.00  0.00    +0.000 C 
BRANCH  14  15
ATOM     15  N   UNL     1       2.175   7.270  19.437  0.00  0.00    +0.000 N 
ATOM     16  C   UNL     1       2.611   7.409  18.150  0.00  0.00    +0.000 A 
ATOM     17  C   UNL     1       2.227   8.669  17.752  0.00  0.00    +0.000 A 
ATOM     18  C   UNL     1       1.583   9.216  18.875  0.00  0.00    +0.000 A 
ATOM     19  N   UNL     1       1.551   8.368  19.906  0.00  0.00    +0.000 NA
ENDBRANCH  14  15
ENDBRANCH   5  14
TORSDOF 4
ENDMDL
MODEL 8
REMARK VINA RESULT:      -7.0      1.537      2.333
REMARK  Name = 
REMARK  6 active torsions:
REMARK  status: ('A' for Active; 'I' for Inactive)
REMARK    1  A    between atoms: C_1  and  C_2
REMARK    2  A    between atoms: C_5  and  C_6
REMARK    3  A    between atoms: C_6  and  C_7
REMARK    4  A    between atoms: C_6  and  N_8
REMARK    5  A    between atoms: C_12  and  C_13
REMARK    6  A    between atoms: C_13  and  N_14
REMARK                            x       y       z     vdW  Elec       q    Type
REMARK                         _______ _______ _______ _____ _____    ______ ____
ROOT
ATOM      1  N   UNL     1       4.454   5.457  18.240  0.00  0.00    +0.000 NA
ATOM      2  C   UNL     1       5.143   4.167  18.364  0.00  0.00    +0.000 C 
ATOM      3  C   UNL     1       4.390   3.203  17.473  0.00  0.00    +0.000 C 
ATOM      4  C   UNL     1       2.957   3.679  17.563  0.00  0.00    +0.000 C 
ATOM      5  C   UNL     1       3.043   5.178  17.879  0.00  0.00    +0.000 C 
ENDROOT
BRANCH   1   6
ATOM      6  C   UNL     1       5.156   6.428  17.361  0.00  0.00    +0.000 C 
ATOM      7  C   UNL     1       4.155   7.417  16.746  0.00  0.00    +0.000 C 
BRANCH   6  12
ATOM      8  C   UNL     1       6.195   3.913  13.337  0.00  0.00    +0.000 C 
ATOM      9  C   UNL     1       6.468   4.741  14.523  0.00  0.00    +0.000 A 
ATOM     10  N   UNL     1       7.621   5.166  14.996  0.00  0.00    +0.000 NA
ATOM     11  N   UNL     1       7.331   5.876  16.140  0.00  0.00    +0.000 NA
ATOM     12  C   UNL     1       6.020   5.843  16.282  0.00  0.00    +0.000 A 
ATOM     13  O   UNL     1       5.399   5.134  15.283  0.00  0.00    +0.000 OA
ENDBRANCH   6  12
ENDBRANCH   1   6
BRANCH   5  14
ATOM     14  C   UNL     1       2.117   5.593  19.036  0.00  0.00    +0.000 C 
BRANCH  14  15
ATOM     15  N   UNL     1       1.898   4.533  20.002  0.00  0.00    +0.000 N 
ATOM     16  C   UNL     1       0.883   3.619  20.003  0.00  0.00    +0.000 A 
ATOM     17  C   UNL     1       1.083   2.830  21.112  0.00  0.00    +0.000 A 
ATOM     18  C   UNL     1       2.232   3.360  21.724  0.00  0.00    +0.000 A 
ATOM     19  N   UNL     1       2.731   4.401  21.053  0.00  0.00    +0.000 NA
ENDBRANCH  14  15
ENDBRANCH   5  14
TORSDOF 4
ENDMDL
MODEL 9
REMARK VINA RESULT:      -7.0      2.370      4.164
REMARK  Name = 
REMARK  6 active torsions:
REMARK  status: ('A' for Active; 'I' for Inactive)
REMARK    1  A    between atoms: C_1  and  C_2
REMARK    2  A    between atoms: C_5  and  C_6
REMARK    3  A    between atoms: C_6  and  C_7
REMARK    4  A    between atoms: C_6  and  N_8
REMARK    5  A    between atoms: C_12  and  C_13
REMARK    6  A    between atoms: C_13  and  N_14
REMARK                            x       y       z     vdW  Elec       q    Type
REMARK                         _______ _______ _______ _____ _____    ______ ____
ROOT
ATOM      1  N   UNL     1       3.157   3.879  19.480  0.00  0.00    +0.000 NA
ATOM      2  C   UNL     1       2.848   2.776  20.398  0.00  0.00    +0.000 C 
ATOM      3  C   UNL     1       1.341   2.750  20.527  0.00  0.00    +0.000 C 
ATOM      4  C   UNL     1       0.946   4.206  20.410  0.00  0.00    +0.000 C 
ATOM      5  C   UNL     1       2.051   4.863  19.573  0.00  0.00    +0.000 C 
ENDROOT
BRANCH   1   6
ATOM      6  C   UNL     1       3.499   3.434  18.104  0.00  0.00    +0.000 C 
ATOM      7  C   UNL     1       3.475   1.901  18.014  0.00  0.00    +0.000 C 
BRANCH   6  12
ATOM      8  C   UNL     1       6.739   4.568  14.666  0.00  0.00    +0.000 C 
ATOM      9  C   UNL     1       6.201   4.448  16.031  0.00  0.00    +0.000 A 
ATOM     10  N   UNL     1       6.770   4.743  17.181  0.00  0.00    +0.000 NA
ATOM     11  N   UNL     1       5.856   4.419  18.159  0.00  0.00    +0.000 NA
ATOM     12  C   UNL     1       4.788   3.956  17.538  0.00  0.00    +0.000 A 
ATOM     13  O   UNL     1       4.935   3.945  16.173  0.00  0.00    +0.000 OA
ENDBRANCH   6  12
ENDBRANCH   1   6
BRANCH   5  14
ATOM     14  C   UNL     1       2.567   6.171  20.196  0.00  0.00    +0.000 C 
BRANCH  14  15
ATOM     15  N   UNL     1       2.278   7.343  19.392  0.00  0.00    +0.000 N 
ATOM     16  C   UNL     1       1.539   8.431  19.761  0.00  0.00    +0.000 A 
ATOM     17  C   UNL     1       1.533   9.273  18.673  0.00  0.00    +0.000 A 
ATOM     18  C   UNL     1       2.278   8.595  17.693  0.00  0.00    +0.000 A 
ATOM     19  N   UNL     1       2.733   7.416  18.126  0.00  0.00    +0.000 NA
ENDBRANCH  14  15
ENDBRANCH   5  14
TORSDOF 4
ENDMDL
