MODEL 1
REMARK VINA RESULT:      -7.1      0.000      0.000
REMARK  Name = 
REMARK  7 active torsions:
REMARK  status: ('A' for Active; 'I' for Inactive)
REMARK    1  A    between atoms: C_1  and  C_2
REMARK    2  A    between atoms: C_5  and  O_6
REMARK    3  A    between atoms: C_8  and  C_9
REMARK    4  A    between atoms: C_9  and  C_10
REMARK    5  A    between atoms: C_9  and  C_11
REMARK    6  A    between atoms: C_9  and  C_12
REMARK    7  A    between atoms: C_15  and  C_16
REMARK                            x       y       z     vdW  Elec       q    Type
REMARK                         _______ _______ _______ _____ _____    ______ ____
ROOT
ATOM      1  C   UNL     1       8.308   5.551  12.912  0.00  0.00    +0.000 C 
ATOM      2  C   UNL     1       7.413   5.207  14.049  0.00  0.00    +0.000 A 
ATOM      3  N   UNL     1       7.670   5.726  15.254  0.00  0.00    +0.000 NA
ATOM      4  N   UNL     1       6.712   5.200  16.056  0.00  0.00    +0.000 N 
ATOM      5  C   UNL     1       6.564   5.443  17.427  0.00  0.00    +0.000 A 
ATOM      6  C   UNL     1       5.568   4.864  18.107  0.00  0.00    +0.000 A 
ATOM      7  C   UNL     1       4.652   3.975  17.310  0.00  0.00    +0.000 A 
ATOM      8  N   UNL     1       4.801   3.746  16.036  0.00  0.00    +0.000 NA
ATOM      9  C   UNL     1       5.840   4.356  15.378  0.00  0.00    +0.000 A 
ATOM     10  C   UNL     1       6.273   4.343  14.060  0.00  0.00    +0.000 A 
ENDROOT
BRANCH  10  11
ATOM     11  C   UNL     1       5.678   3.564  12.975  0.00  0.00    +0.000 A 
ATOM     12  C   UNL     1       4.442   3.940  12.426  0.00  0.00    +0.000 A 
ATOM     13  C   UNL     1       3.913   3.289  11.309  0.00  0.00    +0.000 A 
ATOM     14  C   UNL     1       4.592   2.215  10.749  0.00  0.00    +0.000 A 
ATOM     15  C   UNL     1       5.795   1.790  11.310  0.00  0.00    +0.000 A 
ATOM     16  C   UNL     1       6.338   2.465  12.410  0.00  0.00    +0.000 A 
ENDBRANCH  10  11
BRANCH   7  17
ATOM     17  C   UNL     1       3.457   3.310  18.049  0.00  0.00    +0.000 C 
ATOM     18  C   UNL     1       3.531   1.784  17.885  0.00  0.00    +0.000 C 
ATOM     19  C   UNL     1       3.515   3.643  19.554  0.00  0.00    +0.000 C 
ATOM     20  C   UNL     1       2.116   3.820  17.501  0.00  0.00    +0.000 C 
ENDBRANCH   7  17
BRANCH   5  21
ATOM     21  O   UNL     1       7.458   6.293  18.058  0.00  0.00    +0.000 OA
ATOM     22  H   UNL     1       7.261   6.205  19.017  0.00  0.00    +0.000 HD
ENDBRANCH   5  21
TORSDOF 3
ENDMDL
MODEL 2
REMARK VINA RESULT:      -6.9      0.108      1.055
REMARK  Name = 
REMARK  7 active torsions:
REMARK  status: ('A' for Active; 'I' for Inactive)
REMARK    1  A    between atoms: C_1  and  C_2
REMARK    2  A    between atoms: C_5  and  O_6
REMARK    3  A    between atoms: C_8  and  C_9
REMARK    4  A    between atoms: C_9  and  C_10
REMARK    5  A    between atoms: C_9  and  C_11
REMARK    6  A    between atoms: C_9  and  C_12
REMARK    7  A    between atoms: C_15  and  C_16
REMARK                            x       y       z     vdW  Elec       q    Type
REMARK                         _______ _______ _______ _____ _____    ______ ____
ROOT
ATOM      1  C   UNL     1       8.402   5.628  12.938  0.00  0.00    +0.000 C 
ATOM      2  C   UNL     1       7.486   5.258  14.050  0.00  0.00    +0.000 A 
ATOM      3  N   UNL     1       7.727   5.740  15.274  0.00  0.00    +0.000 NA
ATOM      4  N   UNL     1       6.753   5.199  16.045  0.00  0.00    +0.000 N 
ATOM      5  C   UNL     1       6.585   5.402  17.420  0.00  0.00    +0.000 A 
ATOM      6  C   UNL     1       5.574   4.812  18.067  0.00  0.00    +0.000 A 
ATOM      7  C   UNL     1       4.665   3.954  17.230  0.00  0.00    +0.000 A 
ATOM      8  N   UNL     1       4.833   3.760  15.953  0.00  0.00    +0.000 NA
ATOM      9  C   UNL     1       5.887   4.381  15.329  0.00  0.00    +0.000 A 
ATOM     10  C   UNL     1       6.341   4.403  14.018  0.00  0.00    +0.000 A 
ENDROOT
BRANCH  10  11
ATOM     11  C   UNL     1       5.757   3.661  12.901  0.00  0.00    +0.000 A 
ATOM     12  C   UNL     1       6.420   2.546  12.365  0.00  0.00    +0.000 A 
ATOM     13  C   UNL     1       5.826   1.748  11.385  0.00  0.00    +0.000 A 
ATOM     14  C   UNL     1       4.572   2.081  10.887  0.00  0.00    +0.000 A 
ATOM     15  C   UNL     1       3.919   3.215  11.367  0.00  0.00    +0.000 A 
ATOM     16  C   UNL     1       4.502   3.994  12.373  0.00  0.00    +0.000 A 
ENDBRANCH  10  11
BRANCH   7  17
ATOM     17  C   UNL     1       3.453   3.277  17.930  0.00  0.00    +0.000 C 
ATOM     18  C   UNL     1       3.541   1.752  17.759  0.00  0.00    +0.000 C 
ATOM     19  C   UNL     1       3.466   3.600  19.439  0.00  0.00    +0.000 C 
ATOM     20  C   UNL     1       2.126   3.782  17.347  0.00  0.00    +0.000 C 
ENDBRANCH   7  17
BRANCH   5  21
ATOM     21  O   UNL     1       7.475   6.227  18.090  0.00  0.00    +0.000 OA
ATOM     22  H   UNL     1       7.216   7.141  17.838  0.00  0.00    +0.000 HD
ENDBRANCH   5  21
TORSDOF 3
ENDMDL
MODEL 3
REMARK VINA RESULT:      -6.6      0.459      1.513
REMARK  Name = 
REMARK  7 active torsions:
REMARK  status: ('A' for Active; 'I' for Inactive)
REMARK    1  A    between atoms: C_1  and  C_2
REMARK    2  A    between atoms: C_5  and  O_6
REMARK    3  A    between atoms: C_8  and  C_9
REMARK    4  A    between atoms: C_9  and  C_10
REMARK    5  A    between atoms: C_9  and  C_11
REMARK    6  A    between atoms: C_9  and  C_12
REMARK    7  A    between atoms: C_15  and  C_16
REMARK                            x       y       z     vdW  Elec       q    Type
REMARK                         _______ _______ _______ _____ _____    ______ ____
ROOT
ATOM      1  C   UNL     1       8.406   5.616  12.926  0.00  0.00    +0.000 C 
ATOM      2  C   UNL     1       7.491   5.256  14.041  0.00  0.00    +0.000 A 
ATOM      3  N   UNL     1       7.739   5.738  15.264  0.00  0.00    +0.000 NA
ATOM      4  N   UNL     1       6.764   5.206  16.038  0.00  0.00    +0.000 N 
ATOM      5  C   UNL     1       6.601   5.413  17.413  0.00  0.00    +0.000 A 
ATOM      6  C   UNL     1       5.587   4.832  18.064  0.00  0.00    +0.000 A 
ATOM      7  C   UNL     1       4.669   3.980  17.232  0.00  0.00    +0.000 A 
ATOM      8  N   UNL     1       4.831   3.782  15.954  0.00  0.00    +0.000 NA
ATOM      9  C   UNL     1       5.888   4.394  15.327  0.00  0.00    +0.000 A 
ATOM     10  C   UNL     1       6.338   4.410  14.014  0.00  0.00    +0.000 A 
ENDROOT
BRANCH  10  11
ATOM     11  C   UNL     1       5.745   3.670  12.901  0.00  0.00    +0.000 A 
ATOM     12  C   UNL     1       6.401   2.553  12.360  0.00  0.00    +0.000 A 
ATOM     13  C   UNL     1       5.798   1.757  11.383  0.00  0.00    +0.000 A 
ATOM     14  C   UNL     1       4.543   2.095  10.893  0.00  0.00    +0.000 A 
ATOM     15  C   UNL     1       3.896   3.231  11.377  0.00  0.00    +0.000 A 
ATOM     16  C   UNL     1       4.489   4.008  12.380  0.00  0.00    +0.000 A 
ENDBRANCH  10  11
BRANCH   7  17
ATOM     17  C   UNL     1       3.454   3.313  17.938  0.00  0.00    +0.000 C 
ATOM     18  C   UNL     1       2.427   4.389  18.326  0.00  0.00    +0.000 C 
ATOM     19  C   UNL     1       2.774   2.310  16.983  0.00  0.00    +0.000 C 
ATOM     20  C   UNL     1       3.896   2.550  19.194  0.00  0.00    +0.000 C 
ENDBRANCH   7  17
BRANCH   5  21
ATOM     21  O   UNL     1       7.500   6.232  18.079  0.00  0.00    +0.000 OA
ATOM     22  H   UNL     1       6.948   6.929  18.498  0.00  0.00    +0.000 HD
ENDBRANCH   5  21
TORSDOF 3
ENDMDL
MODEL 4
REMARK VINA RESULT:      -6.4      3.403      7.128
REMARK  Name = 
REMARK  7 active torsions:
REMARK  status: ('A' for Active; 'I' for Inactive)
REMARK    1  A    between atoms: C_1  and  C_2
REMARK    2  A    between atoms: C_5  and  O_6
REMARK    3  A    between atoms: C_8  and  C_9
REMARK    4  A    between atoms: C_9  and  C_10
REMARK    5  A    between atoms: C_9  and  C_11
REMARK    6  A    between atoms: C_9  and  C_12
REMARK    7  A    between atoms: C_15  and  C_16
REMARK                            x       y       z     vdW  Elec       q    Type
REMARK                         _______ _______ _______ _____ _____    ______ ____
ROOT
ATOM      1  C   UNL     1       0.865   4.425  20.818  0.00  0.00    +0.000 C 
ATOM      2  C   UNL     1       1.867   4.405  19.719  0.00  0.00    +0.000 A 
ATOM      3  N   UNL     1       2.402   3.236  19.353  0.00  0.00    +0.000 NA
ATOM      4  N   UNL     1       3.281   3.562  18.375  0.00  0.00    +0.000 N 
ATOM      5  C   UNL     1       4.100   2.669  17.674  0.00  0.00    +0.000 A 
ATOM      6  C   UNL     1       4.925   3.120  16.722  0.00  0.00    +0.000 A 
ATOM      7  C   UNL     1       4.895   4.602  16.470  0.00  0.00    +0.000 A 
ATOM      8  N   UNL     1       4.138   5.430  17.132  0.00  0.00    +0.000 NA
ATOM      9  C   UNL     1       3.311   4.925  18.105  0.00  0.00    +0.000 A 
ATOM     10  C   UNL     1       2.391   5.503  18.969  0.00  0.00    +0.000 A 
ENDROOT
BRANCH  10  11
ATOM     11  C   UNL     1       2.098   6.932  19.070  0.00  0.00    +0.000 A 
ATOM     12  C   UNL     1       2.124   7.746  17.927  0.00  0.00    +0.000 A 
ATOM     13  C   UNL     1       1.726   9.084  17.976  0.00  0.00    +0.000 A 
ATOM     14  C   UNL     1       1.341   9.647  19.186  0.00  0.00    +0.000 A 
ATOM     15  C   UNL     1       1.361   8.872  20.345  0.00  0.00    +0.000 A 
ATOM     16  C   UNL     1       1.728   7.523  20.286  0.00  0.00    +0.000 A 
ENDBRANCH  10  11
BRANCH   7  17
ATOM     17  C   UNL     1       5.809   5.169  15.346  0.00  0.00    +0.000 C 
ATOM     18  C   UNL     1       7.273   5.152  15.812  0.00  0.00    +0.000 C 
ATOM     19  C   UNL     1       5.689   4.298  14.078  0.00  0.00    +0.000 C 
ATOM     20  C   UNL     1       5.405   6.603  14.977  0.00  0.00    +0.000 C 
ENDBRANCH   7  17
BRANCH   5  21
ATOM     21  O   UNL     1       4.035   1.318  17.980  0.00  0.00    +0.000 OA
ATOM     22  H   UNL     1       3.295   1.237  18.622  0.00  0.00    +0.000 HD
ENDBRANCH   5  21
TORSDOF 3
ENDMDL
MODEL 5
REMARK VINA RESULT:      -6.4      3.409      7.299
REMARK  Name = 
REMARK  7 active torsions:
REMARK  status: ('A' for Active; 'I' for Inactive)
REMARK    1  A    between atoms: C_1  and  C_2
REMARK    2  A    between atoms: C_5  and  O_6
REMARK    3  A    between atoms: C_8  and  C_9
REMARK    4  A    between atoms: C_9  and  C_10
REMARK    5  A    between atoms: C_9  and  C_11
REMARK    6  A    between atoms: C_9  and  C_12
REMARK    7  A    between atoms: C_15  and  C_16
REMARK                            x       y       z     vdW  Elec       q    Type
REMARK                         _______ _______ _______ _____ _____    ______ ____
ROOT
ATOM      1  C   UNL     1       0.714   4.066  20.719  0.00  0.00    +0.000 C 
ATOM      2  C   UNL     1       1.804   4.217  19.719  0.00  0.00    +0.000 A 
ATOM      3  N   UNL     1       2.399   3.119  19.239  0.00  0.00    +0.000 NA
ATOM      4  N   UNL     1       3.348   3.593  18.397  0.00  0.00    +0.000 N 
ATOM      5  C   UNL     1       4.245   2.820  17.651  0.00  0.00    +0.000 A 
ATOM      6  C   UNL     1       5.135   3.413  16.847  0.00  0.00    +0.000 A 
ATOM      7  C   UNL     1       5.089   4.916  16.806  0.00  0.00    +0.000 A 
ATOM      8  N   UNL     1       4.259   5.631  17.510  0.00  0.00    +0.000 NA
ATOM      9  C   UNL     1       3.366   4.981  18.326  0.00  0.00    +0.000 A 
ATOM     10  C   UNL     1       2.362   5.418  19.180  0.00  0.00    +0.000 A 
ENDROOT
BRANCH  10  11
ATOM     11  C   UNL     1       2.026   6.814  19.457  0.00  0.00    +0.000 A 
ATOM     12  C   UNL     1       2.034   7.764  18.424  0.00  0.00    +0.000 A 
ATOM     13  C   UNL     1       1.595   9.074  18.637  0.00  0.00    +0.000 A 
ATOM     14  C   UNL     1       1.186   9.469  19.904  0.00  0.00    +0.000 A 
ATOM     15  C   UNL     1       1.221   8.556  20.957  0.00  0.00    +0.000 A 
ATOM     16  C   UNL     1       1.630   7.236  20.733  0.00  0.00    +0.000 A 
ENDBRANCH  10  11
BRANCH   7  17
ATOM     17  C   UNL     1       6.079   5.650  15.857  0.00  0.00    +0.000 C 
ATOM     18  C   UNL     1       5.335   6.744  15.077  0.00  0.00    +0.000 C 
ATOM     19  C   UNL     1       7.205   6.313  16.678  0.00  0.00    +0.000 C 
ATOM     20  C   UNL     1       6.727   4.668  14.870  0.00  0.00    +0.000 C 
ENDBRANCH   7  17
BRANCH   5  21
ATOM     21  O   UNL     1       4.189   1.439  17.755  0.00  0.00    +0.000 OA
ATOM     22  H   UNL     1       5.122   1.153  17.868  0.00  0.00    +0.000 HD
ENDBRANCH   5  21
TORSDOF 3
ENDMDL
MODEL 6
REMARK VINA RESULT:      -6.2      4.986      8.192
REMARK  Name = 
REMARK  7 active torsions:
REMARK  status: ('A' for Active; 'I' for Inactive)
REMARK    1  A    between atoms: C_1  and  C_2
REMARK    2  A    between atoms: C_5  and  O_6
REMARK    3  A    between atoms: C_8  and  C_9
REMARK    4  A    between atoms: C_9  and  C_10
REMARK    5  A    between atoms: C_9  and  C_11
REMARK    6  A    between atoms: C_9  and  C_12
REMARK    7  A    between atoms: C_15  and  C_16
REMARK                            x       y       z     vdW  Elec       q    Type
REMARK                         _______ _______ _______ _____ _____    ______ ____
ROOT
ATOM      1  C   UNL     1       2.321  10.615  17.904  0.00  0.00    +0.000 C 
ATOM      2  C   UNL     1       2.437   9.175  18.258  0.00  0.00    +0.000 A 
ATOM      3  N   UNL     1       3.155   8.371  17.467  0.00  0.00    +0.000 NA
ATOM      4  N   UNL     1       3.033   7.147  18.037  0.00  0.00    +0.000 N 
ATOM      5  C   UNL     1       3.608   5.961  17.566  0.00  0.00    +0.000 A 
ATOM      6  C   UNL     1       3.417   4.814  18.227  0.00  0.00    +0.000 A 
ATOM      7  C   UNL     1       2.576   4.900  19.470  0.00  0.00    +0.000 A 
ATOM      8  N   UNL     1       2.035   6.005  19.898  0.00  0.00    +0.000 NA
ATOM      9  C   UNL     1       2.253   7.159  19.186  0.00  0.00    +0.000 A 
ATOM     10  C   UNL     1       1.850   8.476  19.358  0.00  0.00    +0.000 A 
ENDROOT
BRANCH  10  11
ATOM     11  C   UNL     1       0.982   8.969  20.427  0.00  0.00    +0.000 A 
ATOM     12  C   UNL     1       1.276   8.685  21.769  0.00  0.00    +0.000 A 
ATOM     13  C   UNL     1       0.536   9.248  22.811  0.00  0.00    +0.000 A 
ATOM     14  C   UNL     1      -0.547  10.070  22.526  0.00  0.00    +0.000 A 
ATOM     15  C   UNL     1      -0.891  10.322  21.199  0.00  0.00    +0.000 A 
ATOM     16  C   UNL     1      -0.127   9.783  20.157  0.00  0.00    +0.000 A 
ENDBRANCH  10  11
BRANCH   7  17
ATOM     17  C   UNL     1       2.356   3.599  20.293  0.00  0.00    +0.000 C 
ATOM     18  C   UNL     1       2.289   3.938  21.790  0.00  0.00    +0.000 C 
ATOM     19  C   UNL     1       1.026   2.932  19.883  0.00  0.00    +0.000 C 
ATOM     20  C   UNL     1       3.489   2.592  20.046  0.00  0.00    +0.000 C 
ENDBRANCH   7  17
BRANCH   5  21
ATOM     21  O   UNL     1       4.380   6.000  16.414  0.00  0.00    +0.000 OA
ATOM     22  H   UNL     1       3.760   6.271  15.701  0.00  0.00    +0.000 HD
ENDBRANCH   5  21
TORSDOF 3
ENDMDL
MODEL 7
REMARK VINA RESULT:      -6.2      4.081      7.461
REMARK  Name = 
REMARK  7 active torsions:
REMARK  status: ('A' for Active; 'I' for Inactive)
REMARK    1  A    between atoms: C_1  and  C_2
REMARK    2  A    between atoms: C_5  and  O_6
REMARK    3  A    between atoms: C_8  and  C_9
REMARK    4  A    between atoms: C_9  and  C_10
REMARK    5  A    between atoms: C_9  and  C_11
REMARK    6  A    between atoms: C_9  and  C_12
REMARK    7  A    between atoms: C_15  and  C_16
REMARK                            x       y       z     vdW  Elec       q    Type
REMARK                         _______ _______ _______ _____ _____    ______ ____
ROOT
ATOM      1  C   UNL     1       0.487   4.708  20.543  0.00  0.00    +0.000 C 
ATOM      2  C   UNL     1       1.852   4.882  19.978  0.00  0.00    +0.000 A 
ATOM      3  N   UNL     1       2.657   3.818  19.892  0.00  0.00    +0.000 NA
ATOM      4  N   UNL     1       3.810   4.312  19.380  0.00  0.00    +0.000 N 
ATOM      5  C   UNL     1       4.970   3.576  19.108  0.00  0.00    +0.000 A 
ATOM      6  C   UNL     1       6.045   4.184  18.595  0.00  0.00    +0.000 A 
ATOM      7  C   UNL     1       5.910   5.659  18.335  0.00  0.00    +0.000 A 
ATOM      8  N   UNL     1       4.831   6.340  18.599  0.00  0.00    +0.000 NA
ATOM      9  C   UNL     1       3.752   5.678  19.131  0.00  0.00    +0.000 A 
ATOM     10  C   UNL     1       2.479   6.079  19.511  0.00  0.00    +0.000 A 
ENDROOT
BRANCH  10  11
ATOM     11  C   UNL     1       1.965   7.447  19.458  0.00  0.00    +0.000 A 
ATOM     12  C   UNL     1       1.903   8.136  18.238  0.00  0.00    +0.000 A 
ATOM     13  C   UNL     1       1.302   9.394  18.141  0.00  0.00    +0.000 A 
ATOM     14  C   UNL     1       0.794  10.007  19.280  0.00  0.00    +0.000 A 
ATOM     15  C   UNL     1       0.895   9.364  20.512  0.00  0.00    +0.000 A 
ATOM     16  C   UNL     1       1.468   8.090  20.600  0.00  0.00    +0.000 A 
ENDBRANCH  10  11
BRANCH   7  17
ATOM     17  C   UNL     1       7.121   6.402  17.703  0.00  0.00    +0.000 C 
ATOM     18  C   UNL     1       8.266   6.488  18.724  0.00  0.00    +0.000 C 
ATOM     19  C   UNL     1       7.626   5.633  16.465  0.00  0.00    +0.000 C 
ATOM     20  C   UNL     1       6.727   7.817  17.256  0.00  0.00    +0.000 C 
ENDBRANCH   7  17
BRANCH   5  21
ATOM     21  O   UNL     1       4.979   2.215  19.374  0.00  0.00    +0.000 OA
ATOM     22  H   UNL     1       5.103   1.786  18.498  0.00  0.00    +0.000 HD
ENDBRANCH   5  21
TORSDOF 3
ENDMDL
MODEL 8
REMARK VINA RESULT:      -6.2      3.305      7.153
REMARK  Name = 
REMARK  7 active torsions:
REMARK  status: ('A' for Active; 'I' for Inactive)
REMARK    1  A    between atoms: C_1  and  C_2
REMARK    2  A    between atoms: C_5  and  O_6
REMARK    3  A    between atoms: C_8  and  C_9
REMARK    4  A    between atoms: C_9  and  C_10
REMARK    5  A    between atoms: C_9  and  C_11
REMARK    6  A    between atoms: C_9  and  C_12
REMARK    7  A    between atoms: C_15  and  C_16
REMARK                            x       y       z     vdW  Elec       q    Type
REMARK                         _______ _______ _______ _____ _____    ______ ____
ROOT
ATOM      1  C   UNL     1       0.874   4.008  20.869  0.00  0.00    +0.000 C 
ATOM      2  C   UNL     1       1.875   4.068  19.771  0.00  0.00    +0.000 A 
ATOM      3  N   UNL     1       2.465   2.937  19.370  0.00  0.00    +0.000 NA
ATOM      4  N   UNL     1       3.327   3.334  18.403  0.00  0.00    +0.000 N 
ATOM      5  C   UNL     1       4.187   2.501  17.677  0.00  0.00    +0.000 A 
ATOM      6  C   UNL     1       4.989   3.019  16.740  0.00  0.00    +0.000 A 
ATOM      7  C   UNL     1       4.891   4.505  16.532  0.00  0.00    +0.000 A 
ATOM      8  N   UNL     1       4.096   5.277  17.219  0.00  0.00    +0.000 NA
ATOM      9  C   UNL     1       3.293   4.704  18.174  0.00  0.00    +0.000 A 
ATOM     10  C   UNL     1       2.348   5.212  19.055  0.00  0.00    +0.000 A 
ENDROOT
BRANCH  10  11
ATOM     11  C   UNL     1       1.989   6.622  19.199  0.00  0.00    +0.000 A 
ATOM     12  C   UNL     1       1.630   7.139  20.454  0.00  0.00    +0.000 A 
ATOM     13  C   UNL     1       1.405   8.506  20.641  0.00  0.00    +0.000 A 
ATOM     14  C   UNL     1       1.488   9.375  19.560  0.00  0.00    +0.000 A 
ATOM     15  C   UNL     1       1.789   8.875  18.294  0.00  0.00    +0.000 A 
ATOM     16  C   UNL     1       2.046   7.511  18.117  0.00  0.00    +0.000 A 
ENDBRANCH  10  11
BRANCH   7  17
ATOM     17  C   UNL     1       5.777   5.148  15.428  0.00  0.00    +0.000 C 
ATOM     18  C   UNL     1       5.325   6.595  15.178  0.00  0.00    +0.000 C 
ATOM     19  C   UNL     1       7.252   5.166  15.878  0.00  0.00    +0.000 C 
ATOM     20  C   UNL     1       5.689   4.351  14.118  0.00  0.00    +0.000 C 
ENDBRANCH   7  17
BRANCH   5  21
ATOM     21  O   UNL     1       4.185   1.140  17.941  0.00  0.00    +0.000 OA
ATOM     22  H   UNL     1       3.290   0.830  17.675  0.00  0.00    +0.000 HD
ENDBRANCH   5  21
TORSDOF 3
ENDMDL
MODEL 9
REMARK VINA RESULT:      -6.1      4.069      7.441
REMARK  Name = 
REMARK  7 active torsions:
REMARK  status: ('A' for Active; 'I' for Inactive)
REMARK    1  A    between atoms: C_1  and  C_2
REMARK    2  A    between atoms: C_5  and  O_6
REMARK    3  A    between atoms: C_8  and  C_9
REMARK    4  A    between atoms: C_9  and  C_10
REMARK    5  A    between atoms: C_9  and  C_11
REMARK    6  A    between atoms: C_9  and  C_12
REMARK    7  A    between atoms: C_15  and  C_16
REMARK                            x       y       z     vdW  Elec       q    Type
REMARK                         _______ _______ _______ _____ _____    ______ ____
ROOT
ATOM      1  C   UNL     1       0.526   4.624  20.597  0.00  0.00    +0.000 C 
ATOM      2  C   UNL     1       1.881   4.823  20.016  0.00  0.00    +0.000 A 
ATOM      3  N   UNL     1       2.717   3.782  19.954  0.00  0.00    +0.000 NA
ATOM      4  N   UNL     1       3.851   4.295  19.419  0.00  0.00    +0.000 N 
ATOM      5  C   UNL     1       5.031   3.588  19.160  0.00  0.00    +0.000 A 
ATOM      6  C   UNL     1       6.084   4.212  18.620  0.00  0.00    +0.000 A 
ATOM      7  C   UNL     1       5.901   5.675  18.319  0.00  0.00    +0.000 A 
ATOM      8  N   UNL     1       4.804   6.331  18.572  0.00  0.00    +0.000 NA
ATOM      9  C   UNL     1       3.750   5.651  19.131  0.00  0.00    +0.000 A 
ATOM     10  C   UNL     1       2.468   6.025  19.510  0.00  0.00    +0.000 A 
ENDROOT
BRANCH  10  11
ATOM     11  C   UNL     1       1.913   7.375  19.422  0.00  0.00    +0.000 A 
ATOM     12  C   UNL     1       1.439   8.024  20.572  0.00  0.00    +0.000 A 
ATOM     13  C   UNL     1       1.021   9.356  20.536  0.00  0.00    +0.000 A 
ATOM     14  C   UNL     1       1.024  10.050  19.333  0.00  0.00    +0.000 A 
ATOM     15  C   UNL     1       1.440   9.408  18.168  0.00  0.00    +0.000 A 
ATOM     16  C   UNL     1       1.889   8.083  18.213  0.00  0.00    +0.000 A 
ENDBRANCH  10  11
BRANCH   7  17
ATOM     17  C   UNL     1       7.085   6.436  17.657  0.00  0.00    +0.000 C 
ATOM     18  C   UNL     1       7.589   5.648  16.438  0.00  0.00    +0.000 C 
ATOM     19  C   UNL     1       6.618   7.827  17.180  0.00  0.00    +0.000 C 
ATOM     20  C   UNL     1       8.238   6.635  18.651  0.00  0.00    +0.000 C 
ENDBRANCH   7  17
BRANCH   5  21
ATOM     21  O   UNL     1       5.083   2.236  19.464  0.00  0.00    +0.000 OA
ATOM     22  H   UNL     1       5.522   2.189  20.342  0.00  0.00    +0.000 HD
ENDBRANCH   5  21
TORSDOF 3
ENDMDL
