MODEL 1
REMARK VINA RESULT:      -8.7      0.000      0.000
REMARK  Name = 
REMARK  4 active torsions:
REMARK  status: ('A' for Active; 'I' for Inactive)
REMARK    1  A    between atoms: N_12  and  C_13
REMARK    2  A    between atoms: C_13  and  N_14
REMARK    3  A    between atoms: N_17  and  S_18
REMARK    4  A    between atoms: S_18  and  C_21
REMARK                            x       y       z     vdW  Elec       q    Type
REMARK                         _______ _______ _______ _____ _____    ______ ____
ROOT
ATOM      1  N   UNL     1       1.585   8.632  20.982  0.00  0.00    +0.000 NA
ATOM      2  C   UNL     1       1.007   9.418  19.872  0.00  0.00    +0.000 C 
ATOM      3  C   UNL     1      -0.503   9.713  19.986  0.00  0.00    +0.000 C 
ATOM      4  N   UNL     1      -0.877  10.341  21.292  0.00  0.00    +0.000 NA
ATOM      5  C   UNL     1      -0.249   9.653  22.461  0.00  0.00    +0.000 C 
ATOM      6  C   UNL     1       1.244   9.325  22.248  0.00  0.00    +0.000 C 
ENDROOT
BRANCH   4   7
ATOM      7  S   UNL     1      -0.887  12.045  21.350  0.00  0.00    +0.000 S 
ATOM      8  O   UNL     1       0.104  12.479  22.309  0.00  0.00    +0.000 OA
ATOM      9  O   UNL     1      -0.876  12.527  19.985  0.00  0.00    +0.000 OA
BRANCH   7  10
ATOM     10  C   UNL     1      -2.479  12.421  22.062  0.00  0.00    +0.000 A 
ATOM     11  C   UNL     1      -2.646  12.336  23.450  0.00  0.00    +0.000 A 
ATOM     12  C   UNL     1      -3.895  12.612  24.013  0.00  0.00    +0.000 A 
ATOM     13  C   UNL     1      -4.959  12.995  23.194  0.00  0.00    +0.000 A 
ATOM     14 CL   UNL     1      -6.500  13.319  23.886  0.00  0.00    +0.000 Cl
ATOM     15  C   UNL     1      -4.782  13.112  21.813  0.00  0.00    +0.000 A 
ATOM     16  C   UNL     1      -3.539  12.823  21.242  0.00  0.00    +0.000 A 
ENDBRANCH   7  10
ENDBRANCH   4   7
BRANCH   1  17
ATOM     17  C   UNL     1       1.140   7.227  20.985  0.00  0.00    +0.000 C 
BRANCH  17  29
ATOM     18  O   UNL     1       3.188   2.259  19.768  0.00  0.00    +0.000 OA
ATOM     19  C   UNL     1       3.430   3.235  19.073  0.00  0.00    +0.000 A 
ATOM     20  O   UNL     1       4.140   3.115  17.859  0.00  0.00    +0.000 OA
ATOM     21  C   UNL     1       4.518   4.246  17.083  0.00  0.00    +0.000 A 
ATOM     22  C   UNL     1       5.401   3.992  16.035  0.00  0.00    +0.000 A 
ATOM     23  C   UNL     1       5.882   5.063  15.286  0.00  0.00    +0.000 A 
ATOM     24  C   UNL     1       5.451   6.362  15.574  0.00  0.00    +0.000 A 
ATOM     25  C   UNL     1       4.542   6.609  16.614  0.00  0.00    +0.000 A 
ATOM     26  C   UNL     1       4.079   5.549  17.391  0.00  0.00    +0.000 A 
ATOM     27  C   UNL     1       3.244   5.691  18.574  0.00  0.00    +0.000 A 
ATOM     28  N   UNL     1       2.652   6.799  19.056  0.00  0.00    +0.000 NA
ATOM     29  N   UNL     1       2.079   6.376  20.226  0.00  0.00    +0.000 N 
ATOM     30  C   UNL     1       2.306   5.046  20.477  0.00  0.00    +0.000 A 
ATOM     31  C   UNL     1       2.996   4.571  19.389  0.00  0.00    +0.000 A 
ENDBRANCH  17  29
ENDBRANCH   1  17
TORSDOF 4
ENDMDL
MODEL 2
REMARK VINA RESULT:      -8.5      1.651      2.754
REMARK  Name = 
REMARK  4 active torsions:
REMARK  status: ('A' for Active; 'I' for Inactive)
REMARK    1  A    between atoms: N_12  and  C_13
REMARK    2  A    between atoms: C_13  and  N_14
REMARK    3  A    between atoms: N_17  and  S_18
REMARK    4  A    between atoms: S_18  and  C_21
REMARK                            x       y       z     vdW  Elec       q    Type
REMARK                         _______ _______ _______ _____ _____    ______ ____
ROOT
ATOM      1  N   UNL     1       1.639  10.134  19.375  0.00  0.00    +0.000 NA
ATOM      2  C   UNL     1       1.243  11.555  19.456  0.00  0.00    +0.000 C 
ATOM      3  C   UNL     1      -0.265  11.812  19.656  0.00  0.00    +0.000 C 
ATOM      4  N   UNL     1      -0.833  11.067  20.823  0.00  0.00    +0.000 NA
ATOM      5  C   UNL     1      -0.396   9.638  20.861  0.00  0.00    +0.000 C 
ATOM      6  C   UNL     1       1.111   9.452  20.581  0.00  0.00    +0.000 C 
ENDROOT
BRANCH   4   7
ATOM      7  S   UNL     1      -0.843  11.880  22.322  0.00  0.00    +0.000 S 
ATOM      8  O   UNL     1      -0.550  10.923  23.367  0.00  0.00    +0.000 OA
ATOM      9  O   UNL     1      -0.063  13.089  22.167  0.00  0.00    +0.000 OA
BRANCH   7  10
ATOM     10  C   UNL     1      -2.555  12.341  22.526  0.00  0.00    +0.000 A 
ATOM     11  C   UNL     1      -3.119  12.336  23.807  0.00  0.00    +0.000 A 
ATOM     12  C   UNL     1      -4.463  12.680  23.972  0.00  0.00    +0.000 A 
ATOM     13  C   UNL     1      -5.228  13.051  22.863  0.00  0.00    +0.000 A 
ATOM     14 CL   UNL     1      -6.887  13.458  23.064  0.00  0.00    +0.000 Cl
ATOM     15  C   UNL     1      -4.655  13.089  21.590  0.00  0.00    +0.000 A 
ATOM     16  C   UNL     1      -3.314  12.732  21.417  0.00  0.00    +0.000 A 
ENDBRANCH   7  10
ENDBRANCH   4   7
BRANCH   1  17
ATOM     17  C   UNL     1       1.192   9.482  18.132  0.00  0.00    +0.000 C 
BRANCH  17  29
ATOM     18  O   UNL     1       6.017   6.981  17.223  0.00  0.00    +0.000 OA
ATOM     19  C   UNL     1       5.010   6.343  17.493  0.00  0.00    +0.000 A 
ATOM     20  O   UNL     1       5.058   4.949  17.709  0.00  0.00    +0.000 OA
ATOM     21  C   UNL     1       3.888   4.170  17.928  0.00  0.00    +0.000 A 
ATOM     22  C   UNL     1       4.068   2.788  17.902  0.00  0.00    +0.000 A 
ATOM     23  C   UNL     1       2.953   1.962  18.024  0.00  0.00    +0.000 A 
ATOM     24  C   UNL     1       1.686   2.528  18.200  0.00  0.00    +0.000 A 
ATOM     25  C   UNL     1       1.514   3.920  18.250  0.00  0.00    +0.000 A 
ATOM     26  C   UNL     1       2.618   4.756  18.098  0.00  0.00    +0.000 A 
ATOM     27  C   UNL     1       2.552   6.206  17.999  0.00  0.00    +0.000 A 
ATOM     28  N   UNL     1       1.489   7.012  18.173  0.00  0.00    +0.000 NA
ATOM     29  N   UNL     1       1.973   8.256  17.869  0.00  0.00    +0.000 N 
ATOM     30  C   UNL     1       3.298   8.237  17.510  0.00  0.00    +0.000 A 
ATOM     31  C   UNL     1       3.706   6.933  17.655  0.00  0.00    +0.000 A 
ENDBRANCH  17  29
ENDBRANCH   1  17
TORSDOF 4
ENDMDL
MODEL 3
REMARK VINA RESULT:      -8.4      1.530      1.817
REMARK  Name = 
REMARK  4 active torsions:
REMARK  status: ('A' for Active; 'I' for Inactive)
REMARK    1  A    between atoms: N_12  and  C_13
REMARK    2  A    between atoms: C_13  and  N_14
REMARK    3  A    between atoms: N_17  and  S_18
REMARK    4  A    between atoms: S_18  and  C_21
REMARK                            x       y       z     vdW  Elec       q    Type
REMARK                         _______ _______ _______ _____ _____    ______ ____
ROOT
ATOM      1  N   UNL     1       1.257  10.759  19.380  0.00  0.00    +0.000 NA
ATOM      2  C   UNL     1       0.557  12.015  19.040  0.00  0.00    +0.000 C 
ATOM      3  C   UNL     1      -0.951  12.041  19.364  0.00  0.00    +0.000 C 
ATOM      4  N   UNL     1      -1.247  11.672  20.784  0.00  0.00    +0.000 NA
ATOM      5  C   UNL     1      -0.497  10.459  21.231  0.00  0.00    +0.000 C 
ATOM      6  C   UNL     1       0.987  10.468  20.808  0.00  0.00    +0.000 C 
ENDROOT
BRANCH   4   7
ATOM      7  S   UNL     1      -1.330  12.950  21.910  0.00  0.00    +0.000 S 
ATOM      8  O   UNL     1      -0.506  12.614  23.049  0.00  0.00    +0.000 OA
ATOM      9  O   UNL     1      -1.139  14.186  21.180  0.00  0.00    +0.000 OA
BRANCH   7  10
ATOM     10  C   UNL     1      -3.022  12.891  22.473  0.00  0.00    +0.000 A 
ATOM     11  C   UNL     1      -3.284  12.807  23.846  0.00  0.00    +0.000 A 
ATOM     12  C   UNL     1      -4.607  12.742  24.294  0.00  0.00    +0.000 A 
ATOM     13  C   UNL     1      -5.656  12.787  23.373  0.00  0.00    +0.000 A 
ATOM     14 CL   UNL     1      -7.283  12.691  23.924  0.00  0.00    +0.000 Cl
ATOM     15  C   UNL     1      -5.394  12.905  22.007  0.00  0.00    +0.000 A 
ATOM     16  C   UNL     1      -4.072  12.955  21.552  0.00  0.00    +0.000 A 
ENDBRANCH   7  10
ENDBRANCH   4   7
BRANCH   1  17
ATOM     17  C   UNL     1       0.878   9.634  18.507  0.00  0.00    +0.000 C 
BRANCH  17  29
ATOM     18  O   UNL     1       2.459   4.965  20.969  0.00  0.00    +0.000 OA
ATOM     19  C   UNL     1       2.965   5.334  19.918  0.00  0.00    +0.000 A 
ATOM     20  O   UNL     1       3.887   4.525  19.222  0.00  0.00    +0.000 OA
ATOM     21  C   UNL     1       4.563   4.972  18.052  0.00  0.00    +0.000 A 
ATOM     22  C   UNL     1       5.601   4.156  17.605  0.00  0.00    +0.000 A 
ATOM     23  C   UNL     1       6.362   4.573  16.516  0.00  0.00    +0.000 A 
ATOM     24  C   UNL     1       6.056   5.778  15.874  0.00  0.00    +0.000 A 
ATOM     25  C   UNL     1       4.993   6.583  16.314  0.00  0.00    +0.000 A 
ATOM     26  C   UNL     1       4.245   6.191  17.422  0.00  0.00    +0.000 A 
ATOM     27  C   UNL     1       3.211   6.998  18.051  0.00  0.00    +0.000 A 
ATOM     28  N   UNL     1       2.684   8.163  17.632  0.00  0.00    +0.000 NA
ATOM     29  N   UNL     1       1.832   8.515  18.645  0.00  0.00    +0.000 N 
ATOM     30  C   UNL     1       1.825   7.605  19.673  0.00  0.00    +0.000 A 
ATOM     31  C   UNL     1       2.655   6.585  19.276  0.00  0.00    +0.000 A 
ENDBRANCH  17  29
ENDBRANCH   1  17
TORSDOF 4
ENDMDL
MODEL 4
REMARK VINA RESULT:      -8.3      4.605     10.355
REMARK  Name = 
REMARK  4 active torsions:
REMARK  status: ('A' for Active; 'I' for Inactive)
REMARK    1  A    between atoms: N_12  and  C_13
REMARK    2  A    between atoms: C_13  and  N_14
REMARK    3  A    between atoms: N_17  and  S_18
REMARK    4  A    between atoms: S_18  and  C_21
REMARK                            x       y       z     vdW  Elec       q    Type
REMARK                         _______ _______ _______ _____ _____    ______ ____
ROOT
ATOM      1  N   UNL     1       2.324   7.498  17.901  0.00  0.00    +0.000 NA
ATOM      2  C   UNL     1       3.605   7.176  17.239  0.00  0.00    +0.000 C 
ATOM      3  C   UNL     1       4.737   6.713  18.180  0.00  0.00    +0.000 C 
ATOM      4  N   UNL     1       4.331   5.576  19.063  0.00  0.00    +0.000 NA
ATOM      5  C   UNL     1       2.994   5.789  19.696  0.00  0.00    +0.000 C 
ATOM      6  C   UNL     1       1.930   6.322  18.713  0.00  0.00    +0.000 C 
ENDROOT
BRANCH   4   7
ATOM      7  S   UNL     1       4.635   4.002  18.480  0.00  0.00    +0.000 S 
ATOM      8  O   UNL     1       5.575   3.355  19.368  0.00  0.00    +0.000 OA
ATOM      9  O   UNL     1       3.356   3.400  18.168  0.00  0.00    +0.000 OA
BRANCH   7  10
ATOM     10  C   UNL     1       5.503   4.293  16.949  0.00  0.00    +0.000 A 
ATOM     11  C   UNL     1       6.855   4.655  16.986  0.00  0.00    +0.000 A 
ATOM     12  C   UNL     1       7.537   4.902  15.791  0.00  0.00    +0.000 A 
ATOM     13  C   UNL     1       6.875   4.762  14.570  0.00  0.00    +0.000 A 
ATOM     14 CL   UNL     1       7.710   5.081  13.100  0.00  0.00    +0.000 Cl
ATOM     15  C   UNL     1       5.536   4.367  14.533  0.00  0.00    +0.000 A 
ATOM     16  C   UNL     1       4.844   4.133  15.725  0.00  0.00    +0.000 A 
ENDBRANCH   7  10
ENDBRANCH   4   7
BRANCH   1  17
ATOM     17  C   UNL     1       2.386   8.729  18.708  0.00  0.00    +0.000 C 
BRANCH  17  29
ATOM     18  O   UNL     1      -1.146  11.960  21.438  0.00  0.00    +0.000 OA
ATOM     19  C   UNL     1      -1.386  11.569  20.304  0.00  0.00    +0.000 A 
ATOM     20  O   UNL     1      -2.516  12.025  19.593  0.00  0.00    +0.000 OA
ATOM     21  C   UNL     1      -2.870  11.512  18.314  0.00  0.00    +0.000 A 
ATOM     22  C   UNL     1      -4.124  11.891  17.836  0.00  0.00    +0.000 A 
ATOM     23  C   UNL     1      -4.573  11.359  16.630  0.00  0.00    +0.000 A 
ATOM     24  C   UNL     1      -3.753  10.485  15.908  0.00  0.00    +0.000 A 
ATOM     25  C   UNL     1      -2.482  10.127  16.382  0.00  0.00    +0.000 A 
ATOM     26  C   UNL     1      -2.035  10.628  17.603  0.00  0.00    +0.000 A 
ATOM     27  C   UNL     1      -0.800  10.229  18.260  0.00  0.00    +0.000 A 
ATOM     28  N   UNL     1       0.189   9.449  17.787  0.00  0.00    +0.000 NA
ATOM     29  N   UNL     1       1.046   9.334  18.850  0.00  0.00    +0.000 N 
ATOM     30  C   UNL     1       0.609  10.014  19.959  0.00  0.00    +0.000 A 
ATOM     31  C   UNL     1      -0.544  10.655  19.577  0.00  0.00    +0.000 A 
ENDBRANCH  17  29
ENDBRANCH   1  17
TORSDOF 4
ENDMDL
MODEL 5
REMARK VINA RESULT:      -8.0      1.967      3.321
REMARK  Name = 
REMARK  4 active torsions:
REMARK  status: ('A' for Active; 'I' for Inactive)
REMARK    1  A    between atoms: N_12  and  C_13
REMARK    2  A    between atoms: C_13  and  N_14
REMARK    3  A    between atoms: N_17  and  S_18
REMARK    4  A    between atoms: S_18  and  C_21
REMARK                            x       y       z     vdW  Elec       q    Type
REMARK                         _______ _______ _______ _____ _____    ______ ____
ROOT
ATOM      1  N   UNL     1       0.981  10.757  20.195  0.00  0.00    +0.000 NA
ATOM      2  C   UNL     1       1.541  12.123  20.263  0.00  0.00    +0.000 C 
ATOM      3  C   UNL     1       0.614  13.245  19.751  0.00  0.00    +0.000 C 
ATOM      4  N   UNL     1      -0.736  13.224  20.396  0.00  0.00    +0.000 NA
ATOM      5  C   UNL     1      -1.328  11.852  20.449  0.00  0.00    +0.000 C 
ATOM      6  C   UNL     1      -0.323  10.771  20.900  0.00  0.00    +0.000 C 
ENDROOT
BRANCH   4   7
ATOM      7  S   UNL     1      -0.932  14.172  21.800  0.00  0.00    +0.000 S 
ATOM      8  O   UNL     1      -0.017  13.690  22.811  0.00  0.00    +0.000 OA
ATOM      9  O   UNL     1      -0.939  15.561  21.391  0.00  0.00    +0.000 OA
BRANCH   7  10
ATOM     10  C   UNL     1      -2.572  13.745  22.357  0.00  0.00    +0.000 A 
ATOM     11  C   UNL     1      -2.722  12.913  23.473  0.00  0.00    +0.000 A 
ATOM     12  C   UNL     1      -4.004  12.560  23.904  0.00  0.00    +0.000 A 
ATOM     13  C   UNL     1      -5.125  13.060  23.238  0.00  0.00    +0.000 A 
ATOM     14 CL   UNL     1      -6.702  12.613  23.759  0.00  0.00    +0.000 Cl
ATOM     15  C   UNL     1      -4.974  13.918  22.146  0.00  0.00    +0.000 A 
ATOM     16  C   UNL     1      -3.694  14.263  21.701  0.00  0.00    +0.000 A 
ENDBRANCH   7  10
ENDBRANCH   4   7
BRANCH   1  17
ATOM     17  C   UNL     1       0.857  10.255  18.815  0.00  0.00    +0.000 C 
BRANCH  17  29
ATOM     18  O   UNL     1       4.665   6.995  16.528  0.00  0.00    +0.000 OA
ATOM     19  C   UNL     1       4.037   6.643  17.517  0.00  0.00    +0.000 A 
ATOM     20  O   UNL     1       4.342   5.444  18.194  0.00  0.00    +0.000 OA
ATOM     21  C   UNL     1       3.565   4.966  19.286  0.00  0.00    +0.000 A 
ATOM     22  C   UNL     1       3.849   3.668  19.708  0.00  0.00    +0.000 A 
ATOM     23  C   UNL     1       3.070   3.103  20.715  0.00  0.00    +0.000 A 
ATOM     24  C   UNL     1       2.046   3.852  21.305  0.00  0.00    +0.000 A 
ATOM     25  C   UNL     1       1.781   5.167  20.893  0.00  0.00    +0.000 A 
ATOM     26  C   UNL     1       2.533   5.732  19.864  0.00  0.00    +0.000 A 
ATOM     27  C   UNL     1       2.270   7.029  19.262  0.00  0.00    +0.000 A 
ATOM     28  N   UNL     1       1.390   7.971  19.647  0.00  0.00    +0.000 NA
ATOM     29  N   UNL     1       1.499   8.932  18.677  0.00  0.00    +0.000 N 
ATOM     30  C   UNL     1       2.414   8.605  17.707  0.00  0.00    +0.000 A 
ATOM     31  C   UNL     1       2.972   7.414  18.105  0.00  0.00    +0.000 A 
ENDBRANCH  17  29
ENDBRANCH   1  17
TORSDOF 4
ENDMDL
MODEL 6
REMARK VINA RESULT:      -8.0      1.216      1.476
REMARK  Name = 
REMARK  4 active torsions:
REMARK  status: ('A' for Active; 'I' for Inactive)
REMARK    1  A    between atoms: N_12  and  C_13
REMARK    2  A    between atoms: C_13  and  N_14
REMARK    3  A    between atoms: N_17  and  S_18
REMARK    4  A    between atoms: S_18  and  C_21
REMARK                            x       y       z     vdW  Elec       q    Type
REMARK                         _______ _______ _______ _____ _____    ______ ____
ROOT
ATOM      1  N   UNL     1       0.426   9.360  20.142  0.00  0.00    +0.000 NA
ATOM      2  C   UNL     1      -0.865   9.733  20.757  0.00  0.00    +0.000 C 
ATOM      3  C   UNL     1      -0.789  10.829  21.840  0.00  0.00    +0.000 C 
ATOM      4  N   UNL     1      -0.082  12.062  21.371  0.00  0.00    +0.000 NA
ATOM      5  C   UNL     1       1.192  11.757  20.652  0.00  0.00    +0.000 C 
ATOM      6  C   UNL     1       1.059  10.601  19.637  0.00  0.00    +0.000 C 
ENDROOT
BRANCH   4   7
ATOM      7  S   UNL     1      -1.048  13.287  20.682  0.00  0.00    +0.000 S 
ATOM      8  O   UNL     1      -0.446  14.569  20.977  0.00  0.00    +0.000 OA
ATOM      9  O   UNL     1      -1.350  12.891  19.323  0.00  0.00    +0.000 OA
BRANCH   7  10
ATOM     10  C   UNL     1      -2.555  13.205  21.635  0.00  0.00    +0.000 A 
ATOM     11  C   UNL     1      -2.540  13.604  22.977  0.00  0.00    +0.000 A 
ATOM     12  C   UNL     1      -3.712  13.526  23.734  0.00  0.00    +0.000 A 
ATOM     13  C   UNL     1      -4.894  13.076  23.142  0.00  0.00    +0.000 A 
ATOM     14 CL   UNL     1      -6.333  12.965  24.078  0.00  0.00    +0.000 Cl
ATOM     15  C   UNL     1      -4.916  12.711  21.794  0.00  0.00    +0.000 A 
ATOM     16  C   UNL     1      -3.743  12.773  21.035  0.00  0.00    +0.000 A 
ENDBRANCH   7  10
ENDBRANCH   4   7
BRANCH   1  17
ATOM     17  C   UNL     1       1.311   8.625  21.063  0.00  0.00    +0.000 C 
BRANCH  17  29
ATOM     18  O   UNL     1       1.453   3.199  20.114  0.00  0.00    +0.000 OA
ATOM     19  C   UNL     1       2.078   3.984  19.415  0.00  0.00    +0.000 A 
ATOM     20  O   UNL     1       2.762   3.555  18.259  0.00  0.00    +0.000 OA
ATOM     21  C   UNL     1       3.574   4.430  17.485  0.00  0.00    +0.000 A 
ATOM     22  C   UNL     1       4.361   3.820  16.508  0.00  0.00    +0.000 A 
ATOM     23  C   UNL     1       5.245   4.603  15.770  0.00  0.00    +0.000 A 
ATOM     24  C   UNL     1       5.305   5.982  15.996  0.00  0.00    +0.000 A 
ATOM     25  C   UNL     1       4.493   6.595  16.963  0.00  0.00    +0.000 A 
ATOM     26  C   UNL     1       3.628   5.816  17.730  0.00  0.00    +0.000 A 
ATOM     27  C   UNL     1       2.838   6.311  18.846  0.00  0.00    +0.000 A 
ATOM     28  N   UNL     1       2.668   7.580  19.258  0.00  0.00    +0.000 NA
ATOM     29  N   UNL     1       1.913   7.454  20.393  0.00  0.00    +0.000 N 
ATOM     30  C   UNL     1       1.619   6.147  20.692  0.00  0.00    +0.000 A 
ATOM     31  C   UNL     1       2.148   5.400  19.667  0.00  0.00    +0.000 A 
ENDBRANCH  17  29
ENDBRANCH   1  17
TORSDOF 4
ENDMDL
MODEL 7
REMARK VINA RESULT:      -7.9      1.854      3.249
REMARK  Name = 
REMARK  4 active torsions:
REMARK  status: ('A' for Active; 'I' for Inactive)
REMARK    1  A    between atoms: N_12  and  C_13
REMARK    2  A    between atoms: C_13  and  N_14
REMARK    3  A    between atoms: N_17  and  S_18
REMARK    4  A    between atoms: S_18  and  C_21
REMARK                            x       y       z     vdW  Elec       q    Type
REMARK                         _______ _______ _______ _____ _____    ______ ____
ROOT
ATOM      1  N   UNL     1       1.879   9.977  17.715  0.00  0.00    +0.000 NA
ATOM      2  C   UNL     1       0.515   9.556  18.101  0.00  0.00    +0.000 C 
ATOM      3  C   UNL     1       0.054  10.013  19.501  0.00  0.00    +0.000 C 
ATOM      4  N   UNL     1       0.202  11.487  19.710  0.00  0.00    +0.000 NA
ATOM      5  C   UNL     1       1.528  12.003  19.252  0.00  0.00    +0.000 C 
ATOM      6  C   UNL     1       1.958  11.448  17.878  0.00  0.00    +0.000 C 
ENDROOT
BRANCH   4   7
ATOM      7  S   UNL     1      -1.147  12.457  19.324  0.00  0.00    +0.000 S 
ATOM      8  O   UNL     1      -0.693  13.814  19.116  0.00  0.00    +0.000 OA
ATOM      9  O   UNL     1      -1.913  11.756  18.315  0.00  0.00    +0.000 OA
BRANCH   7  10
ATOM     10  C   UNL     1      -2.092  12.466  20.837  0.00  0.00    +0.000 A 
ATOM     11  C   UNL     1      -1.452  12.167  22.047  0.00  0.00    +0.000 A 
ATOM     12  C   UNL     1      -2.190  12.154  23.233  0.00  0.00    +0.000 A 
ATOM     13  C   UNL     1      -3.552  12.465  23.210  0.00  0.00    +0.000 A 
ATOM     14 CL   UNL     1      -4.463  12.434  24.669  0.00  0.00    +0.000 Cl
ATOM     15  C   UNL     1      -4.181  12.796  22.008  0.00  0.00    +0.000 A 
ATOM     16  C   UNL     1      -3.451  12.796  20.815  0.00  0.00    +0.000 A 
ENDBRANCH   7  10
ENDBRANCH   4   7
BRANCH   1  17
ATOM     17  C   UNL     1       2.932   9.280  18.474  0.00  0.00    +0.000 C 
BRANCH  17  29
ATOM     18  O   UNL     1       5.583   5.187  15.910  0.00  0.00    +0.000 OA
ATOM     19  C   UNL     1       4.659   4.963  16.679  0.00  0.00    +0.000 A 
ATOM     20  O   UNL     1       4.309   3.647  17.045  0.00  0.00    +0.000 OA
ATOM     21  C   UNL     1       3.179   3.357  17.860  0.00  0.00    +0.000 A 
ATOM     22  C   UNL     1       2.829   2.010  17.952  0.00  0.00    +0.000 A 
ATOM     23  C   UNL     1       1.684   1.660  18.663  0.00  0.00    +0.000 A 
ATOM     24  C   UNL     1       0.927   2.653  19.294  0.00  0.00    +0.000 A 
ATOM     25  C   UNL     1       1.298   4.005  19.218  0.00  0.00    +0.000 A 
ATOM     26  C   UNL     1       2.424   4.370  18.483  0.00  0.00    +0.000 A 
ATOM     27  C   UNL     1       2.833   5.741  18.221  0.00  0.00    +0.000 A 
ATOM     28  N   UNL     1       2.327   6.880  18.727  0.00  0.00    +0.000 NA
ATOM     29  N   UNL     1       3.021   7.862  18.071  0.00  0.00    +0.000 N 
ATOM     30  C   UNL     1       3.932   7.360  17.176  0.00  0.00    +0.000 A 
ATOM     31  C   UNL     1       3.875   5.993  17.309  0.00  0.00    +0.000 A 
ENDBRANCH  17  29
ENDBRANCH   1  17
TORSDOF 4
ENDMDL
MODEL 8
REMARK VINA RESULT:      -7.9      1.636      2.866
REMARK  Name = 
REMARK  4 active torsions:
REMARK  status: ('A' for Active; 'I' for Inactive)
REMARK    1  A    between atoms: N_12  and  C_13
REMARK    2  A    between atoms: C_13  and  N_14
REMARK    3  A    between atoms: N_17  and  S_18
REMARK    4  A    between atoms: S_18  and  C_21
REMARK                            x       y       z     vdW  Elec       q    Type
REMARK                         _______ _______ _______ _____ _____    ______ ____
ROOT
ATOM      1  N   UNL     1       0.724   9.855  19.280  0.00  0.00    +0.000 NA
ATOM      2  C   UNL     1      -0.610  10.028  19.894  0.00  0.00    +0.000 C 
ATOM      3  C   UNL     1      -0.645  10.911  21.159  0.00  0.00    +0.000 C 
ATOM      4  N   UNL     1      -0.012  12.250  20.952  0.00  0.00    +0.000 NA
ATOM      5  C   UNL     1       1.303  12.162  20.246  0.00  0.00    +0.000 C 
ATOM      6  C   UNL     1       1.283  11.206  19.035  0.00  0.00    +0.000 C 
ENDROOT
BRANCH   4   7
ATOM      7  S   UNL     1      -1.038  13.518  20.453  0.00  0.00    +0.000 S 
ATOM      8  O   UNL     1      -0.439  14.775  20.840  0.00  0.00    +0.000 OA
ATOM      9  O   UNL     1      -1.419  13.255  19.081  0.00  0.00    +0.000 OA
BRANCH   7  10
ATOM     10  C   UNL     1      -2.480  13.306  21.482  0.00  0.00    +0.000 A 
ATOM     11  C   UNL     1      -2.375  13.519  22.862  0.00  0.00    +0.000 A 
ATOM     12  C   UNL     1      -3.496  13.338  23.677  0.00  0.00    +0.000 A 
ATOM     13  C   UNL     1      -4.718  12.971  23.109  0.00  0.00    +0.000 A 
ATOM     14 CL   UNL     1      -6.093  12.733  24.113  0.00  0.00    +0.000 Cl
ATOM     15  C   UNL     1      -4.830  12.792  21.728  0.00  0.00    +0.000 A 
ATOM     16  C   UNL     1      -3.708  12.958  20.909  0.00  0.00    +0.000 A 
ENDBRANCH   7  10
ENDBRANCH   4   7
BRANCH   1  17
ATOM     17  C   UNL     1       1.627   9.022  20.091  0.00  0.00    +0.000 C 
BRANCH  17  29
ATOM     18  O   UNL     1       4.892   6.784  16.257  0.00  0.00    +0.000 OA
ATOM     19  C   UNL     1       4.265   6.089  17.044  0.00  0.00    +0.000 A 
ATOM     20  O   UNL     1       4.442   4.690  17.092  0.00  0.00    +0.000 OA
ATOM     21  C   UNL     1       3.656   3.851  17.930  0.00  0.00    +0.000 A 
ATOM     22  C   UNL     1       3.789   2.480  17.708  0.00  0.00    +0.000 A 
ATOM     23  C   UNL     1       2.987   1.601  18.431  0.00  0.00    +0.000 A 
ATOM     24  C   UNL     1       2.092   2.101  19.383  0.00  0.00    +0.000 A 
ATOM     25  C   UNL     1       1.980   3.480  19.620  0.00  0.00    +0.000 A 
ATOM     26  C   UNL     1       2.755   4.371  18.879  0.00  0.00    +0.000 A 
ATOM     27  C   UNL     1       2.635   5.819  18.938  0.00  0.00    +0.000 A 
ATOM     28  N   UNL     1       1.899   6.568  19.779  0.00  0.00    +0.000 NA
ATOM     29  N   UNL     1       2.089   7.846  19.325  0.00  0.00    +0.000 N 
ATOM     30  C   UNL     1       2.914   7.902  18.230  0.00  0.00    +0.000 A 
ATOM     31  C   UNL     1       3.332   6.612  18.008  0.00  0.00    +0.000 A 
ENDBRANCH  17  29
ENDBRANCH   1  17
TORSDOF 4
ENDMDL
MODEL 9
REMARK VINA RESULT:      -7.9      1.369      1.882
REMARK  Name = 
REMARK  4 active torsions:
REMARK  status: ('A' for Active; 'I' for Inactive)
REMARK    1  A    between atoms: N_12  and  C_13
REMARK    2  A    between atoms: C_13  and  N_14
REMARK    3  A    between atoms: N_17  and  S_18
REMARK    4  A    between atoms: S_18  and  C_21
REMARK                            x       y       z     vdW  Elec       q    Type
REMARK                         _______ _______ _______ _____ _____    ______ ____
ROOT
ATOM      1  N   UNL     1       0.650   9.484  19.497  0.00  0.00    +0.000 NA
ATOM      2  C   UNL     1      -0.743   9.770  19.899  0.00  0.00    +0.000 C 
ATOM      3  C   UNL     1      -0.906  10.832  21.007  0.00  0.00    +0.000 C 
ATOM      4  N   UNL     1      -0.203  12.115  20.691  0.00  0.00    +0.000 NA
ATOM      5  C   UNL     1       1.187  11.899  20.184  0.00  0.00    +0.000 C 
ATOM      6  C   UNL     1       1.286  10.772  19.133  0.00  0.00    +0.000 C 
ENDROOT
BRANCH   4   7
ATOM      7  S   UNL     1      -1.110  13.311  19.883  0.00  0.00    +0.000 S 
ATOM      8  O   UNL     1      -0.647  14.611  20.315  0.00  0.00    +0.000 OA
ATOM      9  O   UNL     1      -1.150  12.953  18.480  0.00  0.00    +0.000 OA
BRANCH   7  10
ATOM     10  C   UNL     1      -2.749  13.108  20.558  0.00  0.00    +0.000 A 
ATOM     11  C   UNL     1      -3.769  12.601  19.742  0.00  0.00    +0.000 A 
ATOM     12  C   UNL     1      -5.059  12.456  20.259  0.00  0.00    +0.000 A 
ATOM     13  C   UNL     1      -5.317  12.791  21.590  0.00  0.00    +0.000 A 
ATOM     14 CL   UNL     1      -6.909  12.626  22.222  0.00  0.00    +0.000 Cl
ATOM     15  C   UNL     1      -4.292  13.263  22.413  0.00  0.00    +0.000 A 
ATOM     16  C   UNL     1      -3.002  13.425  21.897  0.00  0.00    +0.000 A 
ENDBRANCH   7  10
ENDBRANCH   4   7
BRANCH   1  17
ATOM     17  C   UNL     1       1.412   8.765  20.532  0.00  0.00    +0.000 C 
BRANCH  17  29
ATOM     18  O   UNL     1       1.970   3.298  20.126  0.00  0.00    +0.000 OA
ATOM     19  C   UNL     1       2.510   4.054  19.331  0.00  0.00    +0.000 A 
ATOM     20  O   UNL     1       3.196   3.564  18.200  0.00  0.00    +0.000 OA
ATOM     21  C   UNL     1       3.913   4.416  17.314  0.00  0.00    +0.000 A 
ATOM     22  C   UNL     1       4.720   3.772  16.377  0.00  0.00    +0.000 A 
ATOM     23  C   UNL     1       5.517   4.543  15.534  0.00  0.00    +0.000 A 
ATOM     24  C   UNL     1       5.471   5.938  15.618  0.00  0.00    +0.000 A 
ATOM     25  C   UNL     1       4.638   6.581  16.547  0.00  0.00    +0.000 A 
ATOM     26  C   UNL     1       3.860   5.820  17.417  0.00  0.00    +0.000 A 
ATOM     27  C   UNL     1       3.062   6.363  18.505  0.00  0.00    +0.000 A 
ATOM     28  N   UNL     1       2.801   7.650  18.794  0.00  0.00    +0.000 NA
ATOM     29  N   UNL     1       2.089   7.582  19.962  0.00  0.00    +0.000 N 
ATOM     30  C   UNL     1       1.911   6.294  20.400  0.00  0.00    +0.000 A 
ATOM     31  C   UNL     1       2.471   5.490  19.437  0.00  0.00    +0.000 A 
ENDBRANCH  17  29
ENDBRANCH   1  17
TORSDOF 4
ENDMDL
