MODEL 1
REMARK VINA RESULT:      -6.6      0.000      0.000
REMARK  Name = 
REMARK  6 active torsions:
REMARK  status: ('A' for Active; 'I' for Inactive)
REMARK    1  A    between atoms: C_1  and  C_2
REMARK    2  A    between atoms: C_2  and  C_3
REMARK    3  A    between atoms: C_3  and  C_4
REMARK    4  A    between atoms: C_4  and  C_6
REMARK    5  A    between atoms: C_6  and  C_7
REMARK    6  A    between atoms: N_9  and  C_10
REMARK                            x       y       z     vdW  Elec       q    Type
REMARK                         _______ _______ _______ _____ _____    ______ ____
ROOT
ATOM      1  C   UNL     1       5.734   4.754  17.000  0.00  0.00    +0.000 C 
ATOM      2  O   UNL     1       5.069   5.785  16.955  0.00  0.00    +0.000 OA
ATOM      3  N   UNL     1       5.292   3.621  17.638  0.00  0.00    +0.000 N 
ATOM      4  H   UNL     1       5.931   2.852  17.822  0.00  0.00    +0.000 HD
ENDROOT
BRANCH   3   5
ATOM      5  C   UNL     1       3.999   3.592  18.302  0.00  0.00    +0.000 C 
ATOM      6  C   UNL     1       2.877   3.147  17.390  0.00  0.00    +0.000 C 
ATOM      7  C   UNL     1       1.905   2.517  18.352  0.00  0.00    +0.000 C 
ATOM      8  O   UNL     1       2.699   1.949  19.396  0.00  0.00    +0.000 OA
ATOM      9  C   UNL     1       3.934   2.534  19.387  0.00  0.00    +0.000 C 
ATOM     10  O   UNL     1       4.843   2.241  20.149  0.00  0.00    +0.000 OA
ENDBRANCH   3   5
BRANCH   1  11
ATOM     11  C   UNL     1       7.066   4.628  16.319  0.00  0.00    +0.000 C 
BRANCH  11  12
ATOM     12  C   UNL     1       6.967   4.724  14.816  0.00  0.00    +0.000 C 
ATOM     13  O   UNL     1       7.764   5.424  14.185  0.00  0.00    +0.000 OA
BRANCH  12  14
ATOM     14  C   UNL     1       5.883   3.946  14.087  0.00  0.00    +0.000 C 
BRANCH  14  16
ATOM     15  C   UNL     1       5.026   3.231  11.813  0.00  0.00    +0.000 C 
ATOM     16  C   UNL     1       6.244   3.599  12.647  0.00  0.00    +0.000 C 
ENDBRANCH  14  16
ENDBRANCH  12  14
ENDBRANCH  11  12
ENDBRANCH   1  11
TORSDOF 5
ENDMDL
MODEL 2
REMARK VINA RESULT:      -6.4      1.719      5.978
REMARK  Name = 
REMARK  6 active torsions:
REMARK  status: ('A' for Active; 'I' for Inactive)
REMARK    1  A    between atoms: C_1  and  C_2
REMARK    2  A    between atoms: C_2  and  C_3
REMARK    3  A    between atoms: C_3  and  C_4
REMARK    4  A    between atoms: C_4  and  C_6
REMARK    5  A    between atoms: C_6  and  C_7
REMARK    6  A    between atoms: N_9  and  C_10
REMARK                            x       y       z     vdW  Elec       q    Type
REMARK                         _______ _______ _______ _____ _____    ______ ____
ROOT
ATOM      1  C   UNL     1       4.423   3.165  18.496  0.00  0.00    +0.000 C 
ATOM      2  O   UNL     1       5.196   3.626  19.330  0.00  0.00    +0.000 OA
ATOM      3  N   UNL     1       4.570   3.398  17.151  0.00  0.00    +0.000 N 
ATOM      4  H   UNL     1       3.819   3.167  16.504  0.00  0.00    +0.000 HD
ENDROOT
BRANCH   3   5
ATOM      5  C   UNL     1       5.660   4.217  16.646  0.00  0.00    +0.000 C 
ATOM      6  C   UNL     1       6.202   3.726  15.322  0.00  0.00    +0.000 C 
ATOM      7  C   UNL     1       6.714   4.993  14.690  0.00  0.00    +0.000 C 
ATOM      8  O   UNL     1       5.855   6.037  15.152  0.00  0.00    +0.000 OA
ATOM      9  C   UNL     1       5.206   5.616  16.278  0.00  0.00    +0.000 C 
ATOM     10  O   UNL     1       4.386   6.282  16.893  0.00  0.00    +0.000 OA
ENDBRANCH   3   5
BRANCH   1  11
ATOM     11  C   UNL     1       3.281   2.266  18.871  0.00  0.00    +0.000 C 
BRANCH  11  12
ATOM     12  C   UNL     1       1.935   2.856  18.530  0.00  0.00    +0.000 C 
ATOM     13  O   UNL     1       1.707   3.262  17.386  0.00  0.00    +0.000 OA
BRANCH  12  14
ATOM     14  C   UNL     1       0.860   2.939  19.602  0.00  0.00    +0.000 C 
BRANCH  14  16
ATOM     15  C   UNL     1       1.669   5.112  20.621  0.00  0.00    +0.000 C 
ATOM     16  C   UNL     1       1.316   3.653  20.869  0.00  0.00    +0.000 C 
ENDBRANCH  14  16
ENDBRANCH  12  14
ENDBRANCH  11  12
ENDBRANCH   1  11
TORSDOF 5
ENDMDL
MODEL 3
REMARK VINA RESULT:      -6.4      2.072      6.126
REMARK  Name = 
REMARK  6 active torsions:
REMARK  status: ('A' for Active; 'I' for Inactive)
REMARK    1  A    between atoms: C_1  and  C_2
REMARK    2  A    between atoms: C_2  and  C_3
REMARK    3  A    between atoms: C_3  and  C_4
REMARK    4  A    between atoms: C_4  and  C_6
REMARK    5  A    between atoms: C_6  and  C_7
REMARK    6  A    between atoms: N_9  and  C_10
REMARK                            x       y       z     vdW  Elec       q    Type
REMARK                         _______ _______ _______ _____ _____    ______ ____
ROOT
ATOM      1  C   UNL     1       3.498   4.052  17.454  0.00  0.00    +0.000 C 
ATOM      2  O   UNL     1       3.759   2.855  17.536  0.00  0.00    +0.000 OA
ATOM      3  N   UNL     1       4.340   4.947  16.841  0.00  0.00    +0.000 N 
ATOM      4  H   UNL     1       4.195   5.948  16.950  0.00  0.00    +0.000 HD
ENDROOT
BRANCH   3   5
ATOM      5  C   UNL     1       5.599   4.512  16.258  0.00  0.00    +0.000 C 
ATOM      6  C   UNL     1       5.556   4.442  14.747  0.00  0.00    +0.000 C 
ATOM      7  C   UNL     1       6.989   4.700  14.367  0.00  0.00    +0.000 C 
ATOM      8  O   UNL     1       7.506   5.584  15.364  0.00  0.00    +0.000 OA
ATOM      9  C   UNL     1       6.712   5.520  16.474  0.00  0.00    +0.000 C 
ATOM     10  O   UNL     1       6.885   6.181  17.487  0.00  0.00    +0.000 OA
ENDBRANCH   3   5
BRANCH   1  11
ATOM     11  C   UNL     1       2.213   4.631  17.971  0.00  0.00    +0.000 C 
BRANCH  11  12
ATOM     12  C   UNL     1       2.403   5.458  19.218  0.00  0.00    +0.000 C 
ATOM     13  O   UNL     1       3.104   6.476  19.188  0.00  0.00    +0.000 OA
BRANCH  12  14
ATOM     14  C   UNL     1       1.721   5.034  20.509  0.00  0.00    +0.000 C 
BRANCH  14  16
ATOM     15  C   UNL     1       1.469   2.717  21.498  0.00  0.00    +0.000 C 
ATOM     16  C   UNL     1       1.019   3.685  20.415  0.00  0.00    +0.000 C 
ENDBRANCH  14  16
ENDBRANCH  12  14
ENDBRANCH  11  12
ENDBRANCH   1  11
TORSDOF 5
ENDMDL
MODEL 4
REMARK VINA RESULT:      -6.3      1.936      5.455
REMARK  Name = 
REMARK  6 active torsions:
REMARK  status: ('A' for Active; 'I' for Inactive)
REMARK    1  A    between atoms: C_1  and  C_2
REMARK    2  A    between atoms: C_2  and  C_3
REMARK    3  A    between atoms: C_3  and  C_4
REMARK    4  A    between atoms: C_4  and  C_6
REMARK    5  A    between atoms: C_6  and  C_7
REMARK    6  A    between atoms: N_9  and  C_10
REMARK                            x       y       z     vdW  Elec       q    Type
REMARK                         _______ _______ _______ _____ _____    ______ ____
ROOT
ATOM      1  C   UNL     1       5.137   4.868  18.740  0.00  0.00    +0.000 C 
ATOM      2  O   UNL     1       6.027   4.187  19.242  0.00  0.00    +0.000 OA
ATOM      3  N   UNL     1       5.066   5.101  17.389  0.00  0.00    +0.000 N 
ATOM      4  H   UNL     1       4.438   5.814  17.023  0.00  0.00    +0.000 HD
ENDROOT
BRANCH   3   5
ATOM      5  C   UNL     1       6.055   4.548  16.479  0.00  0.00    +0.000 C 
ATOM      6  C   UNL     1       5.465   4.122  15.153  0.00  0.00    +0.000 C 
ATOM      7  C   UNL     1       6.625   4.291  14.209  0.00  0.00    +0.000 C 
ATOM      8  O   UNL     1       7.386   5.389  14.717  0.00  0.00    +0.000 OA
ATOM      9  C   UNL     1       7.067   5.585  16.031  0.00  0.00    +0.000 C 
ATOM     10  O   UNL     1       7.538   6.468  16.732  0.00  0.00    +0.000 OA
ENDBRANCH   3   5
BRANCH   1  11
ATOM     11  C   UNL     1       4.025   5.462  19.554  0.00  0.00    +0.000 C 
BRANCH  11  12
ATOM     12  C   UNL     1       2.668   5.266  18.924  0.00  0.00    +0.000 C 
ATOM     13  O   UNL     1       2.301   5.999  18.000  0.00  0.00    +0.000 OA
BRANCH  12  14
ATOM     14  C   UNL     1       1.761   4.156  19.430  0.00  0.00    +0.000 C 
BRANCH  14  16
ATOM     15  C   UNL     1       2.484   2.428  17.725  0.00  0.00    +0.000 C 
ATOM     16  C   UNL     1       1.317   3.185  18.341  0.00  0.00    +0.000 C 
ENDBRANCH  14  16
ENDBRANCH  12  14
ENDBRANCH  11  12
ENDBRANCH   1  11
TORSDOF 5
ENDMDL
MODEL 5
REMARK VINA RESULT:      -6.2      1.865      6.201
REMARK  Name = 
REMARK  6 active torsions:
REMARK  status: ('A' for Active; 'I' for Inactive)
REMARK    1  A    between atoms: C_1  and  C_2
REMARK    2  A    between atoms: C_2  and  C_3
REMARK    3  A    between atoms: C_3  and  C_4
REMARK    4  A    between atoms: C_4  and  C_6
REMARK    5  A    between atoms: C_6  and  C_7
REMARK    6  A    between atoms: N_9  and  C_10
REMARK                            x       y       z     vdW  Elec       q    Type
REMARK                         _______ _______ _______ _____ _____    ______ ____
ROOT
ATOM      1  C   UNL     1       4.043   4.710  17.946  0.00  0.00    +0.000 C 
ATOM      2  O   UNL     1       4.635   3.846  18.587  0.00  0.00    +0.000 OA
ATOM      3  N   UNL     1       4.487   5.151  16.724  0.00  0.00    +0.000 N 
ATOM      4  H   UNL     1       4.091   5.989  16.305  0.00  0.00    +0.000 HD
ENDROOT
BRANCH   3   5
ATOM      5  C   UNL     1       5.697   4.611  16.127  0.00  0.00    +0.000 C 
ATOM      6  C   UNL     1       5.521   4.239  14.671  0.00  0.00    +0.000 C 
ATOM      7  C   UNL     1       6.910   4.419  14.118  0.00  0.00    +0.000 C 
ATOM      8  O   UNL     1       7.494   5.486  14.867  0.00  0.00    +0.000 OA
ATOM      9  C   UNL     1       6.804   5.645  16.035  0.00  0.00    +0.000 C 
ATOM     10  O   UNL     1       7.053   6.495  16.876  0.00  0.00    +0.000 OA
ENDBRANCH   3   5
BRANCH   1  11
ATOM     11  C   UNL     1       2.757   5.321  18.421  0.00  0.00    +0.000 C 
BRANCH  11  12
ATOM     12  C   UNL     1       1.673   4.298  18.654  0.00  0.00    +0.000 C 
ATOM     13  O   UNL     1       1.310   3.558  17.734  0.00  0.00    +0.000 OA
BRANCH  12  14
ATOM     14  C   UNL     1       1.036   4.182  20.029  0.00  0.00    +0.000 C 
BRANCH  14  16
ATOM     15  C   UNL     1       2.544   2.749  21.474  0.00  0.00    +0.000 C 
ATOM     16  C   UNL     1       1.245   2.822  20.686  0.00  0.00    +0.000 C 
ENDBRANCH  14  16
ENDBRANCH  12  14
ENDBRANCH  11  12
ENDBRANCH   1  11
TORSDOF 5
ENDMDL
MODEL 6
REMARK VINA RESULT:      -6.2      2.110      5.898
REMARK  Name = 
REMARK  6 active torsions:
REMARK  status: ('A' for Active; 'I' for Inactive)
REMARK    1  A    between atoms: C_1  and  C_2
REMARK    2  A    between atoms: C_2  and  C_3
REMARK    3  A    between atoms: C_3  and  C_4
REMARK    4  A    between atoms: C_4  and  C_6
REMARK    5  A    between atoms: C_6  and  C_7
REMARK    6  A    between atoms: N_9  and  C_10
REMARK                            x       y       z     vdW  Elec       q    Type
REMARK                         _______ _______ _______ _____ _____    ______ ____
ROOT
ATOM      1  C   UNL     1       4.509   4.230  18.641  0.00  0.00    +0.000 C 
ATOM      2  O   UNL     1       4.307   3.030  18.480  0.00  0.00    +0.000 OA
ATOM      3  N   UNL     1       5.218   4.983  17.738  0.00  0.00    +0.000 N 
ATOM      4  H   UNL     1       5.530   5.920  17.982  0.00  0.00    +0.000 HD
ENDROOT
BRANCH   3   5
ATOM      5  C   UNL     1       5.773   4.385  16.535  0.00  0.00    +0.000 C 
ATOM      6  C   UNL     1       5.381   5.122  15.274  0.00  0.00    +0.000 C 
ATOM      7  C   UNL     1       6.542   4.844  14.358  0.00  0.00    +0.000 C 
ATOM      8  O   UNL     1       7.691   4.741  15.202  0.00  0.00    +0.000 OA
ATOM      9  C   UNL     1       7.285   4.495  16.483  0.00  0.00    +0.000 C 
ATOM     10  O   UNL     1       8.039   4.380  17.437  0.00  0.00    +0.000 OA
ENDBRANCH   3   5
BRANCH   1  11
ATOM     11  C   UNL     1       3.956   4.986  19.814  0.00  0.00    +0.000 C 
BRANCH  11  12
ATOM     12  C   UNL     1       2.568   5.523  19.563  0.00  0.00    +0.000 C 
ATOM     13  O   UNL     1       2.348   6.240  18.581  0.00  0.00    +0.000 OA
BRANCH  12  14
ATOM     14  C   UNL     1       1.443   5.168  20.522  0.00  0.00    +0.000 C 
BRANCH  14  16
ATOM     15  C   UNL     1       0.830   2.908  19.557  0.00  0.00    +0.000 C 
ATOM     16  C   UNL     1       1.311   3.672  20.782  0.00  0.00    +0.000 C 
ENDBRANCH  14  16
ENDBRANCH  12  14
ENDBRANCH  11  12
ENDBRANCH   1  11
TORSDOF 5
ENDMDL
MODEL 7
REMARK VINA RESULT:      -6.2      1.189      1.282
REMARK  Name = 
REMARK  6 active torsions:
REMARK  status: ('A' for Active; 'I' for Inactive)
REMARK    1  A    between atoms: C_1  and  C_2
REMARK    2  A    between atoms: C_2  and  C_3
REMARK    3  A    between atoms: C_3  and  C_4
REMARK    4  A    between atoms: C_4  and  C_6
REMARK    5  A    between atoms: C_6  and  C_7
REMARK    6  A    between atoms: N_9  and  C_10
REMARK                            x       y       z     vdW  Elec       q    Type
REMARK                         _______ _______ _______ _____ _____    ______ ____
ROOT
ATOM      1  C   UNL     1       4.694   5.622  16.941  0.00  0.00    +0.000 C 
ATOM      2  O   UNL     1       4.461   6.449  17.817  0.00  0.00    +0.000 OA
ATOM      3  N   UNL     1       4.200   4.342  16.989  0.00  0.00    +0.000 N 
ATOM      4  H   UNL     1       4.557   3.629  16.357  0.00  0.00    +0.000 HD
ENDROOT
BRANCH   3   5
ATOM      5  C   UNL     1       3.372   3.899  18.098  0.00  0.00    +0.000 C 
ATOM      6  C   UNL     1       2.343   2.868  17.691  0.00  0.00    +0.000 C 
ATOM      7  C   UNL     1       2.152   2.079  18.959  0.00  0.00    +0.000 C 
ATOM      8  O   UNL     1       3.415   2.097  19.626  0.00  0.00    +0.000 OA
ATOM      9  C   UNL     1       4.164   3.130  19.138  0.00  0.00    +0.000 C 
ATOM     10  O   UNL     1       5.303   3.388  19.497  0.00  0.00    +0.000 OA
ENDBRANCH   3   5
BRANCH   1  11
ATOM     11  C   UNL     1       5.496   5.955  15.716  0.00  0.00    +0.000 C 
BRANCH  11  12
ATOM     12  C   UNL     1       6.664   5.023  15.510  0.00  0.00    +0.000 C 
ATOM     13  O   UNL     1       7.397   4.726  16.459  0.00  0.00    +0.000 OA
BRANCH  12  14
ATOM     14  C   UNL     1       6.927   4.447  14.127  0.00  0.00    +0.000 C 
BRANCH  14  16
ATOM     15  C   UNL     1       6.005   3.191  12.132  0.00  0.00    +0.000 C 
ATOM     16  C   UNL     1       5.699   3.814  13.486  0.00  0.00    +0.000 C 
ENDBRANCH  14  16
ENDBRANCH  12  14
ENDBRANCH  11  12
ENDBRANCH   1  11
TORSDOF 5
ENDMDL
MODEL 8
REMARK VINA RESULT:      -6.2      2.962      6.286
REMARK  Name = 
REMARK  6 active torsions:
REMARK  status: ('A' for Active; 'I' for Inactive)
REMARK    1  A    between atoms: C_1  and  C_2
REMARK    2  A    between atoms: C_2  and  C_3
REMARK    3  A    between atoms: C_3  and  C_4
REMARK    4  A    between atoms: C_4  and  C_6
REMARK    5  A    between atoms: C_6  and  C_7
REMARK    6  A    between atoms: N_9  and  C_10
REMARK                            x       y       z     vdW  Elec       q    Type
REMARK                         _______ _______ _______ _____ _____    ______ ____
ROOT
ATOM      1  C   UNL     1       4.075   4.304  18.687  0.00  0.00    +0.000 C 
ATOM      2  O   UNL     1       3.811   4.892  19.732  0.00  0.00    +0.000 OA
ATOM      3  N   UNL     1       5.016   4.768  17.801  0.00  0.00    +0.000 N 
ATOM      4  H   UNL     1       5.081   4.371  16.866  0.00  0.00    +0.000 HD
ENDROOT
BRANCH   3   5
ATOM      5  C   UNL     1       5.750   5.995  18.061  0.00  0.00    +0.000 C 
ATOM      6  C   UNL     1       7.098   5.751  18.703  0.00  0.00    +0.000 C 
ATOM      7  C   UNL     1       7.905   6.928  18.226  0.00  0.00    +0.000 C 
ATOM      8  O   UNL     1       7.402   7.247  16.927  0.00  0.00    +0.000 OA
ATOM      9  C   UNL     1       6.157   6.703  16.783  0.00  0.00    +0.000 C 
ATOM     10  O   UNL     1       5.479   6.786  15.770  0.00  0.00    +0.000 OA
ENDBRANCH   3   5
BRANCH   1  11
ATOM     11  C   UNL     1       3.427   3.003  18.313  0.00  0.00    +0.000 C 
BRANCH  11  12
ATOM     12  C   UNL     1       1.933   3.121  18.137  0.00  0.00    +0.000 C 
ATOM     13  O   UNL     1       1.469   3.746  17.178  0.00  0.00    +0.000 OA
BRANCH  12  14
ATOM     14  C   UNL     1       1.006   2.459  19.144  0.00  0.00    +0.000 C 
BRANCH  14  16
ATOM     15  C   UNL     1       1.628   2.697  21.587  0.00  0.00    +0.000 C 
ATOM     16  C   UNL     1       0.824   3.263  20.426  0.00  0.00    +0.000 C 
ENDBRANCH  14  16
ENDBRANCH  12  14
ENDBRANCH  11  12
ENDBRANCH   1  11
TORSDOF 5
ENDMDL
MODEL 9
REMARK VINA RESULT:      -6.1      2.032      6.085
REMARK  Name = 
REMARK  6 active torsions:
REMARK  status: ('A' for Active; 'I' for Inactive)
REMARK    1  A    between atoms: C_1  and  C_2
REMARK    2  A    between atoms: C_2  and  C_3
REMARK    3  A    between atoms: C_3  and  C_4
REMARK    4  A    between atoms: C_4  and  C_6
REMARK    5  A    between atoms: C_6  and  C_7
REMARK    6  A    between atoms: N_9  and  C_10
REMARK                            x       y       z     vdW  Elec       q    Type
REMARK                         _______ _______ _______ _____ _____    ______ ____
ROOT
ATOM      1  C   UNL     1       3.691   3.660  17.839  0.00  0.00    +0.000 C 
ATOM      2  O   UNL     1       2.848   4.465  17.452  0.00  0.00    +0.000 OA
ATOM      3  N   UNL     1       5.039   3.886  17.701  0.00  0.00    +0.000 N 
ATOM      4  H   UNL     1       5.704   3.132  17.855  0.00  0.00    +0.000 HD
ENDROOT
BRANCH   3   5
ATOM      5  C   UNL     1       5.535   5.102  17.079  0.00  0.00    +0.000 C 
ATOM      6  C   UNL     1       6.363   5.949  18.020  0.00  0.00    +0.000 C 
ATOM      7  C   UNL     1       7.301   6.659  17.079  0.00  0.00    +0.000 C 
ATOM      8  O   UNL     1       7.535   5.752  16.000  0.00  0.00    +0.000 OA
ATOM      9  C   UNL     1       6.540   4.816  15.979  0.00  0.00    +0.000 C 
ATOM     10  O   UNL     1       6.477   3.892  15.182  0.00  0.00    +0.000 OA
ENDBRANCH   3   5
BRANCH   1  11
ATOM     11  C   UNL     1       3.322   2.385  18.539  0.00  0.00    +0.000 C 
BRANCH  11  12
ATOM     12  C   UNL     1       3.688   2.393  20.003  0.00  0.00    +0.000 C 
ATOM     13  O   UNL     1       4.867   2.271  20.349  0.00  0.00    +0.000 OA
BRANCH  12  14
ATOM     14  C   UNL     1       2.595   2.560  21.047  0.00  0.00    +0.000 C 
BRANCH  14  16
ATOM     15  C   UNL     1       1.871   4.976  20.814  0.00  0.00    +0.000 C 
ATOM     16  C   UNL     1       1.486   3.516  20.623  0.00  0.00    +0.000 C 
ENDBRANCH  14  16
ENDBRANCH  12  14
ENDBRANCH  11  12
ENDBRANCH   1  11
TORSDOF 5
ENDMDL
