MODEL 1
REMARK VINA RESULT:      -7.7      0.000      0.000
REMARK  Name = 
REMARK  8 active torsions:
REMARK  status: ('A' for Active; 'I' for Inactive)
REMARK    1  A    between atoms: C_1  and  C_2
REMARK    2  A    between atoms: C_2  and  O_3
REMARK    3  A    between atoms: O_3  and  C_4
REMARK    4  A    between atoms: C_7  and  C_8
REMARK    5  A    between atoms: N_10  and  C_11
REMARK    6  A    between atoms: C_15  and  N_16
REMARK    7  A    between atoms: C_17  and  C_19
REMARK    8  A    between atoms: C_26  and  N_27
REMARK                            x       y       z     vdW  Elec       q    Type
REMARK                         _______ _______ _______ _____ _____    ______ ____
ROOT
ATOM      1  C   UNL     1       2.092   8.584  18.164  0.00  0.00    +0.000 C 
ATOM      2  O   UNL     1       2.445   9.013  17.070  0.00  0.00    +0.000 OA
ATOM      3  N   UNL     1       1.298   9.243  19.091  0.00  0.00    +0.000 N 
ATOM      4  H   UNL     1       1.241   8.867  20.028  0.00  0.00    +0.000 HD
ENDROOT
BRANCH   1   8
ATOM      5  C   UNL     1       3.580   4.768  19.471  0.00  0.00    +0.000 A 
ATOM      6  C   UNL     1       2.633   5.479  20.208  0.00  0.00    +0.000 A 
ATOM      7  C   UNL     1       2.163   6.708  19.748  0.00  0.00    +0.000 A 
ATOM      8  C   UNL     1       2.647   7.268  18.557  0.00  0.00    +0.000 A 
ATOM      9  C   UNL     1       3.651   6.614  17.844  0.00  0.00    +0.000 A 
ATOM     10  C   UNL     1       4.110   5.373  18.322  0.00  0.00    +0.000 A 
BRANCH  10  11
ATOM     11  N   UNL     1       5.135   4.694  17.552  0.00  0.00    +0.000 N 
ATOM     12  O   UNL     1       6.306   4.780  17.944  0.00  0.00    +0.000 OA
ATOM     13  O   UNL     1       4.762   4.136  16.510  0.00  0.00    +0.000 OA
ENDBRANCH  10  11
BRANCH   5  14
ATOM     14  O   UNL     1       3.989   3.507  19.810  0.00  0.00    +0.000 OA
BRANCH  14  16
ATOM     15  C   UNL     1       3.332   1.636  18.465  0.00  0.00    +0.000 C 
ATOM     16  C   UNL     1       2.996   2.484  19.675  0.00  0.00    +0.000 C 
ENDBRANCH  14  16
ENDBRANCH   5  14
ENDBRANCH   1   8
BRANCH   3  17
ATOM     17  C   UNL     1       0.730  10.529  18.884  0.00  0.00    +0.000 A 
ATOM     18  C   UNL     1       1.513  11.684  18.809  0.00  0.00    +0.000 A 
ATOM     19  C   UNL     1       0.927  12.934  18.650  0.00  0.00    +0.000 A 
ATOM     20  C   UNL     1      -0.453  13.048  18.543  0.00  0.00    +0.000 A 
ATOM     21  C   UNL     1      -1.264  11.912  18.580  0.00  0.00    +0.000 A 
ATOM     22  C   UNL     1      -0.664  10.649  18.754  0.00  0.00    +0.000 A 
BRANCH  21  23
ATOM     23  N   UNL     1      -2.671  11.978  18.475  0.00  0.00    +0.000 N 
ATOM     24  C   UNL     1      -3.578  12.258  19.492  0.00  0.00    +0.000 C 
ATOM     25  O   UNL     1      -3.261  12.549  20.642  0.00  0.00    +0.000 OA
ATOM     26  H   UNL     1      -3.073  11.850  17.556  0.00  0.00    +0.000 HD
BRANCH  24  27
ATOM     27  C   UNL     1      -4.987  12.225  19.100  0.00  0.00    +0.000 A 
ATOM     28  C   UNL     1      -5.468  12.195  17.802  0.00  0.00    +0.000 A 
ATOM     29  C   UNL     1      -6.891  12.155  17.742  0.00  0.00    +0.000 A 
ATOM     30  C   UNL     1      -7.452  12.165  18.998  0.00  0.00    +0.000 A 
ATOM     31  S   UNL     1      -6.271  12.225  20.233  0.00  0.00    +0.000 S 
ENDBRANCH  24  27
ENDBRANCH  21  23
ENDBRANCH   3  17
TORSDOF 7
ENDMDL
MODEL 2
REMARK VINA RESULT:      -7.7      1.571      2.234
REMARK  Name = 
REMARK  8 active torsions:
REMARK  status: ('A' for Active; 'I' for Inactive)
REMARK    1  A    between atoms: C_1  and  C_2
REMARK    2  A    between atoms: C_2  and  O_3
REMARK    3  A    between atoms: O_3  and  C_4
REMARK    4  A    between atoms: C_7  and  C_8
REMARK    5  A    between atoms: N_10  and  C_11
REMARK    6  A    between atoms: C_15  and  N_16
REMARK    7  A    between atoms: C_17  and  C_19
REMARK    8  A    between atoms: C_26  and  N_27
REMARK                            x       y       z     vdW  Elec       q    Type
REMARK                         _______ _______ _______ _____ _____    ______ ____
ROOT
ATOM      1  C   UNL     1       1.505   8.539  19.944  0.00  0.00    +0.000 C 
ATOM      2  O   UNL     1       1.137   8.876  21.065  0.00  0.00    +0.000 OA
ATOM      3  N   UNL     1       1.347   9.264  18.771  0.00  0.00    +0.000 N 
ATOM      4  H   UNL     1       1.516   8.795  17.891  0.00  0.00    +0.000 HD
ENDROOT
BRANCH   1   8
ATOM      5  C   UNL     1       3.359   4.687  19.481  0.00  0.00    +0.000 A 
ATOM      6  C   UNL     1       3.766   5.793  18.734  0.00  0.00    +0.000 A 
ATOM      7  C   UNL     1       3.151   7.031  18.919  0.00  0.00    +0.000 A 
ATOM      8  C   UNL     1       2.098   7.186  19.833  0.00  0.00    +0.000 A 
ATOM      9  C   UNL     1       1.622   6.079  20.533  0.00  0.00    +0.000 A 
ATOM     10  C   UNL     1       2.257   4.839  20.335  0.00  0.00    +0.000 A 
BRANCH  10  11
ATOM     11  N   UNL     1       1.765   3.704  21.093  0.00  0.00    +0.000 N 
ATOM     12  O   UNL     1       2.300   3.460  22.182  0.00  0.00    +0.000 OA
ATOM     13  O   UNL     1       0.886   3.019  20.551  0.00  0.00    +0.000 OA
ENDBRANCH  10  11
BRANCH   5  14
ATOM     14  O   UNL     1       4.001   3.480  19.428  0.00  0.00    +0.000 OA
BRANCH  14  16
ATOM     15  C   UNL     1       3.494   1.351  18.451  0.00  0.00    +0.000 C 
ATOM     16  C   UNL     1       3.898   2.786  18.179  0.00  0.00    +0.000 C 
ENDBRANCH  14  16
ENDBRANCH   5  14
ENDBRANCH   1   8
BRANCH   3  17
ATOM     17  C   UNL     1       0.755  10.553  18.705  0.00  0.00    +0.000 A 
ATOM     18  C   UNL     1       1.516  11.724  18.744  0.00  0.00    +0.000 A 
ATOM     19  C   UNL     1       0.907  12.973  18.721  0.00  0.00    +0.000 A 
ATOM     20  C   UNL     1      -0.477  13.071  18.639  0.00  0.00    +0.000 A 
ATOM     21  C   UNL     1      -1.267  11.923  18.566  0.00  0.00    +0.000 A 
ATOM     22  C   UNL     1      -0.643  10.660  18.601  0.00  0.00    +0.000 A 
BRANCH  21  23
ATOM     23  N   UNL     1      -2.676  11.973  18.481  0.00  0.00    +0.000 N 
ATOM     24  C   UNL     1      -3.571  12.254  19.508  0.00  0.00    +0.000 C 
ATOM     25  O   UNL     1      -3.239  12.560  20.651  0.00  0.00    +0.000 OA
ATOM     26  H   UNL     1      -3.090  11.831  17.569  0.00  0.00    +0.000 HD
BRANCH  24  27
ATOM     27  C   UNL     1      -4.984  12.201  19.137  0.00  0.00    +0.000 A 
ATOM     28  C   UNL     1      -5.485  12.160  17.847  0.00  0.00    +0.000 A 
ATOM     29  C   UNL     1      -6.908  12.103  17.809  0.00  0.00    +0.000 A 
ATOM     30  C   UNL     1      -7.451  12.111  19.074  0.00  0.00    +0.000 A 
ATOM     31  S   UNL     1      -6.251  12.192  20.290  0.00  0.00    +0.000 S 
ENDBRANCH  24  27
ENDBRANCH  21  23
ENDBRANCH   3  17
TORSDOF 7
ENDMDL
MODEL 3
REMARK VINA RESULT:      -7.7      7.492     10.291
REMARK  Name = 
REMARK  8 active torsions:
REMARK  status: ('A' for Active; 'I' for Inactive)
REMARK    1  A    between atoms: C_1  and  C_2
REMARK    2  A    between atoms: C_2  and  O_3
REMARK    3  A    between atoms: O_3  and  C_4
REMARK    4  A    between atoms: C_7  and  C_8
REMARK    5  A    between atoms: N_10  and  C_11
REMARK    6  A    between atoms: C_15  and  N_16
REMARK    7  A    between atoms: C_17  and  C_19
REMARK    8  A    between atoms: C_26  and  N_27
REMARK                            x       y       z     vdW  Elec       q    Type
REMARK                         _______ _______ _______ _____ _____    ______ ____
ROOT
ATOM      1  C   UNL     1       8.159   8.314  18.217  0.00  0.00    +0.000 C 
ATOM      2  O   UNL     1       8.630   7.486  18.992  0.00  0.00    +0.000 OA
ATOM      3  N   UNL     1       7.326   8.054  17.140  0.00  0.00    +0.000 N 
ATOM      4  H   UNL     1       7.166   8.792  16.467  0.00  0.00    +0.000 HD
ENDROOT
BRANCH   1   8
ATOM      5  C   UNL     1       9.331  12.431  18.620  0.00  0.00    +0.000 A 
ATOM      6  C   UNL     1       8.518  11.997  17.572  0.00  0.00    +0.000 A 
ATOM      7  C   UNL     1       8.147  10.657  17.480  0.00  0.00    +0.000 A 
ATOM      8  C   UNL     1       8.601   9.714  18.414  0.00  0.00    +0.000 A 
ATOM      9  C   UNL     1       9.478  10.108  19.423  0.00  0.00    +0.000 A 
ATOM     10  C   UNL     1       9.838  11.466  19.502  0.00  0.00    +0.000 A 
BRANCH  10  11
ATOM     11  N   UNL     1      10.730  11.862  20.576  0.00  0.00    +0.000 N 
ATOM     12  O   UNL     1      10.228  12.359  21.592  0.00  0.00    +0.000 OA
ATOM     13  O   UNL     1      11.944  11.736  20.359  0.00  0.00    +0.000 OA
ENDBRANCH  10  11
BRANCH   5  14
ATOM     14  O   UNL     1       9.631  13.749  18.829  0.00  0.00    +0.000 OA
BRANCH  14  16
ATOM     15  C   UNL     1      11.806  14.649  18.380  0.00  0.00    +0.000 C 
ATOM     16  C   UNL     1      10.431  14.364  17.812  0.00  0.00    +0.000 C 
ENDBRANCH  14  16
ENDBRANCH   5  14
ENDBRANCH   1   8
BRANCH   3  17
ATOM     17  C   UNL     1       6.854   6.760  16.791  0.00  0.00    +0.000 A 
ATOM     18  C   UNL     1       7.437   6.007  15.769  0.00  0.00    +0.000 A 
ATOM     19  C   UNL     1       6.926   4.762  15.419  0.00  0.00    +0.000 A 
ATOM     20  C   UNL     1       5.834   4.241  16.102  0.00  0.00    +0.000 A 
ATOM     21  C   UNL     1       5.247   4.952  17.150  0.00  0.00    +0.000 A 
ATOM     22  C   UNL     1       5.762   6.218  17.490  0.00  0.00    +0.000 A 
BRANCH  21  23
ATOM     23  N   UNL     1       4.136   4.463  17.872  0.00  0.00    +0.000 N 
ATOM     24  C   UNL     1       4.158   3.650  19.001  0.00  0.00    +0.000 C 
ATOM     25  O   UNL     1       5.184   3.283  19.570  0.00  0.00    +0.000 OA
ATOM     26  H   UNL     1       3.219   4.763  17.570  0.00  0.00    +0.000 HD
BRANCH  24  27
ATOM     27  C   UNL     1       2.847   3.267  19.523  0.00  0.00    +0.000 A 
ATOM     28  C   UNL     1       1.874   2.561  18.836  0.00  0.00    +0.000 A 
ATOM     29  C   UNL     1       0.704   2.331  19.617  0.00  0.00    +0.000 A 
ATOM     30  C   UNL     1       0.818   2.878  20.874  0.00  0.00    +0.000 A 
ATOM     31  S   UNL     1       2.320   3.664  21.104  0.00  0.00    +0.000 S 
ENDBRANCH  24  27
ENDBRANCH  21  23
ENDBRANCH   3  17
TORSDOF 7
ENDMDL
MODEL 4
REMARK VINA RESULT:      -7.6      7.433     10.257
REMARK  Name = 
REMARK  8 active torsions:
REMARK  status: ('A' for Active; 'I' for Inactive)
REMARK    1  A    between atoms: C_1  and  C_2
REMARK    2  A    between atoms: C_2  and  O_3
REMARK    3  A    between atoms: O_3  and  C_4
REMARK    4  A    between atoms: C_7  and  C_8
REMARK    5  A    between atoms: N_10  and  C_11
REMARK    6  A    between atoms: C_15  and  N_16
REMARK    7  A    between atoms: C_17  and  C_19
REMARK    8  A    between atoms: C_26  and  N_27
REMARK                            x       y       z     vdW  Elec       q    Type
REMARK                         _______ _______ _______ _____ _____    ______ ____
ROOT
ATOM      1  C   UNL     1       8.156   8.320  18.258  0.00  0.00    +0.000 C 
ATOM      2  O   UNL     1       8.622   7.493  19.037  0.00  0.00    +0.000 OA
ATOM      3  N   UNL     1       7.315   8.061  17.187  0.00  0.00    +0.000 N 
ATOM      4  H   UNL     1       7.160   8.796  16.510  0.00  0.00    +0.000 HD
ENDROOT
BRANCH   1   8
ATOM      5  C   UNL     1       9.383  12.424  18.619  0.00  0.00    +0.000 A 
ATOM      6  C   UNL     1       8.579  11.988  17.566  0.00  0.00    +0.000 A 
ATOM      7  C   UNL     1       8.189  10.652  17.487  0.00  0.00    +0.000 A 
ATOM      8  C   UNL     1       8.616   9.716  18.442  0.00  0.00    +0.000 A 
ATOM      9  C   UNL     1       9.484  10.112  19.458  0.00  0.00    +0.000 A 
ATOM     10  C   UNL     1       9.863  11.466  19.523  0.00  0.00    +0.000 A 
BRANCH  10  11
ATOM     11  N   UNL     1      10.744  11.864  20.604  0.00  0.00    +0.000 N 
ATOM     12  O   UNL     1      10.232  12.360  21.616  0.00  0.00    +0.000 OA
ATOM     13  O   UNL     1      11.961  11.742  20.398  0.00  0.00    +0.000 OA
ENDBRANCH  10  11
BRANCH   5  14
ATOM     14  O   UNL     1       9.699  13.741  18.814  0.00  0.00    +0.000 OA
BRANCH  14  16
ATOM     15  C   UNL     1       8.145  15.517  18.392  0.00  0.00    +0.000 C 
ATOM     16  C   UNL     1       9.230  14.640  17.802  0.00  0.00    +0.000 C 
ENDBRANCH  14  16
ENDBRANCH   5  14
ENDBRANCH   1   8
BRANCH   3  17
ATOM     17  C   UNL     1       6.825   6.771  16.851  0.00  0.00    +0.000 A 
ATOM     18  C   UNL     1       7.368   6.018  15.806  0.00  0.00    +0.000 A 
ATOM     19  C   UNL     1       6.841   4.777  15.471  0.00  0.00    +0.000 A 
ATOM     20  C   UNL     1       5.771   4.258  16.190  0.00  0.00    +0.000 A 
ATOM     21  C   UNL     1       5.225   4.967  17.261  0.00  0.00    +0.000 A 
ATOM     22  C   UNL     1       5.757   6.230  17.587  0.00  0.00    +0.000 A 
BRANCH  21  23
ATOM     23  N   UNL     1       4.138   4.480  18.021  0.00  0.00    +0.000 N 
ATOM     24  C   UNL     1       4.199   3.694  19.167  0.00  0.00    +0.000 C 
ATOM     25  O   UNL     1       5.243   3.355  19.720  0.00  0.00    +0.000 OA
ATOM     26  H   UNL     1       3.210   4.760  17.734  0.00  0.00    +0.000 HD
BRANCH  24  27
ATOM     27  C   UNL     1       2.906   3.306  19.728  0.00  0.00    +0.000 A 
ATOM     28  C   UNL     1       2.664   2.955  21.045  0.00  0.00    +0.000 A 
ATOM     29  C   UNL     1       1.297   2.637  21.290  0.00  0.00    +0.000 A 
ATOM     30  C   UNL     1       0.538   2.747  20.147  0.00  0.00    +0.000 A 
ATOM     31  S   UNL     1       1.471   3.225  18.796  0.00  0.00    +0.000 S 
ENDBRANCH  24  27
ENDBRANCH  21  23
ENDBRANCH   3  17
TORSDOF 7
ENDMDL
MODEL 5
REMARK VINA RESULT:      -7.6      1.947      2.591
REMARK  Name = 
REMARK  8 active torsions:
REMARK  status: ('A' for Active; 'I' for Inactive)
REMARK    1  A    between atoms: C_1  and  C_2
REMARK    2  A    between atoms: C_2  and  O_3
REMARK    3  A    between atoms: O_3  and  C_4
REMARK    4  A    between atoms: C_7  and  C_8
REMARK    5  A    between atoms: N_10  and  C_11
REMARK    6  A    between atoms: C_15  and  N_16
REMARK    7  A    between atoms: C_17  and  C_19
REMARK    8  A    between atoms: C_26  and  N_27
REMARK                            x       y       z     vdW  Elec       q    Type
REMARK                         _______ _______ _______ _____ _____    ______ ____
ROOT
ATOM      1  C   UNL     1       2.139   8.172  18.769  0.00  0.00    +0.000 C 
ATOM      2  O   UNL     1       1.806   8.094  19.948  0.00  0.00    +0.000 OA
ATOM      3  N   UNL     1       1.855   9.214  17.899  0.00  0.00    +0.000 N 
ATOM      4  H   UNL     1       2.015   9.071  16.910  0.00  0.00    +0.000 HD
ENDROOT
BRANCH   1   8
ATOM      5  C   UNL     1       4.310   4.876  17.064  0.00  0.00    +0.000 A 
ATOM      6  C   UNL     1       4.689   6.199  16.839  0.00  0.00    +0.000 A 
ATOM      7  C   UNL     1       3.969   7.244  17.418  0.00  0.00    +0.000 A 
ATOM      8  C   UNL     1       2.840   6.991  18.212  0.00  0.00    +0.000 A 
ATOM      9  C   UNL     1       2.397   5.681  18.387  0.00  0.00    +0.000 A 
ATOM     10  C   UNL     1       3.138   4.641  17.797  0.00  0.00    +0.000 A 
BRANCH  10  11
ATOM     11  N   UNL     1       2.676   3.282  18.013  0.00  0.00    +0.000 N 
ATOM     12  O   UNL     1       1.941   2.778  17.154  0.00  0.00    +0.000 OA
ATOM     13  O   UNL     1       3.000   2.754  19.086  0.00  0.00    +0.000 OA
ENDBRANCH  10  11
BRANCH   5  14
ATOM     14  O   UNL     1       5.044   3.809  16.621  0.00  0.00    +0.000 OA
BRANCH  14  16
ATOM     15  C   UNL     1       6.080   3.895  14.461  0.00  0.00    +0.000 C 
ATOM     16  C   UNL     1       6.262   4.143  15.945  0.00  0.00    +0.000 C 
ENDBRANCH  14  16
ENDBRANCH   5  14
ENDBRANCH   1   8
BRANCH   3  17
ATOM     17  C   UNL     1       1.151  10.391  18.268  0.00  0.00    +0.000 A 
ATOM     18  C   UNL     1       1.804  11.599  18.524  0.00  0.00    +0.000 A 
ATOM     19  C   UNL     1       1.094  12.724  18.926  0.00  0.00    +0.000 A 
ATOM     20  C   UNL     1      -0.288  12.664  19.059  0.00  0.00    +0.000 A 
ATOM     21  C   UNL     1      -0.977  11.483  18.780  0.00  0.00    +0.000 A 
ATOM     22  C   UNL     1      -0.249  10.343  18.384  0.00  0.00    +0.000 A 
BRANCH  21  23
ATOM     23  N   UNL     1      -2.380  11.374  18.900  0.00  0.00    +0.000 N 
ATOM     24  C   UNL     1      -3.320  11.434  17.876  0.00  0.00    +0.000 C 
ATOM     25  O   UNL     1      -3.039  11.538  16.685  0.00  0.00    +0.000 OA
ATOM     26  H   UNL     1      -2.752  11.191  19.823  0.00  0.00    +0.000 HD
BRANCH  24  27
ATOM     27  C   UNL     1      -4.715  11.325  18.300  0.00  0.00    +0.000 A 
ATOM     28  C   UNL     1      -5.476  10.169  18.299  0.00  0.00    +0.000 A 
ATOM     29  C   UNL     1      -6.801  10.380  18.780  0.00  0.00    +0.000 A 
ATOM     30  C   UNL     1      -7.011  11.695  19.126  0.00  0.00    +0.000 A 
ATOM     31  S   UNL     1      -5.624  12.662  18.867  0.00  0.00    +0.000 S 
ENDBRANCH  24  27
ENDBRANCH  21  23
ENDBRANCH   3  17
TORSDOF 7
ENDMDL
MODEL 6
REMARK VINA RESULT:      -7.6      0.916      1.091
REMARK  Name = 
REMARK  8 active torsions:
REMARK  status: ('A' for Active; 'I' for Inactive)
REMARK    1  A    between atoms: C_1  and  C_2
REMARK    2  A    between atoms: C_2  and  O_3
REMARK    3  A    between atoms: O_3  and  C_4
REMARK    4  A    between atoms: C_7  and  C_8
REMARK    5  A    between atoms: N_10  and  C_11
REMARK    6  A    between atoms: C_15  and  N_16
REMARK    7  A    between atoms: C_17  and  C_19
REMARK    8  A    between atoms: C_26  and  N_27
REMARK                            x       y       z     vdW  Elec       q    Type
REMARK                         _______ _______ _______ _____ _____    ______ ____
ROOT
ATOM      1  C   UNL     1       2.170   8.448  18.177  0.00  0.00    +0.000 C 
ATOM      2  O   UNL     1       2.385   8.870  17.044  0.00  0.00    +0.000 OA
ATOM      3  N   UNL     1       1.479   9.105  19.184  0.00  0.00    +0.000 N 
ATOM      4  H   UNL     1       1.539   8.738  20.125  0.00  0.00    +0.000 HD
ENDROOT
BRANCH   1   8
ATOM      5  C   UNL     1       3.840   4.655  19.321  0.00  0.00    +0.000 A 
ATOM      6  C   UNL     1       2.863   5.289  20.089  0.00  0.00    +0.000 A 
ATOM      7  C   UNL     1       2.334   6.512  19.681  0.00  0.00    +0.000 A 
ATOM      8  C   UNL     1       2.788   7.144  18.513  0.00  0.00    +0.000 A 
ATOM      9  C   UNL     1       3.819   6.568  17.772  0.00  0.00    +0.000 A 
ATOM     10  C   UNL     1       4.338   5.331  18.198  0.00  0.00    +0.000 A 
BRANCH  10  11
ATOM     11  N   UNL     1       5.391   4.735  17.398  0.00  0.00    +0.000 N 
ATOM     12  O   UNL     1       5.060   4.067  16.410  0.00  0.00    +0.000 OA
ATOM     13  O   UNL     1       6.550   4.883  17.814  0.00  0.00    +0.000 OA
ENDBRANCH  10  11
BRANCH   5  14
ATOM     14  O   UNL     1       4.310   3.402  19.607  0.00  0.00    +0.000 OA
BRANCH  14  16
ATOM     15  C   UNL     1       3.215   1.742  18.269  0.00  0.00    +0.000 C 
ATOM     16  C   UNL     1       3.318   2.369  19.644  0.00  0.00    +0.000 C 
ENDBRANCH  14  16
ENDBRANCH   5  14
ENDBRANCH   1   8
BRANCH   3  17
ATOM     17  C   UNL     1       0.871  10.380  19.034  0.00  0.00    +0.000 A 
ATOM     18  C   UNL     1       1.618  11.535  18.790  0.00  0.00    +0.000 A 
ATOM     19  C   UNL     1       1.000  12.776  18.691  0.00  0.00    +0.000 A 
ATOM     20  C   UNL     1      -0.380  12.879  18.814  0.00  0.00    +0.000 A 
ATOM     21  C   UNL     1      -1.160  11.741  19.025  0.00  0.00    +0.000 A 
ATOM     22  C   UNL     1      -0.526  10.488  19.137  0.00  0.00    +0.000 A 
BRANCH  21  23
ATOM     23  N   UNL     1      -2.566  11.796  19.156  0.00  0.00    +0.000 N 
ATOM     24  C   UNL     1      -3.511  11.647  18.146  0.00  0.00    +0.000 C 
ATOM     25  O   UNL     1      -3.240  11.385  16.977  0.00  0.00    +0.000 OA
ATOM     26  H   UNL     1      -2.939  11.915  20.088  0.00  0.00    +0.000 HD
BRANCH  24  27
ATOM     27  C   UNL     1      -4.904  11.787  18.568  0.00  0.00    +0.000 A 
ATOM     28  C   UNL     1      -5.983  11.092  18.051  0.00  0.00    +0.000 A 
ATOM     29  C   UNL     1      -7.215  11.440  18.677  0.00  0.00    +0.000 A 
ATOM     30  C   UNL     1      -7.038  12.399  19.648  0.00  0.00    +0.000 A 
ATOM     31  S   UNL     1      -5.402  12.874  19.796  0.00  0.00    +0.000 S 
ENDBRANCH  24  27
ENDBRANCH  21  23
ENDBRANCH   3  17
TORSDOF 7
ENDMDL
MODEL 7
REMARK VINA RESULT:      -7.5      1.064      1.149
REMARK  Name = 
REMARK  8 active torsions:
REMARK  status: ('A' for Active; 'I' for Inactive)
REMARK    1  A    between atoms: C_1  and  C_2
REMARK    2  A    between atoms: C_2  and  O_3
REMARK    3  A    between atoms: O_3  and  C_4
REMARK    4  A    between atoms: C_7  and  C_8
REMARK    5  A    between atoms: N_10  and  C_11
REMARK    6  A    between atoms: C_15  and  N_16
REMARK    7  A    between atoms: C_17  and  C_19
REMARK    8  A    between atoms: C_26  and  N_27
REMARK                            x       y       z     vdW  Elec       q    Type
REMARK                         _______ _______ _______ _____ _____    ______ ____
ROOT
ATOM      1  C   UNL     1       1.943   8.632  18.292  0.00  0.00    +0.000 C 
ATOM      2  O   UNL     1       2.281   9.055  17.191  0.00  0.00    +0.000 OA
ATOM      3  N   UNL     1       1.175   9.301  19.234  0.00  0.00    +0.000 N 
ATOM      4  H   UNL     1       1.131   8.926  20.172  0.00  0.00    +0.000 HD
ENDROOT
BRANCH   1   8
ATOM      5  C   UNL     1       3.403   4.795  19.572  0.00  0.00    +0.000 A 
ATOM      6  C   UNL     1       2.476   5.517  20.324  0.00  0.00    +0.000 A 
ATOM      7  C   UNL     1       2.014   6.752  19.873  0.00  0.00    +0.000 A 
ATOM      8  C   UNL     1       2.488   7.308  18.675  0.00  0.00    +0.000 A 
ATOM      9  C   UNL     1       3.473   6.643  17.946  0.00  0.00    +0.000 A 
ATOM     10  C   UNL     1       3.924   5.395  18.416  0.00  0.00    +0.000 A 
BRANCH  10  11
ATOM     11  N   UNL     1       4.929   4.705  17.630  0.00  0.00    +0.000 N 
ATOM     12  O   UNL     1       6.119   4.910  17.904  0.00  0.00    +0.000 OA
ATOM     13  O   UNL     1       4.513   4.014  16.689  0.00  0.00    +0.000 OA
ENDBRANCH  10  11
BRANCH   5  14
ATOM     14  O   UNL     1       3.802   3.529  19.904  0.00  0.00    +0.000 OA
BRANCH  14  16
ATOM     15  C   UNL     1       2.257   1.999  18.895  0.00  0.00    +0.000 C 
ATOM     16  C   UNL     1       2.743   2.609  20.194  0.00  0.00    +0.000 C 
ENDBRANCH  14  16
ENDBRANCH   5  14
ENDBRANCH   1   8
BRANCH   3  17
ATOM     17  C   UNL     1       0.621  10.594  19.037  0.00  0.00    +0.000 A 
ATOM     18  C   UNL     1       1.419  11.717  18.802  0.00  0.00    +0.000 A 
ATOM     19  C   UNL     1       0.852  12.978  18.657  0.00  0.00    +0.000 A 
ATOM     20  C   UNL     1      -0.527  13.133  18.724  0.00  0.00    +0.000 A 
ATOM     21  C   UNL     1      -1.356  12.029  18.924  0.00  0.00    +0.000 A 
ATOM     22  C   UNL     1      -0.774  10.756  19.082  0.00  0.00    +0.000 A 
BRANCH  21  23
ATOM     23  N   UNL     1      -2.763  12.137  18.999  0.00  0.00    +0.000 N 
ATOM     24  C   UNL     1      -3.685  11.824  18.005  0.00  0.00    +0.000 C 
ATOM     25  O   UNL     1      -3.389  11.344  16.913  0.00  0.00    +0.000 OA
ATOM     26  H   UNL     1      -3.158  12.435  19.881  0.00  0.00    +0.000 HD
BRANCH  24  27
ATOM     27  C   UNL     1      -5.084  12.070  18.350  0.00  0.00    +0.000 A 
ATOM     28  C   UNL     1      -5.653  11.906  19.601  0.00  0.00    +0.000 A 
ATOM     29  C   UNL     1      -7.039  12.237  19.625  0.00  0.00    +0.000 A 
ATOM     30  C   UNL     1      -7.487  12.636  18.387  0.00  0.00    +0.000 A 
ATOM     31  S   UNL     1      -6.246  12.605  17.210  0.00  0.00    +0.000 S 
ENDBRANCH  24  27
ENDBRANCH  21  23
ENDBRANCH   3  17
TORSDOF 7
ENDMDL
MODEL 8
REMARK VINA RESULT:      -7.5      0.987      1.022
REMARK  Name = 
REMARK  8 active torsions:
REMARK  status: ('A' for Active; 'I' for Inactive)
REMARK    1  A    between atoms: C_1  and  C_2
REMARK    2  A    between atoms: C_2  and  O_3
REMARK    3  A    between atoms: O_3  and  C_4
REMARK    4  A    between atoms: C_7  and  C_8
REMARK    5  A    between atoms: N_10  and  C_11
REMARK    6  A    between atoms: C_15  and  N_16
REMARK    7  A    between atoms: C_17  and  C_19
REMARK    8  A    between atoms: C_26  and  N_27
REMARK                            x       y       z     vdW  Elec       q    Type
REMARK                         _______ _______ _______ _____ _____    ______ ____
ROOT
ATOM      1  C   UNL     1       1.589   8.462  19.840  0.00  0.00    +0.000 C 
ATOM      2  O   UNL     1       1.175   8.775  20.952  0.00  0.00    +0.000 OA
ATOM      3  N   UNL     1       1.475   9.209  18.677  0.00  0.00    +0.000 N 
ATOM      4  H   UNL     1       1.681   8.760  17.795  0.00  0.00    +0.000 HD
ENDROOT
BRANCH   1   8
ATOM      5  C   UNL     1       3.215   4.486  19.666  0.00  0.00    +0.000 A 
ATOM      6  C   UNL     1       2.235   4.839  20.593  0.00  0.00    +0.000 A 
ATOM      7  C   UNL     1       1.720   6.134  20.613  0.00  0.00    +0.000 A 
ATOM      8  C   UNL     1       2.193   7.114  19.727  0.00  0.00    +0.000 A 
ATOM      9  C   UNL     1       3.227   6.807  18.844  0.00  0.00    +0.000 A 
ATOM     10  C   UNL     1       3.731   5.493  18.837  0.00  0.00    +0.000 A 
BRANCH  10  11
ATOM     11  N   UNL     1       4.788   5.185  17.893  0.00  0.00    +0.000 N 
ATOM     12  O   UNL     1       5.959   5.296  18.279  0.00  0.00    +0.000 OA
ATOM     13  O   UNL     1       4.432   4.901  16.740  0.00  0.00    +0.000 OA
ENDBRANCH  10  11
BRANCH   5  14
ATOM     14  O   UNL     1       3.671   3.204  19.521  0.00  0.00    +0.000 OA
BRANCH  14  16
ATOM     15  C   UNL     1       2.338   2.283  17.755  0.00  0.00    +0.000 C 
ATOM     16  C   UNL     1       2.666   2.225  19.233  0.00  0.00    +0.000 C 
ENDBRANCH  14  16
ENDBRANCH   5  14
ENDBRANCH   1   8
BRANCH   3  17
ATOM     17  C   UNL     1       0.879  10.497  18.613  0.00  0.00    +0.000 A 
ATOM     18  C   UNL     1       1.638  11.670  18.639  0.00  0.00    +0.000 A 
ATOM     19  C   UNL     1       1.026  12.917  18.619  0.00  0.00    +0.000 A 
ATOM     20  C   UNL     1      -0.358  13.013  18.551  0.00  0.00    +0.000 A 
ATOM     21  C   UNL     1      -1.147  11.862  18.490  0.00  0.00    +0.000 A 
ATOM     22  C   UNL     1      -0.519  10.601  18.523  0.00  0.00    +0.000 A 
BRANCH  21  23
ATOM     23  N   UNL     1      -2.556  11.909  18.421  0.00  0.00    +0.000 N 
ATOM     24  C   UNL     1      -3.439  12.231  19.447  0.00  0.00    +0.000 C 
ATOM     25  O   UNL     1      -3.094  12.582  20.572  0.00  0.00    +0.000 OA
ATOM     26  H   UNL     1      -2.981  11.732  17.520  0.00  0.00    +0.000 HD
BRANCH  24  27
ATOM     27  C   UNL     1      -4.857  12.165  19.095  0.00  0.00    +0.000 A 
ATOM     28  C   UNL     1      -5.372  12.018  17.819  0.00  0.00    +0.000 A 
ATOM     29  C   UNL     1      -6.796  11.975  17.799  0.00  0.00    +0.000 A 
ATOM     30  C   UNL     1      -7.325  12.100  19.063  0.00  0.00    +0.000 A 
ATOM     31  S   UNL     1      -6.112  12.271  20.257  0.00  0.00    +0.000 S 
ENDBRANCH  24  27
ENDBRANCH  21  23
ENDBRANCH   3  17
TORSDOF 7
ENDMDL
MODEL 9
REMARK VINA RESULT:      -7.4      3.759      4.701
REMARK  Name = 
REMARK  8 active torsions:
REMARK  status: ('A' for Active; 'I' for Inactive)
REMARK    1  A    between atoms: C_1  and  C_2
REMARK    2  A    between atoms: C_2  and  O_3
REMARK    3  A    between atoms: O_3  and  C_4
REMARK    4  A    between atoms: C_7  and  C_8
REMARK    5  A    between atoms: N_10  and  C_11
REMARK    6  A    between atoms: C_15  and  N_16
REMARK    7  A    between atoms: C_17  and  C_19
REMARK    8  A    between atoms: C_26  and  N_27
REMARK                            x       y       z     vdW  Elec       q    Type
REMARK                         _______ _______ _______ _____ _____    ______ ____
ROOT
ATOM      1  C   UNL     1       1.776   7.659  20.132  0.00  0.00    +0.000 C 
ATOM      2  O   UNL     1       1.790   8.386  19.143  0.00  0.00    +0.000 OA
ATOM      3  N   UNL     1       1.285   7.984  21.388  0.00  0.00    +0.000 N 
ATOM      4  H   UNL     1       1.508   7.373  22.163  0.00  0.00    +0.000 HD
ENDROOT
BRANCH   1   8
ATOM      5  C   UNL     1       3.513   3.741  19.791  0.00  0.00    +0.000 A 
ATOM      6  C   UNL     1       2.332   3.962  20.500  0.00  0.00    +0.000 A 
ATOM      7  C   UNL     1       1.790   5.243  20.579  0.00  0.00    +0.000 A 
ATOM      8  C   UNL     1       2.428   6.338  19.976  0.00  0.00    +0.000 A 
ATOM      9  C   UNL     1       3.649   6.155  19.330  0.00  0.00    +0.000 A 
ATOM     10  C   UNL     1       4.179   4.853  19.257  0.00  0.00    +0.000 A 
BRANCH  10  11
ATOM     11  N   UNL     1       5.437   4.679  18.556  0.00  0.00    +0.000 N 
ATOM     12  O   UNL     1       6.479   4.700  19.224  0.00  0.00    +0.000 OA
ATOM     13  O   UNL     1       5.373   4.593  17.321  0.00  0.00    +0.000 OA
ENDBRANCH  10  11
BRANCH   5  14
ATOM     14  O   UNL     1       4.027   2.491  19.579  0.00  0.00    +0.000 OA
BRANCH  14  16
ATOM     15  C   UNL     1       2.808   2.188  17.538  0.00  0.00    +0.000 C 
ATOM     16  C   UNL     1       3.166   1.584  18.880  0.00  0.00    +0.000 C 
ENDBRANCH  14  16
ENDBRANCH   5  14
ENDBRANCH   1   8
BRANCH   3  17
ATOM     17  C   UNL     1       0.676   9.226  21.709  0.00  0.00    +0.000 A 
ATOM     18  C   UNL     1      -0.276   9.347  22.724  0.00  0.00    +0.000 A 
ATOM     19  C   UNL     1      -0.888  10.567  22.987  0.00  0.00    +0.000 A 
ATOM     20  C   UNL     1      -0.543  11.693  22.250  0.00  0.00    +0.000 A 
ATOM     21  C   UNL     1       0.428  11.616  21.250  0.00  0.00    +0.000 A 
ATOM     22  C   UNL     1       1.035  10.373  20.981  0.00  0.00    +0.000 A 
BRANCH  21  23
ATOM     23  N   UNL     1       0.811  12.732  20.475  0.00  0.00    +0.000 N 
ATOM     24  C   UNL     1       1.931  13.538  20.656  0.00  0.00    +0.000 C 
ATOM     25  O   UNL     1       2.793  13.343  21.511  0.00  0.00    +0.000 OA
ATOM     26  H   UNL     1       0.239  12.957  19.671  0.00  0.00    +0.000 HD
BRANCH  24  27
ATOM     27  C   UNL     1       2.059  14.652  19.718  0.00  0.00    +0.000 A 
ATOM     28  C   UNL     1       2.982  14.747  18.691  0.00  0.00    +0.000 A 
ATOM     29  C   UNL     1       2.850  15.951  17.940  0.00  0.00    +0.000 A 
ATOM     30  C   UNL     1       1.834  16.742  18.424  0.00  0.00    +0.000 A 
ATOM     31  S   UNL     1       1.054  16.038  19.773  0.00  0.00    +0.000 S 
ENDBRANCH  24  27
ENDBRANCH  21  23
ENDBRANCH   3  17
TORSDOF 7
ENDMDL
