MODEL 1
REMARK VINA RESULT:      -8.6      0.000      0.000
REMARK  Name = 
REMARK  8 active torsions:
REMARK  status: ('A' for Active; 'I' for Inactive)
REMARK    1  A    between atoms: C_2  and  C_3
REMARK    2  A    between atoms: C_4  and  C_5
REMARK    3  A    between atoms: C_9  and  C_10
REMARK    4  A    between atoms: C_16  and  N_17
REMARK    5  A    between atoms: N_17  and  C_18
REMARK    6  A    between atoms: C_18  and  C_19
REMARK    7  A    between atoms: C_19  and  C_20
REMARK    8  A    between atoms: C_20  and  N_21
REMARK                            x       y       z     vdW  Elec       q    Type
REMARK                         _______ _______ _______ _____ _____    ______ ____
ROOT
ATOM      1  C   UNL     1       2.105   6.902  19.926  0.00  0.00    +0.000 A 
ATOM      2  C   UNL     1       2.632   7.096  18.689  0.00  0.00    +0.000 A 
ATOM      3  C   UNL     1       2.453   8.391  18.024  0.00  0.00    +0.000 A 
ATOM      4  C   UNL     1       1.777   9.400  18.614  0.00  0.00    +0.000 A 
ATOM      5  N   UNL     1       1.260   9.168  19.915  0.00  0.00    +0.000 N 
ATOM      6  C   UNL     1       1.399   7.948  20.583  0.00  0.00    +0.000 A 
ATOM      7  N   UNL     1       0.812   7.958  21.762  0.00  0.00    +0.000 NA
ATOM      8  C   UNL     1       0.264   9.200  21.883  0.00  0.00    +0.000 A 
ATOM      9  C   UNL     1      -0.484   9.721  22.947  0.00  0.00    +0.000 A 
ATOM     10  C   UNL     1      -0.957  11.032  22.867  0.00  0.00    +0.000 A 
ATOM     11  C   UNL     1      -0.690  11.814  21.744  0.00  0.00    +0.000 A 
ATOM     12  C   UNL     1       0.052  11.310  20.668  0.00  0.00    +0.000 A 
ATOM     13  C   UNL     1       0.522   9.990  20.760  0.00  0.00    +0.000 A 
ENDROOT
BRANCH   2  14
ATOM     14  C   UNL     1       3.367   6.013  17.988  0.00  0.00    +0.000 A 
ATOM     15  C   UNL     1       2.724   4.813  17.660  0.00  0.00    +0.000 A 
ATOM     16  C   UNL     1       3.429   3.779  17.040  0.00  0.00    +0.000 A 
ATOM     17  C   UNL     1       4.786   3.928  16.751  0.00  0.00    +0.000 A 
ATOM     18  C   UNL     1       5.452   5.120  17.074  0.00  0.00    +0.000 A 
ATOM     19  C   UNL     1       4.730   6.160  17.687  0.00  0.00    +0.000 A 
BRANCH  18  20
ATOM     20  C   UNL     1       6.927   5.284  16.790  0.00  0.00    +0.000 C 
ATOM     21  F   UNL     1       7.398   6.538  17.041  0.00  0.00    +0.000 F 
ATOM     22  F   UNL     1       7.701   4.439  17.523  0.00  0.00    +0.000 F 
ATOM     23  F   UNL     1       7.228   5.030  15.486  0.00  0.00    +0.000 F 
ENDBRANCH  18  20
ENDBRANCH   2  14
BRANCH   1  25
ATOM     24  N   UNL     1       2.396   4.440  21.185  0.00  0.00    +0.000 NA
ATOM     25  C   UNL     1       2.264   5.556  20.614  0.00  0.00    +0.000 C 
ENDBRANCH   1  25
BRANCH   4  26
ATOM     26  N   UNL     1       1.519  10.617  17.997  0.00  0.00    +0.000 N 
ATOM     27  H   UNL     1       0.599  10.978  18.258  0.00  0.00    +0.000 HD
BRANCH  26  28
ATOM     28  C   UNL     1       2.523  11.669  17.869  0.00  0.00    +0.000 C 
BRANCH  28  29
ATOM     29  C   UNL     1       1.897  13.014  18.232  0.00  0.00    +0.000 C 
BRANCH  29  30
ATOM     30  C   UNL     1       2.976  14.016  18.630  0.00  0.00    +0.000 C 
BRANCH  30  31
ATOM     31  N   UNL     1       3.635  14.557  17.448  0.00  0.00    +0.000 NA
ATOM     32  H   UNL     1       3.013  15.213  16.974  0.00  0.00    +0.000 HD
ATOM     33  H   UNL     1       3.807  13.805  16.781  0.00  0.00    +0.000 HD
ENDBRANCH  30  31
ENDBRANCH  29  30
ENDBRANCH  28  29
ENDBRANCH  26  28
ENDBRANCH   4  26
TORSDOF 8
ENDMDL
MODEL 2
REMARK VINA RESULT:      -8.5      0.807      1.028
REMARK  Name = 
REMARK  8 active torsions:
REMARK  status: ('A' for Active; 'I' for Inactive)
REMARK    1  A    between atoms: C_2  and  C_3
REMARK    2  A    between atoms: C_4  and  C_5
REMARK    3  A    between atoms: C_9  and  C_10
REMARK    4  A    between atoms: C_16  and  N_17
REMARK    5  A    between atoms: N_17  and  C_18
REMARK    6  A    between atoms: C_18  and  C_19
REMARK    7  A    between atoms: C_19  and  C_20
REMARK    8  A    between atoms: C_20  and  N_21
REMARK                            x       y       z     vdW  Elec       q    Type
REMARK                         _______ _______ _______ _____ _____    ______ ____
ROOT
ATOM      1  C   UNL     1       2.060   6.810  20.001  0.00  0.00    +0.000 A 
ATOM      2  C   UNL     1       2.566   7.008  18.757  0.00  0.00    +0.000 A 
ATOM      3  C   UNL     1       2.361   8.299  18.093  0.00  0.00    +0.000 A 
ATOM      4  C   UNL     1       1.682   9.301  18.691  0.00  0.00    +0.000 A 
ATOM      5  N   UNL     1       1.186   9.064  20.000  0.00  0.00    +0.000 N 
ATOM      6  C   UNL     1       1.351   7.848  20.667  0.00  0.00    +0.000 A 
ATOM      7  N   UNL     1       0.782   7.854  21.855  0.00  0.00    +0.000 NA
ATOM      8  C   UNL     1       0.220   9.089  21.982  0.00  0.00    +0.000 A 
ATOM      9  C   UNL     1      -0.519   9.602  23.056  0.00  0.00    +0.000 A 
ATOM     10  C   UNL     1      -1.009  10.907  22.981  0.00  0.00    +0.000 A 
ATOM     11  C   UNL     1      -0.769  11.690  21.853  0.00  0.00    +0.000 A 
ATOM     12  C   UNL     1      -0.037  11.194  20.766  0.00  0.00    +0.000 A 
ATOM     13  C   UNL     1       0.452   9.880  20.854  0.00  0.00    +0.000 A 
ENDROOT
BRANCH   2  14
ATOM     14  C   UNL     1       3.304   5.932  18.047  0.00  0.00    +0.000 A 
ATOM     15  C   UNL     1       2.646   4.764  17.643  0.00  0.00    +0.000 A 
ATOM     16  C   UNL     1       3.352   3.736  17.015  0.00  0.00    +0.000 A 
ATOM     17  C   UNL     1       4.724   3.858  16.793  0.00  0.00    +0.000 A 
ATOM     18  C   UNL     1       5.405   5.018  17.193  0.00  0.00    +0.000 A 
ATOM     19  C   UNL     1       4.683   6.053  17.813  0.00  0.00    +0.000 A 
BRANCH  18  20
ATOM     20  C   UNL     1       6.895   5.152  16.981  0.00  0.00    +0.000 C 
ATOM     21  F   UNL     1       7.643   4.562  17.955  0.00  0.00    +0.000 F 
ATOM     22  F   UNL     1       7.310   4.606  15.806  0.00  0.00    +0.000 F 
ATOM     23  F   UNL     1       7.292   6.455  16.948  0.00  0.00    +0.000 F 
ENDBRANCH  18  20
ENDBRANCH   2  14
BRANCH   1  25
ATOM     24  N   UNL     1       2.401   4.354  21.261  0.00  0.00    +0.000 NA
ATOM     25  C   UNL     1       2.246   5.467  20.690  0.00  0.00    +0.000 C 
ENDBRANCH   1  25
BRANCH   4  26
ATOM     26  N   UNL     1       1.399  10.513  18.075  0.00  0.00    +0.000 N 
ATOM     27  H   UNL     1       0.519  10.906  18.416  0.00  0.00    +0.000 HD
BRANCH  26  28
ATOM     28  C   UNL     1       2.414  11.532  17.829  0.00  0.00    +0.000 C 
BRANCH  28  29
ATOM     29  C   UNL     1       2.254  12.663  18.842  0.00  0.00    +0.000 C 
BRANCH  29  30
ATOM     30  C   UNL     1       1.295  13.725  18.313  0.00  0.00    +0.000 C 
BRANCH  30  31
ATOM     31  N   UNL     1       0.012  13.128  17.960  0.00  0.00    +0.000 NA
ATOM     32  H   UNL     1      -0.748  13.696  18.335  0.00  0.00    +0.000 HD
ATOM     33  H   UNL     1      -0.073  12.217  18.410  0.00  0.00    +0.000 HD
ENDBRANCH  30  31
ENDBRANCH  29  30
ENDBRANCH  28  29
ENDBRANCH  26  28
ENDBRANCH   4  26
TORSDOF 8
ENDMDL
MODEL 3
REMARK VINA RESULT:      -8.1      1.469      2.071
REMARK  Name = 
REMARK  8 active torsions:
REMARK  status: ('A' for Active; 'I' for Inactive)
REMARK    1  A    between atoms: C_2  and  C_3
REMARK    2  A    between atoms: C_4  and  C_5
REMARK    3  A    between atoms: C_9  and  C_10
REMARK    4  A    between atoms: C_16  and  N_17
REMARK    5  A    between atoms: N_17  and  C_18
REMARK    6  A    between atoms: C_18  and  C_19
REMARK    7  A    between atoms: C_19  and  C_20
REMARK    8  A    between atoms: C_20  and  N_21
REMARK                            x       y       z     vdW  Elec       q    Type
REMARK                         _______ _______ _______ _____ _____    ______ ____
ROOT
ATOM      1  C   UNL     1       2.022   6.896  19.985  0.00  0.00    +0.000 A 
ATOM      2  C   UNL     1       2.408   7.080  18.696  0.00  0.00    +0.000 A 
ATOM      3  C   UNL     1       2.087   8.341  18.021  0.00  0.00    +0.000 A 
ATOM      4  C   UNL     1       1.417   9.329  18.651  0.00  0.00    +0.000 A 
ATOM      5  N   UNL     1       1.049   9.110  20.005  0.00  0.00    +0.000 N 
ATOM      6  C   UNL     1       1.327   7.921  20.685  0.00  0.00    +0.000 A 
ATOM      7  N   UNL     1       0.863   7.936  21.918  0.00  0.00    +0.000 NA
ATOM      8  C   UNL     1       0.258   9.149  22.063  0.00  0.00    +0.000 A 
ATOM      9  C   UNL     1      -0.407   9.660  23.185  0.00  0.00    +0.000 A 
ATOM     10  C   UNL     1      -0.961  10.940  23.120  0.00  0.00    +0.000 A 
ATOM     11  C   UNL     1      -0.857  11.700  21.957  0.00  0.00    +0.000 A 
ATOM     12  C   UNL     1      -0.199  11.205  20.822  0.00  0.00    +0.000 A 
ATOM     13  C   UNL     1       0.355   9.916  20.900  0.00  0.00    +0.000 A 
ENDROOT
BRANCH   2  14
ATOM     14  C   UNL     1       3.130   6.018  17.952  0.00  0.00    +0.000 A 
ATOM     15  C   UNL     1       2.519   4.784  17.698  0.00  0.00    +0.000 A 
ATOM     16  C   UNL     1       3.215   3.771  17.036  0.00  0.00    +0.000 A 
ATOM     17  C   UNL     1       4.535   3.976  16.628  0.00  0.00    +0.000 A 
ATOM     18  C   UNL     1       5.169   5.203  16.875  0.00  0.00    +0.000 A 
ATOM     19  C   UNL     1       4.454   6.220  17.531  0.00  0.00    +0.000 A 
BRANCH  18  20
ATOM     20  C   UNL     1       6.605   5.428  16.461  0.00  0.00    +0.000 C 
ATOM     21  F   UNL     1       7.093   6.650  16.816  0.00  0.00    +0.000 F 
ATOM     22  F   UNL     1       7.456   4.513  16.999  0.00  0.00    +0.000 F 
ATOM     23  F   UNL     1       6.768   5.343  15.111  0.00  0.00    +0.000 F 
ENDBRANCH  18  20
ENDBRANCH   2  14
BRANCH   1  25
ATOM     24  N   UNL     1       2.583   4.494  21.271  0.00  0.00    +0.000 NA
ATOM     25  C   UNL     1       2.329   5.583  20.688  0.00  0.00    +0.000 C 
ENDBRANCH   1  25
BRANCH   4  26
ATOM     26  N   UNL     1       1.027  10.510  18.033  0.00  0.00    +0.000 N 
ATOM     27  H   UNL     1       1.574  10.685  17.187  0.00  0.00    +0.000 HD
BRANCH  26  28
ATOM     28  C   UNL     1      -0.371  10.904  17.891  0.00  0.00    +0.000 C 
BRANCH  28  29
ATOM     29  C   UNL     1      -1.179   9.725  17.352  0.00  0.00    +0.000 C 
BRANCH  29  30
ATOM     30  C   UNL     1      -2.531  10.198  16.826  0.00  0.00    +0.000 C 
BRANCH  30  31
ATOM     31  N   UNL     1      -2.391  11.462  16.112  0.00  0.00    +0.000 NA
ATOM     32  H   UNL     1      -3.182  11.591  15.480  0.00  0.00    +0.000 HD
ATOM     33  H   UNL     1      -1.563  11.426  15.518  0.00  0.00    +0.000 HD
ENDBRANCH  30  31
ENDBRANCH  29  30
ENDBRANCH  28  29
ENDBRANCH  26  28
ENDBRANCH   4  26
TORSDOF 8
ENDMDL
MODEL 4
REMARK VINA RESULT:      -7.8      1.800      2.300
REMARK  Name = 
REMARK  8 active torsions:
REMARK  status: ('A' for Active; 'I' for Inactive)
REMARK    1  A    between atoms: C_2  and  C_3
REMARK    2  A    between atoms: C_4  and  C_5
REMARK    3  A    between atoms: C_9  and  C_10
REMARK    4  A    between atoms: C_16  and  N_17
REMARK    5  A    between atoms: N_17  and  C_18
REMARK    6  A    between atoms: C_18  and  C_19
REMARK    7  A    between atoms: C_19  and  C_20
REMARK    8  A    between atoms: C_20  and  N_21
REMARK                            x       y       z     vdW  Elec       q    Type
REMARK                         _______ _______ _______ _____ _____    ______ ____
ROOT
ATOM      1  C   UNL     1       1.973   7.123  19.995  0.00  0.00    +0.000 A 
ATOM      2  C   UNL     1       2.523   7.309  18.768  0.00  0.00    +0.000 A 
ATOM      3  C   UNL     1       2.366   8.603  18.096  0.00  0.00    +0.000 A 
ATOM      4  C   UNL     1       1.690   9.620  18.671  0.00  0.00    +0.000 A 
ATOM      5  N   UNL     1       1.147   9.396  19.963  0.00  0.00    +0.000 N 
ATOM      6  C   UNL     1       1.265   8.177  20.637  0.00  0.00    +0.000 A 
ATOM      7  N   UNL     1       0.658   8.197  21.806  0.00  0.00    +0.000 NA
ATOM      8  C   UNL     1       0.118   9.444  21.913  0.00  0.00    +0.000 A 
ATOM      9  C   UNL     1      -0.645   9.974  22.962  0.00  0.00    +0.000 A 
ATOM     10  C   UNL     1      -1.104  11.289  22.870  0.00  0.00    +0.000 A 
ATOM     11  C   UNL     1      -0.812  12.065  21.749  0.00  0.00    +0.000 A 
ATOM     12  C   UNL     1      -0.055  11.552  20.687  0.00  0.00    +0.000 A 
ATOM     13  C   UNL     1       0.402  10.228  20.793  0.00  0.00    +0.000 A 
ENDROOT
BRANCH   2  14
ATOM     14  C   UNL     1       3.261   6.217  18.084  0.00  0.00    +0.000 A 
ATOM     15  C   UNL     1       4.271   6.510  17.160  0.00  0.00    +0.000 A 
ATOM     16  C   UNL     1       4.933   5.482  16.486  0.00  0.00    +0.000 A 
ATOM     17  C   UNL     1       4.587   4.150  16.719  0.00  0.00    +0.000 A 
ATOM     18  C   UNL     1       3.574   3.833  17.638  0.00  0.00    +0.000 A 
ATOM     19  C   UNL     1       2.922   4.876  18.320  0.00  0.00    +0.000 A 
BRANCH  18  20
ATOM     20  C   UNL     1       3.173   2.397  17.880  0.00  0.00    +0.000 C 
ATOM     21  F   UNL     1       2.003   2.045  17.275  0.00  0.00    +0.000 F 
ATOM     22  F   UNL     1       4.104   1.509  17.441  0.00  0.00    +0.000 F 
ATOM     23  F   UNL     1       2.998   2.131  19.205  0.00  0.00    +0.000 F 
ENDBRANCH  18  20
ENDBRANCH   2  14
BRANCH   1  25
ATOM     24  N   UNL     1       2.221   4.663  21.268  0.00  0.00    +0.000 NA
ATOM     25  C   UNL     1       2.108   5.779  20.691  0.00  0.00    +0.000 C 
ENDBRANCH   1  25
BRANCH   4  26
ATOM     26  N   UNL     1       1.452  10.837  18.045  0.00  0.00    +0.000 N 
ATOM     27  H   UNL     1       0.514  11.185  18.253  0.00  0.00    +0.000 HD
BRANCH  26  28
ATOM     28  C   UNL     1       2.448  11.902  17.982  0.00  0.00    +0.000 C 
BRANCH  28  29
ATOM     29  C   UNL     1       1.761  13.251  18.182  0.00  0.00    +0.000 C 
BRANCH  29  30
ATOM     30  C   UNL     1       2.793  14.348  18.421  0.00  0.00    +0.000 C 
BRANCH  30  31
ATOM     31  N   UNL     1       4.063  14.004  17.792  0.00  0.00    +0.000 NA
ATOM     32  H   UNL     1       3.937  13.202  17.174  0.00  0.00    +0.000 HD
ATOM     33  H   UNL     1       4.725  13.703  18.507  0.00  0.00    +0.000 HD
ENDBRANCH  30  31
ENDBRANCH  29  30
ENDBRANCH  28  29
ENDBRANCH  26  28
ENDBRANCH   4  26
TORSDOF 8
ENDMDL
MODEL 5
REMARK VINA RESULT:      -7.6      1.945      2.490
REMARK  Name = 
REMARK  8 active torsions:
REMARK  status: ('A' for Active; 'I' for Inactive)
REMARK    1  A    between atoms: C_2  and  C_3
REMARK    2  A    between atoms: C_4  and  C_5
REMARK    3  A    between atoms: C_9  and  C_10
REMARK    4  A    between atoms: C_16  and  N_17
REMARK    5  A    between atoms: N_17  and  C_18
REMARK    6  A    between atoms: C_18  and  C_19
REMARK    7  A    between atoms: C_19  and  C_20
REMARK    8  A    between atoms: C_20  and  N_21
REMARK                            x       y       z     vdW  Elec       q    Type
REMARK                         _______ _______ _______ _____ _____    ______ ____
ROOT
ATOM      1  C   UNL     1       1.909   7.095  20.089  0.00  0.00    +0.000 A 
ATOM      2  C   UNL     1       2.447   7.318  18.862  0.00  0.00    +0.000 A 
ATOM      3  C   UNL     1       2.270   8.626  18.224  0.00  0.00    +0.000 A 
ATOM      4  C   UNL     1       1.586   9.620  18.829  0.00  0.00    +0.000 A 
ATOM      5  N   UNL     1       1.056   9.357  20.120  0.00  0.00    +0.000 N 
ATOM      6  C   UNL     1       1.193   8.123  20.761  0.00  0.00    +0.000 A 
ATOM      7  N   UNL     1       0.594   8.107  21.935  0.00  0.00    +0.000 NA
ATOM      8  C   UNL     1       0.041   9.344  22.078  0.00  0.00    +0.000 A 
ATOM      9  C   UNL     1      -0.720   9.838  23.145  0.00  0.00    +0.000 A 
ATOM     10  C   UNL     1      -1.196  11.150  23.089  0.00  0.00    +0.000 A 
ATOM     11  C   UNL     1      -0.921  11.957  21.987  0.00  0.00    +0.000 A 
ATOM     12  C   UNL     1      -0.166  11.480  20.907  0.00  0.00    +0.000 A 
ATOM     13  C   UNL     1       0.308  10.159  20.975  0.00  0.00    +0.000 A 
ENDROOT
BRANCH   2  14
ATOM     14  C   UNL     1       3.193   6.252  18.145  0.00  0.00    +0.000 A 
ATOM     15  C   UNL     1       4.197   6.580  17.226  0.00  0.00    +0.000 A 
ATOM     16  C   UNL     1       4.866   5.578  16.521  0.00  0.00    +0.000 A 
ATOM     17  C   UNL     1       4.533   4.236  16.719  0.00  0.00    +0.000 A 
ATOM     18  C   UNL     1       3.528   3.884  17.633  0.00  0.00    +0.000 A 
ATOM     19  C   UNL     1       2.869   4.901  18.347  0.00  0.00    +0.000 A 
BRANCH  18  20
ATOM     20  C   UNL     1       3.141   2.439  17.838  0.00  0.00    +0.000 C 
ATOM     21  F   UNL     1       2.824   2.133  19.128  0.00  0.00    +0.000 F 
ATOM     22  F   UNL     1       2.065   2.071  17.091  0.00  0.00    +0.000 F 
ATOM     23  F   UNL     1       4.145   1.586  17.492  0.00  0.00    +0.000 F 
ENDBRANCH  18  20
ENDBRANCH   2  14
BRANCH   1  25
ATOM     24  N   UNL     1       2.195   4.606  21.296  0.00  0.00    +0.000 NA
ATOM     25  C   UNL     1       2.065   5.734  20.749  0.00  0.00    +0.000 C 
ENDBRANCH   1  25
BRANCH   4  26
ATOM     26  N   UNL     1       1.330  10.849  18.236  0.00  0.00    +0.000 N 
ATOM     27  H   UNL     1       0.397  11.191  18.478  0.00  0.00    +0.000 HD
BRANCH  26  28
ATOM     28  C   UNL     1       2.322  11.918  18.168  0.00  0.00    +0.000 C 
BRANCH  28  29
ATOM     29  C   UNL     1       1.622  13.241  17.869  0.00  0.00    +0.000 C 
BRANCH  29  30
ATOM     30  C   UNL     1       0.244  13.278  18.522  0.00  0.00    +0.000 C 
BRANCH  30  31
ATOM     31  N   UNL     1      -0.795  12.970  17.546  0.00  0.00    +0.000 NA
ATOM     32  H   UNL     1      -1.714  13.147  17.951  0.00  0.00    +0.000 HD
ATOM     33  H   UNL     1      -0.772  11.974  17.330  0.00  0.00    +0.000 HD
ENDBRANCH  30  31
ENDBRANCH  29  30
ENDBRANCH  28  29
ENDBRANCH  26  28
ENDBRANCH   4  26
TORSDOF 8
ENDMDL
MODEL 6
REMARK VINA RESULT:      -7.5      4.391      7.695
REMARK  Name = 
REMARK  8 active torsions:
REMARK  status: ('A' for Active; 'I' for Inactive)
REMARK    1  A    between atoms: C_2  and  C_3
REMARK    2  A    between atoms: C_4  and  C_5
REMARK    3  A    between atoms: C_9  and  C_10
REMARK    4  A    between atoms: C_16  and  N_17
REMARK    5  A    between atoms: N_17  and  C_18
REMARK    6  A    between atoms: C_18  and  C_19
REMARK    7  A    between atoms: C_19  and  C_20
REMARK    8  A    between atoms: C_20  and  N_21
REMARK                            x       y       z     vdW  Elec       q    Type
REMARK                         _______ _______ _______ _____ _____    ______ ____
ROOT
ATOM      1  C   UNL     1       1.446   7.740  19.930  0.00  0.00    +0.000 A 
ATOM      2  C   UNL     1       1.765   8.569  18.903  0.00  0.00    +0.000 A 
ATOM      3  C   UNL     1       2.740   8.130  17.899  0.00  0.00    +0.000 A 
ATOM      4  C   UNL     1       3.328   6.917  17.968  0.00  0.00    +0.000 A 
ATOM      5  N   UNL     1       2.953   6.069  19.044  0.00  0.00    +0.000 N 
ATOM      6  C   UNL     1       2.036   6.449  20.027  0.00  0.00    +0.000 A 
ATOM      7  N   UNL     1       1.870   5.512  20.938  0.00  0.00    +0.000 NA
ATOM      8  C   UNL     1       2.695   4.493  20.565  0.00  0.00    +0.000 A 
ATOM      9  C   UNL     1       2.905   3.265  21.205  0.00  0.00    +0.000 A 
ATOM     10  C   UNL     1       3.804   2.353  20.647  0.00  0.00    +0.000 A 
ATOM     11  C   UNL     1       4.484   2.660  19.470  0.00  0.00    +0.000 A 
ATOM     12  C   UNL     1       4.291   3.884  18.816  0.00  0.00    +0.000 A 
ATOM     13  C   UNL     1       3.384   4.792  19.387  0.00  0.00    +0.000 A 
ENDROOT
BRANCH   2  14
ATOM     14  C   UNL     1       1.162   9.921  18.791  0.00  0.00    +0.000 A 
ATOM     15  C   UNL     1       1.925  11.066  19.050  0.00  0.00    +0.000 A 
ATOM     16  C   UNL     1       1.344  12.333  18.987  0.00  0.00    +0.000 A 
ATOM     17  C   UNL     1      -0.009  12.472  18.673  0.00  0.00    +0.000 A 
ATOM     18  C   UNL     1      -0.795  11.338  18.413  0.00  0.00    +0.000 A 
ATOM     19  C   UNL     1      -0.196  10.067  18.467  0.00  0.00    +0.000 A 
BRANCH  18  20
ATOM     20  C   UNL     1      -2.266  11.473  18.097  0.00  0.00    +0.000 C 
ATOM     21  F   UNL     1      -2.919  12.366  18.894  0.00  0.00    +0.000 F 
ATOM     22  F   UNL     1      -2.495  11.876  16.818  0.00  0.00    +0.000 F 
ATOM     23  F   UNL     1      -2.931  10.293  18.242  0.00  0.00    +0.000 F 
ENDBRANCH  18  20
ENDBRANCH   2  14
BRANCH   1  25
ATOM     24  N   UNL     1      -0.367   8.570  21.869  0.00  0.00    +0.000 NA
ATOM     25  C   UNL     1       0.455   8.194  20.990  0.00  0.00    +0.000 C 
ENDBRANCH   1  25
BRANCH   4  26
ATOM     26  N   UNL     1       4.309   6.486  17.085  0.00  0.00    +0.000 N 
ATOM     27  H   UNL     1       3.938   6.388  16.137  0.00  0.00    +0.000 HD
BRANCH  26  28
ATOM     28  C   UNL     1       5.674   7.002  17.106  0.00  0.00    +0.000 C 
BRANCH  28  29
ATOM     29  C   UNL     1       6.641   5.894  16.694  0.00  0.00    +0.000 C 
BRANCH  29  30
ATOM     30  C   UNL     1       7.514   5.478  17.874  0.00  0.00    +0.000 C 
BRANCH  30  31
ATOM     31  N   UNL     1       8.055   4.140  17.667  0.00  0.00    +0.000 NA
ATOM     32  H   UNL     1       9.004   4.090  18.038  0.00  0.00    +0.000 HD
ATOM     33  H   UNL     1       8.136   3.959  16.667  0.00  0.00    +0.000 HD
ENDBRANCH  30  31
ENDBRANCH  29  30
ENDBRANCH  28  29
ENDBRANCH  26  28
ENDBRANCH   4  26
TORSDOF 8
ENDMDL
MODEL 7
REMARK VINA RESULT:      -7.5      4.056      8.508
REMARK  Name = 
REMARK  8 active torsions:
REMARK  status: ('A' for Active; 'I' for Inactive)
REMARK    1  A    between atoms: C_2  and  C_3
REMARK    2  A    between atoms: C_4  and  C_5
REMARK    3  A    between atoms: C_9  and  C_10
REMARK    4  A    between atoms: C_16  and  N_17
REMARK    5  A    between atoms: N_17  and  C_18
REMARK    6  A    between atoms: C_18  and  C_19
REMARK    7  A    between atoms: C_19  and  C_20
REMARK    8  A    between atoms: C_20  and  N_21
REMARK                            x       y       z     vdW  Elec       q    Type
REMARK                         _______ _______ _______ _____ _____    ______ ____
ROOT
ATOM      1  C   UNL     1       2.537   8.216  18.633  0.00  0.00    +0.000 A 
ATOM      2  C   UNL     1       1.914   7.851  19.784  0.00  0.00    +0.000 A 
ATOM      3  C   UNL     1       2.055   6.477  20.275  0.00  0.00    +0.000 A 
ATOM      4  C   UNL     1       2.794   5.562  19.612  0.00  0.00    +0.000 A 
ATOM      5  N   UNL     1       3.447   5.986  18.425  0.00  0.00    +0.000 N 
ATOM      6  C   UNL     1       3.335   7.282  17.916  0.00  0.00    +0.000 A 
ATOM      7  N   UNL     1       4.004   7.432  16.791  0.00  0.00    +0.000 NA
ATOM      8  C   UNL     1       4.566   6.217  16.538  0.00  0.00    +0.000 A 
ATOM      9  C   UNL     1       5.366   5.837  15.452  0.00  0.00    +0.000 A 
ATOM     10  C   UNL     1       5.843   4.527  15.387  0.00  0.00    +0.000 A 
ATOM     11  C   UNL     1       5.529   3.607  16.385  0.00  0.00    +0.000 A 
ATOM     12  C   UNL     1       4.726   3.965  17.477  0.00  0.00    +0.000 A 
ATOM     13  C   UNL     1       4.252   5.286  17.532  0.00  0.00    +0.000 A 
ENDROOT
BRANCH   2  14
ATOM     14  C   UNL     1       1.074   8.814  20.541  0.00  0.00    +0.000 A 
ATOM     15  C   UNL     1       1.081   8.817  21.941  0.00  0.00    +0.000 A 
ATOM     16  C   UNL     1       0.258   9.693  22.651  0.00  0.00    +0.000 A 
ATOM     17  C   UNL     1      -0.589  10.570  21.970  0.00  0.00    +0.000 A 
ATOM     18  C   UNL     1      -0.615  10.582  20.567  0.00  0.00    +0.000 A 
ATOM     19  C   UNL     1       0.228   9.704  19.862  0.00  0.00    +0.000 A 
BRANCH  18  20
ATOM     20  C   UNL     1      -1.544  11.508  19.819  0.00  0.00    +0.000 C 
ATOM     21  F   UNL     1      -2.266  10.889  18.842  0.00  0.00    +0.000 F 
ATOM     22  F   UNL     1      -2.454  12.109  20.632  0.00  0.00    +0.000 F 
ATOM     23  F   UNL     1      -0.872  12.518  19.199  0.00  0.00    +0.000 F 
ENDBRANCH  18  20
ENDBRANCH   2  14
BRANCH   1  25
ATOM     24  N   UNL     1       2.247  10.806  17.661  0.00  0.00    +0.000 NA
ATOM     25  C   UNL     1       2.379   9.632  18.102  0.00  0.00    +0.000 C 
ENDBRANCH   1  25
BRANCH   4  26
ATOM     26  N   UNL     1       2.897   4.232  19.997  0.00  0.00    +0.000 N 
ATOM     27  H   UNL     1       3.875   3.944  20.078  0.00  0.00    +0.000 HD
BRANCH  26  28
ATOM     28  C   UNL     1       2.046   3.636  21.022  0.00  0.00    +0.000 C 
BRANCH  28  29
ATOM     29  C   UNL     1       0.934   2.831  20.354  0.00  0.00    +0.000 C 
BRANCH  29  30
ATOM     30  C   UNL     1       1.212   2.668  18.863  0.00  0.00    +0.000 C 
BRANCH  30  31
ATOM     31  N   UNL     1       2.116   1.549  18.628  0.00  0.00    +0.000 NA
ATOM     32  H   UNL     1       2.325   1.081  19.511  0.00  0.00    +0.000 HD
ATOM     33  H   UNL     1       3.009   1.901  18.282  0.00  0.00    +0.000 HD
ENDBRANCH  30  31
ENDBRANCH  29  30
ENDBRANCH  28  29
ENDBRANCH  26  28
ENDBRANCH   4  26
TORSDOF 8
ENDMDL
MODEL 8
REMARK VINA RESULT:      -7.4      3.997      8.466
REMARK  Name = 
REMARK  8 active torsions:
REMARK  status: ('A' for Active; 'I' for Inactive)
REMARK    1  A    between atoms: C_2  and  C_3
REMARK    2  A    between atoms: C_4  and  C_5
REMARK    3  A    between atoms: C_9  and  C_10
REMARK    4  A    between atoms: C_16  and  N_17
REMARK    5  A    between atoms: N_17  and  C_18
REMARK    6  A    between atoms: C_18  and  C_19
REMARK    7  A    between atoms: C_19  and  C_20
REMARK    8  A    between atoms: C_20  and  N_21
REMARK                            x       y       z     vdW  Elec       q    Type
REMARK                         _______ _______ _______ _____ _____    ______ ____
ROOT
ATOM      1  C   UNL     1       2.674   8.140  18.468  0.00  0.00    +0.000 A 
ATOM      2  C   UNL     1       2.055   7.724  19.603  0.00  0.00    +0.000 A 
ATOM      3  C   UNL     1       2.212   6.333  20.041  0.00  0.00    +0.000 A 
ATOM      4  C   UNL     1       2.963   5.454  19.344  0.00  0.00    +0.000 A 
ATOM      5  N   UNL     1       3.613   5.931  18.176  0.00  0.00    +0.000 N 
ATOM      6  C   UNL     1       3.484   7.245  17.717  0.00  0.00    +0.000 A 
ATOM      7  N   UNL     1       4.153   7.447  16.600  0.00  0.00    +0.000 NA
ATOM      8  C   UNL     1       4.730   6.249  16.301  0.00  0.00    +0.000 A 
ATOM      9  C   UNL     1       5.536   5.922  15.202  0.00  0.00    +0.000 A 
ATOM     10  C   UNL     1       6.031   4.621  15.087  0.00  0.00    +0.000 A 
ATOM     11  C   UNL     1       5.727   3.659  16.049  0.00  0.00    +0.000 A 
ATOM     12  C   UNL     1       4.918   3.965  17.152  0.00  0.00    +0.000 A 
ATOM     13  C   UNL     1       4.428   5.277  17.258  0.00  0.00    +0.000 A 
ENDROOT
BRANCH   2  14
ATOM     14  C   UNL     1       1.202   8.645  20.395  0.00  0.00    +0.000 A 
ATOM     15  C   UNL     1       1.178   8.569  21.793  0.00  0.00    +0.000 A 
ATOM     16  C   UNL     1       0.342   9.407  22.533  0.00  0.00    +0.000 A 
ATOM     17  C   UNL     1      -0.486  10.325  21.886  0.00  0.00    +0.000 A 
ATOM     18  C   UNL     1      -0.481  10.417  20.485  0.00  0.00    +0.000 A 
ATOM     19  C   UNL     1       0.373   9.576  19.750  0.00  0.00    +0.000 A 
BRANCH  18  20
ATOM     20  C   UNL     1      -1.391  11.389  19.771  0.00  0.00    +0.000 C 
ATOM     21  F   UNL     1      -2.137  12.161  20.611  0.00  0.00    +0.000 F 
ATOM     22  F   UNL     1      -0.712  12.254  18.970  0.00  0.00    +0.000 F 
ATOM     23  F   UNL     1      -2.284  10.753  18.962  0.00  0.00    +0.000 F 
ENDBRANCH  18  20
ENDBRANCH   2  14
BRANCH   1  25
ATOM     24  N   UNL     1       2.352  10.762  17.596  0.00  0.00    +0.000 NA
ATOM     25  C   UNL     1       2.498   9.573  17.992  0.00  0.00    +0.000 C 
ENDBRANCH   1  25
BRANCH   4  26
ATOM     26  N   UNL     1       3.083   4.111  19.678  0.00  0.00    +0.000 N 
ATOM     27  H   UNL     1       3.432   3.995  20.632  0.00  0.00    +0.000 HD
BRANCH  26  28
ATOM     28  C   UNL     1       2.080   3.114  19.320  0.00  0.00    +0.000 C 
BRANCH  28  29
ATOM     29  C   UNL     1       0.924   3.176  20.316  0.00  0.00    +0.000 C 
BRANCH  29  30
ATOM     30  C   UNL     1       1.295   2.462  21.612  0.00  0.00    +0.000 C 
BRANCH  30  31
ATOM     31  N   UNL     1       2.333   3.197  22.325  0.00  0.00    +0.000 NA
ATOM     32  H   UNL     1       2.937   2.544  22.826  0.00  0.00    +0.000 HD
ATOM     33  H   UNL     1       1.903   3.783  23.039  0.00  0.00    +0.000 HD
ENDBRANCH  30  31
ENDBRANCH  29  30
ENDBRANCH  28  29
ENDBRANCH  26  28
ENDBRANCH   4  26
TORSDOF 8
ENDMDL
MODEL 9
REMARK VINA RESULT:      -7.4      3.687      7.250
REMARK  Name = 
REMARK  8 active torsions:
REMARK  status: ('A' for Active; 'I' for Inactive)
REMARK    1  A    between atoms: C_2  and  C_3
REMARK    2  A    between atoms: C_4  and  C_5
REMARK    3  A    between atoms: C_9  and  C_10
REMARK    4  A    between atoms: C_16  and  N_17
REMARK    5  A    between atoms: N_17  and  C_18
REMARK    6  A    between atoms: C_18  and  C_19
REMARK    7  A    between atoms: C_19  and  C_20
REMARK    8  A    between atoms: C_20  and  N_21
REMARK                            x       y       z     vdW  Elec       q    Type
REMARK                         _______ _______ _______ _____ _____    ______ ____
ROOT
ATOM      1  C   UNL     1       1.340   8.009  20.064  0.00  0.00    +0.000 A 
ATOM      2  C   UNL     1       1.686   8.772  18.996  0.00  0.00    +0.000 A 
ATOM      3  C   UNL     1       2.587   8.222  17.979  0.00  0.00    +0.000 A 
ATOM      4  C   UNL     1       3.081   6.970  18.076  0.00  0.00    +0.000 A 
ATOM      5  N   UNL     1       2.680   6.194  19.195  0.00  0.00    +0.000 N 
ATOM      6  C   UNL     1       1.830   6.680  20.192  0.00  0.00    +0.000 A 
ATOM      7  N   UNL     1       1.624   5.792  21.143  0.00  0.00    +0.000 NA
ATOM      8  C   UNL     1       2.354   4.698  20.782  0.00  0.00    +0.000 A 
ATOM      9  C   UNL     1       2.491   3.481  21.463  0.00  0.00    +0.000 A 
ATOM     10  C   UNL     1       3.295   2.482  20.911  0.00  0.00    +0.000 A 
ATOM     11  C   UNL     1       3.956   2.691  19.701  0.00  0.00    +0.000 A 
ATOM     12  C   UNL     1       3.836   3.903  19.008  0.00  0.00    +0.000 A 
ATOM     13  C   UNL     1       3.023   4.900  19.573  0.00  0.00    +0.000 A 
ENDROOT
BRANCH   2  14
ATOM     14  C   UNL     1       1.186  10.163  18.852  0.00  0.00    +0.000 A 
ATOM     15  C   UNL     1      -0.174  10.411  18.624  0.00  0.00    +0.000 A 
ATOM     16  C   UNL     1      -0.634  11.716  18.445  0.00  0.00    +0.000 A 
ATOM     17  C   UNL     1       0.258  12.789  18.482  0.00  0.00    +0.000 A 
ATOM     18  C   UNL     1       1.625  12.564  18.705  0.00  0.00    +0.000 A 
ATOM     19  C   UNL     1       2.077  11.246  18.897  0.00  0.00    +0.000 A 
BRANCH  18  20
ATOM     20  C   UNL     1       2.605  13.714  18.722  0.00  0.00    +0.000 C 
ATOM     21  F   UNL     1       3.763  13.458  18.049  0.00  0.00    +0.000 F 
ATOM     22  F   UNL     1       2.095  14.848  18.172  0.00  0.00    +0.000 F 
ATOM     23  F   UNL     1       2.980  14.048  19.988  0.00  0.00    +0.000 F 
ENDBRANCH  18  20
ENDBRANCH   2  14
BRANCH   1  25
ATOM     24  N   UNL     1      -0.334   9.048  22.027  0.00  0.00    +0.000 NA
ATOM     25  C   UNL     1       0.425   8.577  21.137  0.00  0.00    +0.000 C 
ENDBRANCH   1  25
BRANCH   4  26
ATOM     26  N   UNL     1       3.994   6.432  17.178  0.00  0.00    +0.000 N 
ATOM     27  H   UNL     1       3.552   6.220  16.281  0.00  0.00    +0.000 HD
BRANCH  26  28
ATOM     28  C   UNL     1       5.354   6.942  17.030  0.00  0.00    +0.000 C 
BRANCH  28  29
ATOM     29  C   UNL     1       6.308   6.093  17.867  0.00  0.00    +0.000 C 
BRANCH  29  30
ATOM     30  C   UNL     1       7.065   5.107  16.982  0.00  0.00    +0.000 C 
BRANCH  30  31
ATOM     31  N   UNL     1       7.838   4.176  17.794  0.00  0.00    +0.000 NA
ATOM     32  H   UNL     1       7.367   3.271  17.827  0.00  0.00    +0.000 HD
ATOM     33  H   UNL     1       7.867   4.510  18.757  0.00  0.00    +0.000 HD
ENDBRANCH  30  31
ENDBRANCH  29  30
ENDBRANCH  28  29
ENDBRANCH  26  28
ENDBRANCH   4  26
TORSDOF 8
ENDMDL
