MODEL 1
REMARK VINA RESULT:      -8.0      0.000      0.000
REMARK  Name = 
REMARK  6 active torsions:
REMARK  status: ('A' for Active; 'I' for Inactive)
REMARK    1  A    between atoms: C_1  and  C_2
REMARK    2  A    between atoms: C_2  and  C_3
REMARK    3  A    between atoms: N_7  and  O_8
REMARK    4  A    between atoms: O_8  and  S_9
REMARK    5  A    between atoms: S_9  and  C_12
REMARK    6  A    between atoms: C_13  and  C_14
REMARK                            x       y       z     vdW  Elec       q    Type
REMARK                         _______ _______ _______ _____ _____    ______ ____
ROOT
ATOM      1  S   UNL     1       5.137   4.617  18.537  0.00  0.00    +0.000 S 
ATOM      2  O   UNL     1       5.632   5.707  19.357  0.00  0.00    +0.000 OA
ATOM      3  O   UNL     1       5.045   3.281  19.091  0.00  0.00    +0.000 OA
ENDROOT
BRANCH   1   4
ATOM      4  C   UNL     1       6.052   4.561  17.063  0.00  0.00    +0.000 C 
ATOM      5  C   UNL     1       5.351   4.482  15.918  0.00  0.00    +0.000 C 
BRANCH   5   6
ATOM      6  C   UNL     1       5.902   4.358  14.563  0.00  0.00    +0.000 A 
ATOM      7  C   UNL     1       7.070   5.078  14.262  0.00  0.00    +0.000 A 
ATOM      8  C   UNL     1       7.666   4.985  13.004  0.00  0.00    +0.000 A 
ATOM      9  C   UNL     1       7.106   4.161  12.030  0.00  0.00    +0.000 A 
ATOM     10  C   UNL     1       5.957   3.428  12.321  0.00  0.00    +0.000 A 
ATOM     11  C   UNL     1       5.358   3.521  13.581  0.00  0.00    +0.000 A 
ENDBRANCH   5   6
ENDBRANCH   1   4
BRANCH   1  12
ATOM     12  O   UNL     1       3.663   5.034  17.961  0.00  0.00    +0.000 OA
BRANCH  12  17
ATOM     13  C   UNL     1       0.961   3.782  20.071  0.00  0.00    +0.000 C 
ATOM     14  C   UNL     1       0.891   2.843  18.861  0.00  0.00    +0.000 C 
ATOM     15  C   UNL     1       2.047   3.258  17.990  0.00  0.00    +0.000 C 
ATOM     16  O   UNL     1       2.310   2.755  16.909  0.00  0.00    +0.000 OA
ATOM     17  N   UNL     1       2.652   4.309  18.590  0.00  0.00    +0.000 N 
ATOM     18  C   UNL     1       2.000   4.805  19.669  0.00  0.00    +0.000 C 
ATOM     19  O   UNL     1       2.181   5.876  20.228  0.00  0.00    +0.000 OA
BRANCH  13  21
ATOM     20  C   UNL     1       2.729   2.543  21.501  0.00  0.00    +0.000 C 
ATOM     21  C   UNL     1       1.312   3.095  21.396  0.00  0.00    +0.000 C 
ENDBRANCH  13  21
ENDBRANCH  12  17
ENDBRANCH   1  12
TORSDOF 5
ENDMDL
MODEL 2
REMARK VINA RESULT:      -7.9      1.091      1.904
REMARK  Name = 
REMARK  6 active torsions:
REMARK  status: ('A' for Active; 'I' for Inactive)
REMARK    1  A    between atoms: C_1  and  C_2
REMARK    2  A    between atoms: C_2  and  C_3
REMARK    3  A    between atoms: N_7  and  O_8
REMARK    4  A    between atoms: O_8  and  S_9
REMARK    5  A    between atoms: S_9  and  C_12
REMARK    6  A    between atoms: C_13  and  C_14
REMARK                            x       y       z     vdW  Elec       q    Type
REMARK                         _______ _______ _______ _____ _____    ______ ____
ROOT
ATOM      1  S   UNL     1       5.375   4.834  18.232  0.00  0.00    +0.000 S 
ATOM      2  O   UNL     1       4.386   5.873  18.448  0.00  0.00    +0.000 OA
ATOM      3  O   UNL     1       6.405   4.599  19.224  0.00  0.00    +0.000 OA
ENDROOT
BRANCH   1   4
ATOM      4  C   UNL     1       6.121   5.081  16.683  0.00  0.00    +0.000 C 
ATOM      5  C   UNL     1       5.662   4.332  15.664  0.00  0.00    +0.000 C 
BRANCH   5   6
ATOM      6  C   UNL     1       6.179   4.318  14.290  0.00  0.00    +0.000 A 
ATOM      7  C   UNL     1       7.280   5.138  13.996  0.00  0.00    +0.000 A 
ATOM      8  C   UNL     1       7.841   5.154  12.718  0.00  0.00    +0.000 A 
ATOM      9  C   UNL     1       7.314   4.340  11.718  0.00  0.00    +0.000 A 
ATOM     10  C   UNL     1       6.232   3.509  12.001  0.00  0.00    +0.000 A 
ATOM     11  C   UNL     1       5.668   3.493  13.281  0.00  0.00    +0.000 A 
ENDBRANCH   5   6
ENDBRANCH   1   4
BRANCH   1  12
ATOM     12  O   UNL     1       4.590   3.422  17.966  0.00  0.00    +0.000 OA
BRANCH  12  17
ATOM     13  C   UNL     1       1.458   3.077  19.808  0.00  0.00    +0.000 C 
ATOM     14  C   UNL     1       2.455   2.354  20.721  0.00  0.00    +0.000 C 
ATOM     15  C   UNL     1       3.790   2.541  20.052  0.00  0.00    +0.000 C 
ATOM     16  O   UNL     1       4.840   2.080  20.469  0.00  0.00    +0.000 OA
ATOM     17  N   UNL     1       3.577   3.224  18.903  0.00  0.00    +0.000 N 
ATOM     18  C   UNL     1       2.274   3.403  18.577  0.00  0.00    +0.000 C 
ATOM     19  O   UNL     1       1.812   3.749  17.501  0.00  0.00    +0.000 OA
BRANCH  13  21
ATOM     20  C   UNL     1       1.753   5.508  20.648  0.00  0.00    +0.000 C 
ATOM     21  C   UNL     1       0.817   4.328  20.421  0.00  0.00    +0.000 C 
ENDBRANCH  13  21
ENDBRANCH  12  17
ENDBRANCH   1  12
TORSDOF 5
ENDMDL
MODEL 3
REMARK VINA RESULT:      -7.7      0.397      1.124
REMARK  Name = 
REMARK  6 active torsions:
REMARK  status: ('A' for Active; 'I' for Inactive)
REMARK    1  A    between atoms: C_1  and  C_2
REMARK    2  A    between atoms: C_2  and  C_3
REMARK    3  A    between atoms: N_7  and  O_8
REMARK    4  A    between atoms: O_8  and  S_9
REMARK    5  A    between atoms: S_9  and  C_12
REMARK    6  A    between atoms: C_13  and  C_14
REMARK                            x       y       z     vdW  Elec       q    Type
REMARK                         _______ _______ _______ _____ _____    ______ ____
ROOT
ATOM      1  S   UNL     1       4.820   4.925  18.251  0.00  0.00    +0.000 S 
ATOM      2  O   UNL     1       5.382   5.836  19.230  0.00  0.00    +0.000 OA
ATOM      3  O   UNL     1       4.869   3.495  18.482  0.00  0.00    +0.000 OA
ENDROOT
BRANCH   1   4
ATOM      4  C   UNL     1       5.508   5.276  16.696  0.00  0.00    +0.000 C 
ATOM      5  C   UNL     1       5.598   4.252  15.828  0.00  0.00    +0.000 C 
BRANCH   5   6
ATOM      6  C   UNL     1       6.200   4.292  14.490  0.00  0.00    +0.000 A 
ATOM      7  C   UNL     1       5.616   3.504  13.485  0.00  0.00    +0.000 A 
ATOM      8  C   UNL     1       6.117   3.514  12.183  0.00  0.00    +0.000 A 
ATOM      9  C   UNL     1       7.206   4.323  11.865  0.00  0.00    +0.000 A 
ATOM     10  C   UNL     1       7.785   5.123  12.849  0.00  0.00    +0.000 A 
ATOM     11  C   UNL     1       7.284   5.112  14.154  0.00  0.00    +0.000 A 
ENDBRANCH   5   6
ENDBRANCH   1   4
BRANCH   1  12
ATOM     12  O   UNL     1       3.259   5.347  17.991  0.00  0.00    +0.000 OA
BRANCH  12  17
ATOM     13  C   UNL     1       0.923   3.682  20.247  0.00  0.00    +0.000 C 
ATOM     14  C   UNL     1       0.789   2.850  18.967  0.00  0.00    +0.000 C 
ATOM     15  C   UNL     1       1.802   3.439  18.021  0.00  0.00    +0.000 C 
ATOM     16  O   UNL     1       1.978   3.057  16.876  0.00  0.00    +0.000 OA
ATOM     17  N   UNL     1       2.387   4.484  18.652  0.00  0.00    +0.000 N 
ATOM     18  C   UNL     1       1.826   4.824  19.837  0.00  0.00    +0.000 C 
ATOM     19  O   UNL     1       1.986   5.855  20.473  0.00  0.00    +0.000 OA
BRANCH  13  21
ATOM     20  C   UNL     1       2.944   2.515  21.369  0.00  0.00    +0.000 C 
ATOM     21  C   UNL     1       1.476   2.917  21.455  0.00  0.00    +0.000 C 
ENDBRANCH  13  21
ENDBRANCH  12  17
ENDBRANCH   1  12
TORSDOF 5
ENDMDL
MODEL 4
REMARK VINA RESULT:      -7.5      3.213      5.192
REMARK  Name = 
REMARK  6 active torsions:
REMARK  status: ('A' for Active; 'I' for Inactive)
REMARK    1  A    between atoms: C_1  and  C_2
REMARK    2  A    between atoms: C_2  and  C_3
REMARK    3  A    between atoms: N_7  and  O_8
REMARK    4  A    between atoms: O_8  and  S_9
REMARK    5  A    between atoms: S_9  and  C_12
REMARK    6  A    between atoms: C_13  and  C_14
REMARK                            x       y       z     vdW  Elec       q    Type
REMARK                         _______ _______ _______ _____ _____    ______ ____
ROOT
ATOM      1  S   UNL     1       4.783   4.549  17.372  0.00  0.00    +0.000 S 
ATOM      2  O   UNL     1       5.066   4.194  18.750  0.00  0.00    +0.000 OA
ATOM      3  O   UNL     1       5.867   4.665  16.418  0.00  0.00    +0.000 OA
ENDROOT
BRANCH   1   4
ATOM      4  C   UNL     1       3.844   6.010  17.350  0.00  0.00    +0.000 C 
ATOM      5  C   UNL     1       3.356   6.435  18.529  0.00  0.00    +0.000 C 
BRANCH   5   6
ATOM      6  C   UNL     1       2.487   7.598  18.747  0.00  0.00    +0.000 A 
ATOM      7  C   UNL     1       1.935   7.773  20.026  0.00  0.00    +0.000 A 
ATOM      8  C   UNL     1       1.123   8.871  20.313  0.00  0.00    +0.000 A 
ATOM      9  C   UNL     1       0.860   9.816  19.324  0.00  0.00    +0.000 A 
ATOM     10  C   UNL     1       1.416   9.664  18.055  0.00  0.00    +0.000 A 
ATOM     11  C   UNL     1       2.228   8.563  17.766  0.00  0.00    +0.000 A 
ENDBRANCH   5   6
ENDBRANCH   1   4
BRANCH   1  12
ATOM     12  O   UNL     1       3.692   3.482  16.779  0.00  0.00    +0.000 OA
BRANCH  12  17
ATOM     13  C   UNL     1       0.977   2.722  19.097  0.00  0.00    +0.000 C 
ATOM     14  C   UNL     1       1.923   1.533  19.302  0.00  0.00    +0.000 C 
ATOM     15  C   UNL     1       3.113   1.838  18.430  0.00  0.00    +0.000 C 
ATOM     16  O   UNL     1       4.079   1.104  18.302  0.00  0.00    +0.000 OA
ATOM     17  N   UNL     1       2.858   3.001  17.786  0.00  0.00    +0.000 N 
ATOM     18  C   UNL     1       1.600   3.479  17.945  0.00  0.00    +0.000 C 
ATOM     19  O   UNL     1       1.040   4.345  17.291  0.00  0.00    +0.000 OA
BRANCH  13  21
ATOM     20  C   UNL     1       1.528   3.166  21.588  0.00  0.00    +0.000 C 
ATOM     21  C   UNL     1       0.786   3.610  20.333  0.00  0.00    +0.000 C 
ENDBRANCH  13  21
ENDBRANCH  12  17
ENDBRANCH   1  12
TORSDOF 5
ENDMDL
MODEL 5
REMARK VINA RESULT:      -7.4      1.193      2.379
REMARK  Name = 
REMARK  6 active torsions:
REMARK  status: ('A' for Active; 'I' for Inactive)
REMARK    1  A    between atoms: C_1  and  C_2
REMARK    2  A    between atoms: C_2  and  C_3
REMARK    3  A    between atoms: N_7  and  O_8
REMARK    4  A    between atoms: O_8  and  S_9
REMARK    5  A    between atoms: S_9  and  C_12
REMARK    6  A    between atoms: C_13  and  C_14
REMARK                            x       y       z     vdW  Elec       q    Type
REMARK                         _______ _______ _______ _____ _____    ______ ____
ROOT
ATOM      1  S   UNL     1       5.027   4.118  18.000  0.00  0.00    +0.000 S 
ATOM      2  O   UNL     1       4.085   5.181  18.294  0.00  0.00    +0.000 OA
ATOM      3  O   UNL     1       6.337   4.122  18.619  0.00  0.00    +0.000 OA
ENDROOT
BRANCH   1   4
ATOM      4  C   UNL     1       5.208   3.988  16.278  0.00  0.00    +0.000 C 
ATOM      5  C   UNL     1       6.380   4.398  15.761  0.00  0.00    +0.000 C 
BRANCH   5   6
ATOM      6  C   UNL     1       6.737   4.444  14.338  0.00  0.00    +0.000 A 
ATOM      7  C   UNL     1       6.085   3.554  13.469  0.00  0.00    +0.000 A 
ATOM      8  C   UNL     1       6.353   3.562  12.100  0.00  0.00    +0.000 A 
ATOM      9  C   UNL     1       7.272   4.470  11.578  0.00  0.00    +0.000 A 
ATOM     10  C   UNL     1       7.913   5.371  12.426  0.00  0.00    +0.000 A 
ATOM     11  C   UNL     1       7.647   5.362  13.799  0.00  0.00    +0.000 A 
ENDBRANCH   5   6
ENDBRANCH   1   4
BRANCH   1  12
ATOM     12  O   UNL     1       4.308   2.686  18.336  0.00  0.00    +0.000 OA
BRANCH  12  17
ATOM     13  C   UNL     1       1.259   3.061  20.306  0.00  0.00    +0.000 C 
ATOM     14  C   UNL     1       2.274   2.607  21.361  0.00  0.00    +0.000 C 
ATOM     15  C   UNL     1       3.581   2.520  20.619  0.00  0.00    +0.000 C 
ATOM     16  O   UNL     1       4.634   2.160  21.119  0.00  0.00    +0.000 OA
ATOM     17  N   UNL     1       3.335   2.829  19.324  0.00  0.00    +0.000 N 
ATOM     18  C   UNL     1       2.025   2.960  19.006  0.00  0.00    +0.000 C 
ATOM     19  O   UNL     1       1.523   2.981  17.893  0.00  0.00    +0.000 OA
BRANCH  13  21
ATOM     20  C   UNL     1       1.715   5.570  20.756  0.00  0.00    +0.000 C 
ATOM     21  C   UNL     1       0.688   4.467  20.529  0.00  0.00    +0.000 C 
ENDBRANCH  13  21
ENDBRANCH  12  17
ENDBRANCH   1  12
TORSDOF 5
ENDMDL
MODEL 6
REMARK VINA RESULT:      -7.4      3.304      5.220
REMARK  Name = 
REMARK  6 active torsions:
REMARK  status: ('A' for Active; 'I' for Inactive)
REMARK    1  A    between atoms: C_1  and  C_2
REMARK    2  A    between atoms: C_2  and  C_3
REMARK    3  A    between atoms: N_7  and  O_8
REMARK    4  A    between atoms: O_8  and  S_9
REMARK    5  A    between atoms: S_9  and  C_12
REMARK    6  A    between atoms: C_13  and  C_14
REMARK                            x       y       z     vdW  Elec       q    Type
REMARK                         _______ _______ _______ _____ _____    ______ ____
ROOT
ATOM      1  S   UNL     1       4.774   4.602  17.534  0.00  0.00    +0.000 S 
ATOM      2  O   UNL     1       4.976   4.148  18.896  0.00  0.00    +0.000 OA
ATOM      3  O   UNL     1       5.904   4.715  16.634  0.00  0.00    +0.000 OA
ENDROOT
BRANCH   1   4
ATOM      4  C   UNL     1       3.917   6.112  17.566  0.00  0.00    +0.000 C 
ATOM      5  C   UNL     1       3.272   6.418  18.705  0.00  0.00    +0.000 C 
BRANCH   5   6
ATOM      6  C   UNL     1       2.433   7.599  18.943  0.00  0.00    +0.000 A 
ATOM      7  C   UNL     1       2.192   8.461  17.860  0.00  0.00    +0.000 A 
ATOM      8  C   UNL     1       1.381   9.586  18.006  0.00  0.00    +0.000 A 
ATOM      9  C   UNL     1       0.789   9.861  19.237  0.00  0.00    +0.000 A 
ATOM     10  C   UNL     1       1.006   9.005  20.316  0.00  0.00    +0.000 A 
ATOM     11  C   UNL     1       1.820   7.877  20.171  0.00  0.00    +0.000 A 
ENDBRANCH   5   6
ENDBRANCH   1   4
BRANCH   1  12
ATOM     12  O   UNL     1       3.655   3.636  16.830  0.00  0.00    +0.000 OA
BRANCH  12  17
ATOM     13  C   UNL     1       0.873   2.744  19.018  0.00  0.00    +0.000 C 
ATOM     14  C   UNL     1       1.799   1.530  19.156  0.00  0.00    +0.000 C 
ATOM     15  C   UNL     1       3.013   1.882  18.339  0.00  0.00    +0.000 C 
ATOM     16  O   UNL     1       3.973   1.145  18.180  0.00  0.00    +0.000 OA
ATOM     17  N   UNL     1       2.789   3.093  17.778  0.00  0.00    +0.000 N 
ATOM     18  C   UNL     1       1.534   3.576  17.941  0.00  0.00    +0.000 C 
ATOM     19  O   UNL     1       1.001   4.496  17.341  0.00  0.00    +0.000 OA
BRANCH  13  21
ATOM     20  C   UNL     1       1.921   4.115  20.948  0.00  0.00    +0.000 C 
ATOM     21  C   UNL     1       0.662   3.540  20.311  0.00  0.00    +0.000 C 
ENDBRANCH  13  21
ENDBRANCH  12  17
ENDBRANCH   1  12
TORSDOF 5
ENDMDL
MODEL 7
REMARK VINA RESULT:      -7.1      4.736      5.843
REMARK  Name = 
REMARK  6 active torsions:
REMARK  status: ('A' for Active; 'I' for Inactive)
REMARK    1  A    between atoms: C_1  and  C_2
REMARK    2  A    between atoms: C_2  and  C_3
REMARK    3  A    between atoms: N_7  and  O_8
REMARK    4  A    between atoms: O_8  and  S_9
REMARK    5  A    between atoms: S_9  and  C_12
REMARK    6  A    between atoms: C_13  and  C_14
REMARK                            x       y       z     vdW  Elec       q    Type
REMARK                         _______ _______ _______ _____ _____    ______ ____
ROOT
ATOM      1  S   UNL     1       6.819   6.688  17.297  0.00  0.00    +0.000 S 
ATOM      2  O   UNL     1       6.667   6.097  18.613  0.00  0.00    +0.000 OA
ATOM      3  O   UNL     1       7.689   6.063  16.320  0.00  0.00    +0.000 OA
ENDROOT
BRANCH   1   4
ATOM      4  C   UNL     1       7.269   8.355  17.477  0.00  0.00    +0.000 C 
ATOM      5  C   UNL     1       8.336   8.614  18.254  0.00  0.00    +0.000 C 
BRANCH   5   6
ATOM      6  C   UNL     1       8.860   9.939  18.605  0.00  0.00    +0.000 A 
ATOM      7  C   UNL     1       8.626  10.995  17.708  0.00  0.00    +0.000 A 
ATOM      8  C   UNL     1       9.070  12.287  17.990  0.00  0.00    +0.000 A 
ATOM      9  C   UNL     1       9.746  12.545  19.181  0.00  0.00    +0.000 A 
ATOM     10  C   UNL     1       9.970  11.510  20.087  0.00  0.00    +0.000 A 
ATOM     11  C   UNL     1       9.527  10.214  19.805  0.00  0.00    +0.000 A 
ENDBRANCH   5   6
ENDBRANCH   1   4
BRANCH   1  12
ATOM     12  O   UNL     1       5.333   6.848  16.629  0.00  0.00    +0.000 OA
BRANCH  12  17
ATOM     13  C   UNL     1       2.561   5.276  18.408  0.00  0.00    +0.000 C 
ATOM     14  C   UNL     1       3.122   4.112  17.584  0.00  0.00    +0.000 C 
ATOM     15  C   UNL     1       4.331   4.682  16.891  0.00  0.00    +0.000 C 
ATOM     16  O   UNL     1       5.037   4.059  16.115  0.00  0.00    +0.000 OA
ATOM     17  N   UNL     1       4.415   5.990  17.230  0.00  0.00    +0.000 N 
ATOM     18  C   UNL     1       3.355   6.470  17.925  0.00  0.00    +0.000 C 
ATOM     19  O   UNL     1       3.061   7.637  18.130  0.00  0.00    +0.000 OA
BRANCH  13  21
ATOM     20  C   UNL     1       1.437   4.495  20.606  0.00  0.00    +0.000 C 
ATOM     21  C   UNL     1       2.663   5.095  19.928  0.00  0.00    +0.000 C 
ENDBRANCH  13  21
ENDBRANCH  12  17
ENDBRANCH   1  12
TORSDOF 5
ENDMDL
MODEL 8
REMARK VINA RESULT:      -7.1      3.077      4.184
REMARK  Name = 
REMARK  6 active torsions:
REMARK  status: ('A' for Active; 'I' for Inactive)
REMARK    1  A    between atoms: C_1  and  C_2
REMARK    2  A    between atoms: C_2  and  C_3
REMARK    3  A    between atoms: N_7  and  O_8
REMARK    4  A    between atoms: O_8  and  S_9
REMARK    5  A    between atoms: S_9  and  C_12
REMARK    6  A    between atoms: C_13  and  C_14
REMARK                            x       y       z     vdW  Elec       q    Type
REMARK                         _______ _______ _______ _____ _____    ______ ____
ROOT
ATOM      1  S   UNL     1       3.924   2.039  19.217  0.00  0.00    +0.000 S 
ATOM      2  O   UNL     1       4.575   1.937  20.509  0.00  0.00    +0.000 OA
ATOM      3  O   UNL     1       3.987   0.930  18.286  0.00  0.00    +0.000 OA
ENDROOT
BRANCH   1   4
ATOM      4  C   UNL     1       4.472   3.483  18.423  0.00  0.00    +0.000 C 
ATOM      5  C   UNL     1       5.621   4.021  18.871  0.00  0.00    +0.000 C 
BRANCH   5   6
ATOM      6  C   UNL     1       6.242   5.266  18.403  0.00  0.00    +0.000 A 
ATOM      7  C   UNL     1       7.409   5.700  19.053  0.00  0.00    +0.000 A 
ATOM      8  C   UNL     1       8.069   6.860  18.644  0.00  0.00    +0.000 A 
ATOM      9  C   UNL     1       7.575   7.597  17.570  0.00  0.00    +0.000 A 
ATOM     10  C   UNL     1       6.427   7.168  16.905  0.00  0.00    +0.000 A 
ATOM     11  C   UNL     1       5.765   6.007  17.316  0.00  0.00    +0.000 A 
ENDBRANCH   5   6
ENDBRANCH   1   4
BRANCH   1  12
ATOM     12  O   UNL     1       2.348   2.410  19.462  0.00  0.00    +0.000 OA
BRANCH  12  17
ATOM     13  C   UNL     1       1.644   5.985  19.247  0.00  0.00    +0.000 C 
ATOM     14  C   UNL     1       1.740   5.762  20.761  0.00  0.00    +0.000 C 
ATOM     15  C   UNL     1       2.119   4.313  20.909  0.00  0.00    +0.000 C 
ATOM     16  O   UNL     1       2.265   3.745  21.980  0.00  0.00    +0.000 OA
ATOM     17  N   UNL     1       2.179   3.779  19.667  0.00  0.00    +0.000 N 
ATOM     18  C   UNL     1       1.738   4.589  18.675  0.00  0.00    +0.000 C 
ATOM     19  O   UNL     1       1.450   4.280  17.529  0.00  0.00    +0.000 OA
BRANCH  13  21
ATOM     20  C   UNL     1       2.193   8.176  17.981  0.00  0.00    +0.000 C 
ATOM     21  C   UNL     1       2.714   6.919  18.667  0.00  0.00    +0.000 C 
ENDBRANCH  13  21
ENDBRANCH  12  17
ENDBRANCH   1  12
TORSDOF 5
ENDMDL
MODEL 9
REMARK VINA RESULT:      -7.0      3.763      5.875
REMARK  Name = 
REMARK  6 active torsions:
REMARK  status: ('A' for Active; 'I' for Inactive)
REMARK    1  A    between atoms: C_1  and  C_2
REMARK    2  A    between atoms: C_2  and  C_3
REMARK    3  A    between atoms: N_7  and  O_8
REMARK    4  A    between atoms: O_8  and  S_9
REMARK    5  A    between atoms: S_9  and  C_12
REMARK    6  A    between atoms: C_13  and  C_14
REMARK                            x       y       z     vdW  Elec       q    Type
REMARK                         _______ _______ _______ _____ _____    ______ ____
ROOT
ATOM      1  S   UNL     1       4.642   6.113  17.365  0.00  0.00    +0.000 S 
ATOM      2  O   UNL     1       5.764   6.046  18.282  0.00  0.00    +0.000 OA
ATOM      3  O   UNL     1       4.771   6.840  16.118  0.00  0.00    +0.000 OA
ENDROOT
BRANCH   1   4
ATOM      4  C   UNL     1       3.248   6.693  18.223  0.00  0.00    +0.000 C 
ATOM      5  C   UNL     1       2.861   7.956  17.965  0.00  0.00    +0.000 C 
BRANCH   5   6
ATOM      6  C   UNL     1       1.761   8.680  18.612  0.00  0.00    +0.000 A 
ATOM      7  C   UNL     1       0.938   9.481  17.802  0.00  0.00    +0.000 A 
ATOM      8  C   UNL     1      -0.144  10.175  18.344  0.00  0.00    +0.000 A 
ATOM      9  C   UNL     1      -0.425  10.070  19.705  0.00  0.00    +0.000 A 
ATOM     10  C   UNL     1       0.373   9.266  20.516  0.00  0.00    +0.000 A 
ATOM     11  C   UNL     1       1.459   8.571  19.974  0.00  0.00    +0.000 A 
ENDBRANCH   5   6
ENDBRANCH   1   4
BRANCH   1  12
ATOM     12  O   UNL     1       4.168   4.585  17.019  0.00  0.00    +0.000 OA
BRANCH  12  17
ATOM     13  C   UNL     1       1.806   3.100  19.372  0.00  0.00    +0.000 C 
ATOM     14  C   UNL     1       3.159   2.708  19.977  0.00  0.00    +0.000 C 
ATOM     15  C   UNL     1       4.179   3.372  19.091  0.00  0.00    +0.000 C 
ATOM     16  O   UNL     1       5.387   3.271  19.236  0.00  0.00    +0.000 OA
ATOM     17  N   UNL     1       3.508   4.005  18.101  0.00  0.00    +0.000 N 
ATOM     18  C   UNL     1       2.178   3.750  18.059  0.00  0.00    +0.000 C 
ATOM     19  O   UNL     1       1.401   3.978  17.145  0.00  0.00    +0.000 OA
BRANCH  13  21
ATOM     20  C   UNL     1       1.709   5.140  20.964  0.00  0.00    +0.000 C 
ATOM     21  C   UNL     1       0.954   4.024  20.252  0.00  0.00    +0.000 C 
ENDBRANCH  13  21
ENDBRANCH  12  17
ENDBRANCH   1  12
TORSDOF 5
ENDMDL
