MODEL 1
REMARK VINA RESULT:      -7.4      0.000      0.000
REMARK  Name = 
REMARK  6 active torsions:
REMARK  status: ('A' for Active; 'I' for Inactive)
REMARK    1  A    between atoms: C_1  and  C_2
REMARK    2  A    between atoms: C_3  and  C_4
REMARK    3  A    between atoms: C_4  and  C_5
REMARK    4  A    between atoms: C_5  and  O_7
REMARK    5  A    between atoms: N_14  and  S_15
REMARK    6  A    between atoms: S_15  and  C_18
REMARK                            x       y       z     vdW  Elec       q    Type
REMARK                         _______ _______ _______ _____ _____    ______ ____
ROOT
ATOM      1  C   UNL     1       4.345   7.452  17.203  0.00  0.00    +0.000 C 
ATOM      2  C   UNL     1       4.077   6.273  18.081  0.00  0.00    +0.000 A 
ATOM      3  C   UNL     1       2.932   5.958  18.817  0.00  0.00    +0.000 A 
ATOM      4  C   UNL     1       3.193   4.718  19.485  0.00  0.00    +0.000 A 
ATOM      5  C   UNL     1       2.451   3.893  20.351  0.00  0.00    +0.000 A 
ATOM      6  C   UNL     1       3.051   2.729  20.823  0.00  0.00    +0.000 A 
ATOM      7  C   UNL     1       4.336   2.427  20.405  0.00  0.00    +0.000 A 
ATOM      8  N   UNL     1       5.075   3.167  19.554  0.00  0.00    +0.000 NA
ATOM      9  C   UNL     1       4.484   4.310  19.150  0.00  0.00    +0.000 A 
ATOM     10  N   UNL     1       5.034   5.299  18.373  0.00  0.00    +0.000 N 
ENDROOT
BRANCH  10  11
ATOM     11  S   UNL     1       6.639   5.256  17.776  0.00  0.00    +0.000 S 
ATOM     12  O   UNL     1       7.115   6.625  17.845  0.00  0.00    +0.000 OA
ATOM     13  O   UNL     1       7.357   4.190  18.442  0.00  0.00    +0.000 OA
BRANCH  11  14
ATOM     14  C   UNL     1       6.501   4.821  16.057  0.00  0.00    +0.000 A 
ATOM     15  C   UNL     1       5.585   3.842  15.652  0.00  0.00    +0.000 A 
ATOM     16  C   UNL     1       5.537   3.463  14.308  0.00  0.00    +0.000 A 
ATOM     17  C   UNL     1       6.404   4.049  13.386  0.00  0.00    +0.000 A 
ATOM     18  F   UNL     1       6.339   3.661  12.104  0.00  0.00    +0.000 F 
ATOM     19  C   UNL     1       7.327   5.011  13.793  0.00  0.00    +0.000 A 
ATOM     20 CL   UNL     1       8.414   5.718  12.662  0.00  0.00    +0.000 Cl
ATOM     21  C   UNL     1       7.382   5.399  15.132  0.00  0.00    +0.000 A 
ENDBRANCH  11  14
ENDBRANCH  10  11
BRANCH   3  22
ATOM     22  C   UNL     1       1.665   6.768  18.954  0.00  0.00    +0.000 C 
BRANCH  22  23
ATOM     23  C   UNL     1       1.721   7.916  19.945  0.00  0.00    +0.000 C 
ATOM     24  O   UNL     1       1.499   9.077  19.623  0.00  0.00    +0.000 OA
BRANCH  23  25
ATOM     25  O   UNL     1       1.960   7.578  21.230  0.00  0.00    +0.000 OA
ATOM     26  H   UNL     1       1.378   8.015  21.878  0.00  0.00    +0.000 HD
ENDBRANCH  23  25
ENDBRANCH  22  23
ENDBRANCH   3  22
TORSDOF 5
ENDMDL
MODEL 2
REMARK VINA RESULT:      -7.0      4.114      6.690
REMARK  Name = 
REMARK  6 active torsions:
REMARK  status: ('A' for Active; 'I' for Inactive)
REMARK    1  A    between atoms: C_1  and  C_2
REMARK    2  A    between atoms: C_3  and  C_4
REMARK    3  A    between atoms: C_4  and  C_5
REMARK    4  A    between atoms: C_5  and  O_7
REMARK    5  A    between atoms: N_14  and  S_15
REMARK    6  A    between atoms: S_15  and  C_18
REMARK                            x       y       z     vdW  Elec       q    Type
REMARK                         _______ _______ _______ _____ _____    ______ ____
ROOT
ATOM      1  C   UNL     1       2.810   3.336  16.427  0.00  0.00    +0.000 C 
ATOM      2  C   UNL     1       4.072   3.855  17.036  0.00  0.00    +0.000 A 
ATOM      3  C   UNL     1       5.367   3.872  16.512  0.00  0.00    +0.000 A 
ATOM      4  C   UNL     1       6.209   4.480  17.499  0.00  0.00    +0.000 A 
ATOM      5  C   UNL     1       7.582   4.785  17.567  0.00  0.00    +0.000 A 
ATOM      6  C   UNL     1       8.063   5.390  18.725  0.00  0.00    +0.000 A 
ATOM      7  C   UNL     1       7.170   5.682  19.742  0.00  0.00    +0.000 A 
ATOM      8  N   UNL     1       5.844   5.439  19.713  0.00  0.00    +0.000 NA
ATOM      9  C   UNL     1       5.417   4.812  18.598  0.00  0.00    +0.000 A 
ATOM     10  N   UNL     1       4.149   4.352  18.338  0.00  0.00    +0.000 N 
ENDROOT
BRANCH  10  11
ATOM     11  S   UNL     1       2.847   4.484  19.444  0.00  0.00    +0.000 S 
ATOM     12  O   UNL     1       1.778   3.679  18.880  0.00  0.00    +0.000 OA
ATOM     13  O   UNL     1       3.340   4.228  20.780  0.00  0.00    +0.000 OA
BRANCH  11  14
ATOM     14  C   UNL     1       2.331   6.186  19.377  0.00  0.00    +0.000 A 
ATOM     15  C   UNL     1       2.490   6.921  18.196  0.00  0.00    +0.000 A 
ATOM     16  C   UNL     1       2.144   8.275  18.180  0.00  0.00    +0.000 A 
ATOM     17  C   UNL     1       1.657   8.883  19.336  0.00  0.00    +0.000 A 
ATOM     18  F   UNL     1       1.339  10.186  19.293  0.00  0.00    +0.000 F 
ATOM     19  C   UNL     1       1.516   8.155  20.516  0.00  0.00    +0.000 A 
ATOM     20 CL   UNL     1       0.938   8.910  21.951  0.00  0.00    +0.000 Cl
ATOM     21  C   UNL     1       1.856   6.802  20.543  0.00  0.00    +0.000 A 
ENDBRANCH  11  14
ENDBRANCH  10  11
BRANCH   3  22
ATOM     22  C   UNL     1       5.841   3.317  15.191  0.00  0.00    +0.000 C 
BRANCH  22  23
ATOM     23  C   UNL     1       6.232   4.346  14.145  0.00  0.00    +0.000 C 
ATOM     24  O   UNL     1       6.436   5.521  14.421  0.00  0.00    +0.000 OA
BRANCH  23  25
ATOM     25  O   UNL     1       6.417   3.876  12.893  0.00  0.00    +0.000 OA
ATOM     26  H   UNL     1       7.084   3.169  12.821  0.00  0.00    +0.000 HD
ENDBRANCH  23  25
ENDBRANCH  22  23
ENDBRANCH   3  22
TORSDOF 5
ENDMDL
MODEL 3
REMARK VINA RESULT:      -7.0      1.889      3.286
REMARK  Name = 
REMARK  6 active torsions:
REMARK  status: ('A' for Active; 'I' for Inactive)
REMARK    1  A    between atoms: C_1  and  C_2
REMARK    2  A    between atoms: C_3  and  C_4
REMARK    3  A    between atoms: C_4  and  C_5
REMARK    4  A    between atoms: C_5  and  O_7
REMARK    5  A    between atoms: N_14  and  S_15
REMARK    6  A    between atoms: S_15  and  C_18
REMARK                            x       y       z     vdW  Elec       q    Type
REMARK                         _______ _______ _______ _____ _____    ______ ____
ROOT
ATOM      1  C   UNL     1       4.770   3.142  19.610  0.00  0.00    +0.000 C 
ATOM      2  C   UNL     1       4.132   4.420  19.173  0.00  0.00    +0.000 A 
ATOM      3  C   UNL     1       2.817   4.858  19.344  0.00  0.00    +0.000 A 
ATOM      4  C   UNL     1       2.725   6.154  18.740  0.00  0.00    +0.000 A 
ATOM      5  C   UNL     1       1.692   7.098  18.589  0.00  0.00    +0.000 A 
ATOM      6  C   UNL     1       1.979   8.283  17.919  0.00  0.00    +0.000 A 
ATOM      7  C   UNL     1       3.266   8.488  17.452  0.00  0.00    +0.000 A 
ATOM      8  N   UNL     1       4.297   7.631  17.599  0.00  0.00    +0.000 NA
ATOM      9  C   UNL     1       3.976   6.473  18.212  0.00  0.00    +0.000 A 
ATOM     10  N   UNL     1       4.789   5.384  18.406  0.00  0.00    +0.000 N 
ENDROOT
BRANCH  10  11
ATOM     11  S   UNL     1       6.411   5.300  17.859  0.00  0.00    +0.000 S 
ATOM     12  O   UNL     1       6.911   6.661  17.921  0.00  0.00    +0.000 OA
ATOM     13  O   UNL     1       7.087   4.232  18.563  0.00  0.00    +0.000 OA
BRANCH  11  14
ATOM     14  C   UNL     1       6.315   4.839  16.143  0.00  0.00    +0.000 A 
ATOM     15  C   UNL     1       5.385   3.880  15.725  0.00  0.00    +0.000 A 
ATOM     16  C   UNL     1       5.370   3.479  14.387  0.00  0.00    +0.000 A 
ATOM     17  C   UNL     1       6.282   4.025  13.484  0.00  0.00    +0.000 A 
ATOM     18  F   UNL     1       6.248   3.617  12.207  0.00  0.00    +0.000 F 
ATOM     19  C   UNL     1       7.219   4.968  13.905  0.00  0.00    +0.000 A 
ATOM     20 CL   UNL     1       8.361   5.626  12.799  0.00  0.00    +0.000 Cl
ATOM     21  C   UNL     1       7.242   5.377  15.239  0.00  0.00    +0.000 A 
ENDBRANCH  11  14
ENDBRANCH  10  11
BRANCH   3  22
ATOM     22  C   UNL     1       1.668   4.117  19.985  0.00  0.00    +0.000 C 
BRANCH  22  23
ATOM     23  C   UNL     1       0.908   3.167  19.077  0.00  0.00    +0.000 C 
ATOM     24  O   UNL     1       1.165   3.045  17.886  0.00  0.00    +0.000 OA
BRANCH  23  25
ATOM     25  O   UNL     1      -0.029   2.400  19.675  0.00  0.00    +0.000 OA
ATOM     26  H   UNL     1       0.261   1.983  20.507  0.00  0.00    +0.000 HD
ENDBRANCH  23  25
ENDBRANCH  22  23
ENDBRANCH   3  22
TORSDOF 5
ENDMDL
MODEL 4
REMARK VINA RESULT:      -6.8      1.499      3.147
REMARK  Name = 
REMARK  6 active torsions:
REMARK  status: ('A' for Active; 'I' for Inactive)
REMARK    1  A    between atoms: C_1  and  C_2
REMARK    2  A    between atoms: C_3  and  C_4
REMARK    3  A    between atoms: C_4  and  C_5
REMARK    4  A    between atoms: C_5  and  O_7
REMARK    5  A    between atoms: N_14  and  S_15
REMARK    6  A    between atoms: S_15  and  C_18
REMARK                            x       y       z     vdW  Elec       q    Type
REMARK                         _______ _______ _______ _____ _____    ______ ____
ROOT
ATOM      1  C   UNL     1       4.758   2.964  19.244  0.00  0.00    +0.000 C 
ATOM      2  C   UNL     1       4.108   4.262  18.890  0.00  0.00    +0.000 A 
ATOM      3  C   UNL     1       2.782   4.664  19.059  0.00  0.00    +0.000 A 
ATOM      4  C   UNL     1       2.682   6.001  18.555  0.00  0.00    +0.000 A 
ATOM      5  C   UNL     1       1.636   6.938  18.450  0.00  0.00    +0.000 A 
ATOM      6  C   UNL     1       1.919   8.176  17.882  0.00  0.00    +0.000 A 
ATOM      7  C   UNL     1       3.213   8.437  17.467  0.00  0.00    +0.000 A 
ATOM      8  N   UNL     1       4.255   7.588  17.574  0.00  0.00    +0.000 NA
ATOM      9  C   UNL     1       3.940   6.381  18.087  0.00  0.00    +0.000 A 
ATOM     10  N   UNL     1       4.767   5.293  18.217  0.00  0.00    +0.000 N 
ENDROOT
BRANCH  10  11
ATOM     11  S   UNL     1       6.403   5.278  17.709  0.00  0.00    +0.000 S 
ATOM     12  O   UNL     1       6.853   6.655  17.809  0.00  0.00    +0.000 OA
ATOM     13  O   UNL     1       7.101   4.220  18.408  0.00  0.00    +0.000 OA
BRANCH  11  14
ATOM     14  C   UNL     1       6.365   4.849  15.983  0.00  0.00    +0.000 A 
ATOM     15  C   UNL     1       5.465   3.882  15.520  0.00  0.00    +0.000 A 
ATOM     16  C   UNL     1       5.496   3.506  14.174  0.00  0.00    +0.000 A 
ATOM     17  C   UNL     1       6.423   4.086  13.309  0.00  0.00    +0.000 A 
ATOM     18  F   UNL     1       6.433   3.702  12.024  0.00  0.00    +0.000 F 
ATOM     19  C   UNL     1       7.330   5.036  13.774  0.00  0.00    +0.000 A 
ATOM     20 CL   UNL     1       8.491   5.736  12.714  0.00  0.00    +0.000 Cl
ATOM     21  C   UNL     1       7.308   5.421  15.115  0.00  0.00    +0.000 A 
ENDBRANCH  11  14
ENDBRANCH  10  11
BRANCH   3  22
ATOM     22  C   UNL     1       1.631   3.857  19.610  0.00  0.00    +0.000 C 
BRANCH  22  23
ATOM     23  C   UNL     1       1.654   3.611  21.108  0.00  0.00    +0.000 C 
ATOM     24  O   UNL     1       1.085   2.660  21.629  0.00  0.00    +0.000 OA
BRANCH  23  25
ATOM     25  O   UNL     1       2.404   4.466  21.835  0.00  0.00    +0.000 OA
ATOM     26  H   UNL     1       1.960   5.305  22.058  0.00  0.00    +0.000 HD
ENDBRANCH  23  25
ENDBRANCH  22  23
ENDBRANCH   3  22
TORSDOF 5
ENDMDL
MODEL 5
REMARK VINA RESULT:      -6.8      8.180     10.690
REMARK  Name = 
REMARK  6 active torsions:
REMARK  status: ('A' for Active; 'I' for Inactive)
REMARK    1  A    between atoms: C_1  and  C_2
REMARK    2  A    between atoms: C_3  and  C_4
REMARK    3  A    between atoms: C_4  and  C_5
REMARK    4  A    between atoms: C_5  and  O_7
REMARK    5  A    between atoms: N_14  and  S_15
REMARK    6  A    between atoms: S_15  and  C_18
REMARK                            x       y       z     vdW  Elec       q    Type
REMARK                         _______ _______ _______ _____ _____    ______ ____
ROOT
ATOM      1  C   UNL     1      -4.489  13.020  21.418  0.00  0.00    +0.000 C 
ATOM      2  C   UNL     1      -4.251  12.455  20.055  0.00  0.00    +0.000 A 
ATOM      3  C   UNL     1      -5.167  11.931  19.141  0.00  0.00    +0.000 A 
ATOM      4  C   UNL     1      -4.422  11.527  17.987  0.00  0.00    +0.000 A 
ATOM      5  C   UNL     1      -4.763  10.946  16.750  0.00  0.00    +0.000 A 
ATOM      6  C   UNL     1      -3.738  10.680  15.846  0.00  0.00    +0.000 A 
ATOM      7  C   UNL     1      -2.441  11.016  16.193  0.00  0.00    +0.000 A 
ATOM      8  N   UNL     1      -2.068  11.601  17.350  0.00  0.00    +0.000 NA
ATOM      9  C   UNL     1      -3.076  11.805  18.222  0.00  0.00    +0.000 A 
ATOM     10  N   UNL     1      -2.979  12.285  19.505  0.00  0.00    +0.000 N 
ENDROOT
BRANCH  10  11
ATOM     11  S   UNL     1      -1.495  12.703  20.252  0.00  0.00    +0.000 S 
ATOM     12  O   UNL     1      -0.719  13.373  19.225  0.00  0.00    +0.000 OA
ATOM     13  O   UNL     1      -1.775  13.358  21.512  0.00  0.00    +0.000 OA
BRANCH  11  14
ATOM     14  C   UNL     1      -0.689  11.159  20.615  0.00  0.00    +0.000 A 
ATOM     15  C   UNL     1      -0.791  10.598  21.893  0.00  0.00    +0.000 A 
ATOM     16  C   UNL     1      -0.095   9.421  22.182  0.00  0.00    +0.000 A 
ATOM     17  C   UNL     1       0.700   8.823  21.205  0.00  0.00    +0.000 A 
ATOM     18  F   UNL     1       1.361   7.697  21.512  0.00  0.00    +0.000 F 
ATOM     19  C   UNL     1       0.815   9.392  19.938  0.00  0.00    +0.000 A 
ATOM     20 CL   UNL     1       1.815   8.670  18.738  0.00  0.00    +0.000 Cl
ATOM     21  C   UNL     1       0.123  10.566  19.638  0.00  0.00    +0.000 A 
ENDBRANCH  11  14
ENDBRANCH  10  11
BRANCH   3  22
ATOM     22  C   UNL     1      -6.657  11.754  19.318  0.00  0.00    +0.000 C 
BRANCH  22  23
ATOM     23  C   UNL     1      -7.099  10.418  19.887  0.00  0.00    +0.000 C 
ATOM     24  O   UNL     1      -7.236  10.226  21.089  0.00  0.00    +0.000 OA
BRANCH  23  25
ATOM     25  O   UNL     1      -7.406   9.463  18.984  0.00  0.00    +0.000 OA
ATOM     26  H   UNL     1      -7.764   8.642  19.369  0.00  0.00    +0.000 HD
ENDBRANCH  23  25
ENDBRANCH  22  23
ENDBRANCH   3  22
TORSDOF 5
ENDMDL
MODEL 6
REMARK VINA RESULT:      -6.7      3.777      6.482
REMARK  Name = 
REMARK  6 active torsions:
REMARK  status: ('A' for Active; 'I' for Inactive)
REMARK    1  A    between atoms: C_1  and  C_2
REMARK    2  A    between atoms: C_3  and  C_4
REMARK    3  A    between atoms: C_4  and  C_5
REMARK    4  A    between atoms: C_5  and  O_7
REMARK    5  A    between atoms: N_14  and  S_15
REMARK    6  A    between atoms: S_15  and  C_18
REMARK                            x       y       z     vdW  Elec       q    Type
REMARK                         _______ _______ _______ _____ _____    ______ ____
ROOT
ATOM      1  C   UNL     1       2.744   3.232  16.477  0.00  0.00    +0.000 C 
ATOM      2  C   UNL     1       4.002   3.779  17.068  0.00  0.00    +0.000 A 
ATOM      3  C   UNL     1       5.271   3.896  16.497  0.00  0.00    +0.000 A 
ATOM      4  C   UNL     1       6.122   4.487  17.486  0.00  0.00    +0.000 A 
ATOM      5  C   UNL     1       7.480   4.860  17.521  0.00  0.00    +0.000 A 
ATOM      6  C   UNL     1       7.977   5.419  18.694  0.00  0.00    +0.000 A 
ATOM      7  C   UNL     1       7.114   5.601  19.761  0.00  0.00    +0.000 A 
ATOM      8  N   UNL     1       5.802   5.291  19.768  0.00  0.00    +0.000 NA
ATOM      9  C   UNL     1       5.360   4.711  18.634  0.00  0.00    +0.000 A 
ATOM     10  N   UNL     1       4.108   4.201  18.395  0.00  0.00    +0.000 N 
ENDROOT
BRANCH  10  11
ATOM     11  S   UNL     1       2.848   4.197  19.555  0.00  0.00    +0.000 S 
ATOM     12  O   UNL     1       1.742   3.501  18.923  0.00  0.00    +0.000 OA
ATOM     13  O   UNL     1       3.380   3.743  20.822  0.00  0.00    +0.000 OA
BRANCH  11  14
ATOM     14  C   UNL     1       2.370   5.899  19.750  0.00  0.00    +0.000 A 
ATOM     15  C   UNL     1       1.746   6.322  20.930  0.00  0.00    +0.000 A 
ATOM     16  C   UNL     1       1.315   7.647  21.040  0.00  0.00    +0.000 A 
ATOM     17  C   UNL     1       1.498   8.531  19.976  0.00  0.00    +0.000 A 
ATOM     18  F   UNL     1       1.069   9.794  20.108  0.00  0.00    +0.000 F 
ATOM     19  C   UNL     1       2.104   8.104  18.796  0.00  0.00    +0.000 A 
ATOM     20 CL   UNL     1       2.310   9.186  17.474  0.00  0.00    +0.000 Cl
ATOM     21  C   UNL     1       2.541   6.785  18.676  0.00  0.00    +0.000 A 
ENDBRANCH  11  14
ENDBRANCH  10  11
BRANCH   3  22
ATOM     22  C   UNL     1       5.717   3.447  15.126  0.00  0.00    +0.000 C 
BRANCH  22  23
ATOM     23  C   UNL     1       6.163   4.550  14.183  0.00  0.00    +0.000 C 
ATOM     24  O   UNL     1       6.092   5.737  14.477  0.00  0.00    +0.000 OA
BRANCH  23  25
ATOM     25  O   UNL     1       6.715   4.146  13.019  0.00  0.00    +0.000 OA
ATOM     26  H   UNL     1       6.545   3.213  12.794  0.00  0.00    +0.000 HD
ENDBRANCH  23  25
ENDBRANCH  22  23
ENDBRANCH   3  22
TORSDOF 5
ENDMDL
MODEL 7
REMARK VINA RESULT:      -6.4      8.475     11.199
REMARK  Name = 
REMARK  6 active torsions:
REMARK  status: ('A' for Active; 'I' for Inactive)
REMARK    1  A    between atoms: C_1  and  C_2
REMARK    2  A    between atoms: C_3  and  C_4
REMARK    3  A    between atoms: C_4  and  C_5
REMARK    4  A    between atoms: C_5  and  O_7
REMARK    5  A    between atoms: N_14  and  S_15
REMARK    6  A    between atoms: S_15  and  C_18
REMARK                            x       y       z     vdW  Elec       q    Type
REMARK                         _______ _______ _______ _____ _____    ______ ____
ROOT
ATOM      1  C   UNL     1      -3.802  10.777  17.490  0.00  0.00    +0.000 C 
ATOM      2  C   UNL     1      -4.064  11.586  18.718  0.00  0.00    +0.000 A 
ATOM      3  C   UNL     1      -5.264  11.798  19.400  0.00  0.00    +0.000 A 
ATOM      4  C   UNL     1      -4.967  12.650  20.513  0.00  0.00    +0.000 A 
ATOM      5  C   UNL     1      -5.732  13.208  21.556  0.00  0.00    +0.000 A 
ATOM      6  C   UNL     1      -5.083  14.018  22.483  0.00  0.00    +0.000 A 
ATOM      7  C   UNL     1      -3.720  14.222  22.351  0.00  0.00    +0.000 A 
ATOM      8  N   UNL     1      -2.940  13.686  21.390  0.00  0.00    +0.000 NA
ATOM      9  C   UNL     1      -3.604  12.943  20.482  0.00  0.00    +0.000 A 
ATOM     10  N   UNL     1      -3.091  12.364  19.347  0.00  0.00    +0.000 N 
ENDROOT
BRANCH  10  11
ATOM     11  S   UNL     1      -1.454  12.514  18.862  0.00  0.00    +0.000 S 
ATOM     12  O   UNL     1      -1.445  12.238  17.437  0.00  0.00    +0.000 OA
ATOM     13  O   UNL     1      -0.926  13.759  19.377  0.00  0.00    +0.000 OA
BRANCH  11  14
ATOM     14  C   UNL     1      -0.591  11.186  19.673  0.00  0.00    +0.000 A 
ATOM     15  C   UNL     1       0.171  10.283  18.922  0.00  0.00    +0.000 A 
ATOM     16  C   UNL     1       0.786   9.205  19.565  0.00  0.00    +0.000 A 
ATOM     17  C   UNL     1       0.629   9.032  20.940  0.00  0.00    +0.000 A 
ATOM     18  F   UNL     1       1.227   7.985  21.529  0.00  0.00    +0.000 F 
ATOM     19  C   UNL     1      -0.143   9.921  21.683  0.00  0.00    +0.000 A 
ATOM     20 CL   UNL     1      -0.358   9.695  23.376  0.00  0.00    +0.000 Cl
ATOM     21  C   UNL     1      -0.760  11.002  21.053  0.00  0.00    +0.000 A 
ENDBRANCH  11  14
ENDBRANCH  10  11
BRANCH   3  22
ATOM     22  C   UNL     1      -6.640  11.293  19.037  0.00  0.00    +0.000 C 
BRANCH  22  23
ATOM     23  C   UNL     1      -7.142  10.110  19.846  0.00  0.00    +0.000 C 
ATOM     24  O   UNL     1      -7.263  10.148  21.064  0.00  0.00    +0.000 OA
BRANCH  23  25
ATOM     25  O   UNL     1      -7.522   9.027  19.135  0.00  0.00    +0.000 OA
ATOM     26  H   UNL     1      -6.805   8.392  18.952  0.00  0.00    +0.000 HD
ENDBRANCH  23  25
ENDBRANCH  22  23
ENDBRANCH   3  22
TORSDOF 5
ENDMDL
MODEL 8
REMARK VINA RESULT:      -6.4      4.113      6.630
REMARK  Name = 
REMARK  6 active torsions:
REMARK  status: ('A' for Active; 'I' for Inactive)
REMARK    1  A    between atoms: C_1  and  C_2
REMARK    2  A    between atoms: C_3  and  C_4
REMARK    3  A    between atoms: C_4  and  C_5
REMARK    4  A    between atoms: C_5  and  O_7
REMARK    5  A    between atoms: N_14  and  S_15
REMARK    6  A    between atoms: S_15  and  C_18
REMARK                            x       y       z     vdW  Elec       q    Type
REMARK                         _______ _______ _______ _____ _____    ______ ____
ROOT
ATOM      1  C   UNL     1       3.625   3.273  16.144  0.00  0.00    +0.000 C 
ATOM      2  C   UNL     1       4.721   4.053  16.794  0.00  0.00    +0.000 A 
ATOM      3  C   UNL     1       5.605   4.977  16.232  0.00  0.00    +0.000 A 
ATOM      4  C   UNL     1       6.457   5.436  17.287  0.00  0.00    +0.000 A 
ATOM      5  C   UNL     1       7.523   6.354  17.363  0.00  0.00    +0.000 A 
ATOM      6  C   UNL     1       8.137   6.546  18.597  0.00  0.00    +0.000 A 
ATOM      7  C   UNL     1       7.662   5.845  19.692  0.00  0.00    +0.000 A 
ATOM      8  N   UNL     1       6.628   4.980  19.678  0.00  0.00    +0.000 NA
ATOM      9  C   UNL     1       6.082   4.782  18.461  0.00  0.00    +0.000 A 
ATOM     10  N   UNL     1       5.092   3.890  18.130  0.00  0.00    +0.000 N 
ENDROOT
BRANCH  10  11
ATOM     11  S   UNL     1       4.367   2.818  19.252  0.00  0.00    +0.000 S 
ATOM     12  O   UNL     1       3.968   1.657  18.477  0.00  0.00    +0.000 OA
ATOM     13  O   UNL     1       5.241   2.677  20.397  0.00  0.00    +0.000 OA
BRANCH  11  14
ATOM     14  C   UNL     1       2.884   3.632  19.803  0.00  0.00    +0.000 A 
ATOM     15  C   UNL     1       1.686   2.915  19.904  0.00  0.00    +0.000 A 
ATOM     16  C   UNL     1       0.516   3.584  20.271  0.00  0.00    +0.000 A 
ATOM     17  C   UNL     1       0.546   4.955  20.524  0.00  0.00    +0.000 A 
ATOM     18  F   UNL     1      -0.593   5.572  20.869  0.00  0.00    +0.000 F 
ATOM     19  C   UNL     1       1.736   5.672  20.407  0.00  0.00    +0.000 A 
ATOM     20 CL   UNL     1       1.772   7.368  20.695  0.00  0.00    +0.000 Cl
ATOM     21  C   UNL     1       2.911   5.013  20.043  0.00  0.00    +0.000 A 
ENDBRANCH  11  14
ENDBRANCH  10  11
BRANCH   3  22
ATOM     22  C   UNL     1       5.712   5.397  14.786  0.00  0.00    +0.000 C 
BRANCH  22  23
ATOM     23  C   UNL     1       6.854   4.777  14.002  0.00  0.00    +0.000 C 
ATOM     24  O   UNL     1       7.946   5.319  13.887  0.00  0.00    +0.000 OA
BRANCH  23  25
ATOM     25  O   UNL     1       6.623   3.548  13.493  0.00  0.00    +0.000 OA
ATOM     26  H   UNL     1       7.142   2.834  13.908  0.00  0.00    +0.000 HD
ENDBRANCH  23  25
ENDBRANCH  22  23
ENDBRANCH   3  22
TORSDOF 5
ENDMDL
MODEL 9
REMARK VINA RESULT:      -6.3      3.830      6.395
REMARK  Name = 
REMARK  6 active torsions:
REMARK  status: ('A' for Active; 'I' for Inactive)
REMARK    1  A    between atoms: C_1  and  C_2
REMARK    2  A    between atoms: C_3  and  C_4
REMARK    3  A    between atoms: C_4  and  C_5
REMARK    4  A    between atoms: C_5  and  O_7
REMARK    5  A    between atoms: N_14  and  S_15
REMARK    6  A    between atoms: S_15  and  C_18
REMARK                            x       y       z     vdW  Elec       q    Type
REMARK                         _______ _______ _______ _____ _____    ______ ____
ROOT
ATOM      1  C   UNL     1       5.620   4.995  19.725  0.00  0.00    +0.000 C 
ATOM      2  C   UNL     1       5.852   4.854  18.256  0.00  0.00    +0.000 A 
ATOM      3  C   UNL     1       6.933   5.287  17.484  0.00  0.00    +0.000 A 
ATOM      4  C   UNL     1       6.662   4.900  16.131  0.00  0.00    +0.000 A 
ATOM      5  C   UNL     1       7.353   5.038  14.912  0.00  0.00    +0.000 A 
ATOM      6  C   UNL     1       6.760   4.526  13.761  0.00  0.00    +0.000 A 
ATOM      7  C   UNL     1       5.536   3.889  13.870  0.00  0.00    +0.000 A 
ATOM      8  N   UNL     1       4.851   3.704  15.017  0.00  0.00    +0.000 NA
ATOM      9  C   UNL     1       5.428   4.249  16.106  0.00  0.00    +0.000 A 
ATOM     10  N   UNL     1       4.915   4.306  17.379  0.00  0.00    +0.000 N 
ENDROOT
BRANCH  10  11
ATOM     11  S   UNL     1       3.377   3.684  17.809  0.00  0.00    +0.000 S 
ATOM     12  O   UNL     1       2.606   3.672  16.580  0.00  0.00    +0.000 OA
ATOM     13  O   UNL     1       3.562   2.471  18.578  0.00  0.00    +0.000 OA
BRANCH  11  14
ATOM     14  C   UNL     1       2.653   4.900  18.887  0.00  0.00    +0.000 A 
ATOM     15  C   UNL     1       2.096   4.510  20.111  0.00  0.00    +0.000 A 
ATOM     16  C   UNL     1       1.469   5.467  20.914  0.00  0.00    +0.000 A 
ATOM     17  C   UNL     1       1.394   6.793  20.489  0.00  0.00    +0.000 A 
ATOM     18  F   UNL     1       0.782   7.688  21.278  0.00  0.00    +0.000 F 
ATOM     19  C   UNL     1       1.934   7.177  19.263  0.00  0.00    +0.000 A 
ATOM     20 CL   UNL     1       1.822   8.808  18.726  0.00  0.00    +0.000 Cl
ATOM     21  C   UNL     1       2.564   6.231  18.454  0.00  0.00    +0.000 A 
ENDBRANCH  11  14
ENDBRANCH  10  11
BRANCH   3  22
ATOM     22  C   UNL     1       8.145   6.065  17.937  0.00  0.00    +0.000 C 
BRANCH  22  23
ATOM     23  C   UNL     1       7.987   7.574  17.963  0.00  0.00    +0.000 C 
ATOM     24  O   UNL     1       7.233   8.172  17.206  0.00  0.00    +0.000 OA
BRANCH  23  25
ATOM     25  O   UNL     1       8.677   8.224  18.925  0.00  0.00    +0.000 OA
ATOM     26  H   UNL     1       9.642   8.239  18.790  0.00  0.00    +0.000 HD
ENDBRANCH  23  25
ENDBRANCH  22  23
ENDBRANCH   3  22
TORSDOF 5
ENDMDL
