MODEL 1
REMARK VINA RESULT:      -5.8      0.000      0.000
REMARK  Name = 
REMARK  9 active torsions:
REMARK  status: ('A' for Active; 'I' for Inactive)
REMARK    1  A    between atoms: C_1  and  C_2
REMARK    2  A    between atoms: C_2  and  C_3
REMARK    3  A    between atoms: C_3  and  C_4
REMARK    4  A    between atoms: C_3  and  C_5
REMARK    5  A    between atoms: C_12  and  C_13
REMARK    6  A    between atoms: C_21  and  C_22
REMARK    7  A    between atoms: C_22  and  C_23
REMARK    8  A    between atoms: C_23  and  C_24
REMARK    9  A    between atoms: C_23  and  C_25
REMARK                            x       y       z     vdW  Elec       q    Type
REMARK                         _______ _______ _______ _____ _____    ______ ____
ROOT
ATOM      1  C   UNL     1      -1.545  13.196  19.912  0.00  0.00    +0.000 C 
ATOM      2  O   UNL     1      -1.133  14.277  20.361  0.00  0.00    +0.000 OA
ATOM      3  N   UNL     1      -0.935  12.617  18.797  0.00  0.00    +0.000 N 
ATOM      4  C   UNL     1       0.242  13.337  18.263  0.00  0.00    +0.000 C 
ATOM      5  C   UNL     1       1.526  12.644  18.724  0.00  0.00    +0.000 C 
ATOM      6  N   UNL     1       1.426  11.211  18.514  0.00  0.00    +0.000 N 
ATOM      7  C   UNL     1       2.445  10.304  18.485  0.00  0.00    +0.000 A 
ATOM      8  C   UNL     1       1.840   9.101  18.189  0.00  0.00    +0.000 A 
ATOM      9  N   UNL     1       0.486   9.272  18.044  0.00  0.00    +0.000 NA
ATOM     10  C   UNL     1       0.246  10.547  18.272  0.00  0.00    +0.000 A 
ATOM     11  C   UNL     1      -1.079  11.262  18.160  0.00  0.00    +0.000 C 
ENDROOT
BRANCH   8  12
ATOM     12  C   UNL     1       2.500   7.826  17.979  0.00  0.00    +0.000 A 
ATOM     13  C   UNL     1       3.775   7.750  17.407  0.00  0.00    +0.000 A 
ATOM     14  C   UNL     1       4.369   6.508  17.167  0.00  0.00    +0.000 A 
ATOM     15  C   UNL     1       3.696   5.334  17.503  0.00  0.00    +0.000 A 
ATOM     16  C   UNL     1       2.435   5.400  18.095  0.00  0.00    +0.000 A 
ATOM     17  C   UNL     1       1.843   6.640  18.339  0.00  0.00    +0.000 A 
ENDBRANCH   8  12
BRANCH   1  18
ATOM     18  C   UNL     1      -2.713  12.524  20.641  0.00  0.00    +0.000 C 
ATOM     19  C   UNL     1      -2.360  12.319  22.109  0.00  0.00    +0.000 C 
BRANCH  18  21
ATOM     20  C   UNL     1      -5.165  12.582  21.280  0.00  0.00    +0.000 C 
ATOM     21  C   UNL     1      -4.064  13.216  20.430  0.00  0.00    +0.000 C 
ENDBRANCH  18  21
ENDBRANCH   1  18
BRANCH  11  22
ATOM     22  C   UNL     1      -2.246  10.372  18.586  0.00  0.00    +0.000 C 
BRANCH  22  23
ATOM     23  C   UNL     1      -3.287   9.902  17.549  0.00  0.00    +0.000 C 
ATOM     24  C   UNL     1      -4.500  10.833  17.657  0.00  0.00    +0.000 C 
ATOM     25  C   UNL     1      -2.701   9.935  16.144  0.00  0.00    +0.000 C 
ENDBRANCH  22  23
ENDBRANCH  11  22
TORSDOF 5
ENDMDL
MODEL 2
REMARK VINA RESULT:      -5.8      1.728      2.582
REMARK  Name = 
REMARK  9 active torsions:
REMARK  status: ('A' for Active; 'I' for Inactive)
REMARK    1  A    between atoms: C_1  and  C_2
REMARK    2  A    between atoms: C_2  and  C_3
REMARK    3  A    between atoms: C_3  and  C_4
REMARK    4  A    between atoms: C_3  and  C_5
REMARK    5  A    between atoms: C_12  and  C_13
REMARK    6  A    between atoms: C_21  and  C_22
REMARK    7  A    between atoms: C_22  and  C_23
REMARK    8  A    between atoms: C_23  and  C_24
REMARK    9  A    between atoms: C_23  and  C_25
REMARK                            x       y       z     vdW  Elec       q    Type
REMARK                         _______ _______ _______ _____ _____    ______ ____
ROOT
ATOM      1  C   UNL     1      -3.613  13.648  21.194  0.00  0.00    +0.000 C 
ATOM      2  O   UNL     1      -3.556  14.422  22.162  0.00  0.00    +0.000 OA
ATOM      3  N   UNL     1      -2.497  13.460  20.374  0.00  0.00    +0.000 N 
ATOM      4  C   UNL     1      -1.271  14.178  20.786  0.00  0.00    +0.000 C 
ATOM      5  C   UNL     1      -0.316  13.211  21.489  0.00  0.00    +0.000 C 
ATOM      6  N   UNL     1      -0.188  11.985  20.722  0.00  0.00    +0.000 N 
ATOM      7  C   UNL     1       0.789  11.039  20.830  0.00  0.00    +0.000 A 
ATOM      8  C   UNL     1       0.499  10.118  19.844  0.00  0.00    +0.000 A 
ATOM      9  N   UNL     1      -0.627  10.496  19.156  0.00  0.00    +0.000 NA
ATOM     10  C   UNL     1      -1.048  11.611  19.716  0.00  0.00    +0.000 A 
ATOM     11  C   UNL     1      -2.208  12.472  19.278  0.00  0.00    +0.000 C 
ENDROOT
BRANCH   8  12
ATOM     12  C   UNL     1       1.279   8.945  19.496  0.00  0.00    +0.000 A 
ATOM     13  C   UNL     1       1.520   7.926  20.425  0.00  0.00    +0.000 A 
ATOM     14  C   UNL     1       2.316   6.831  20.081  0.00  0.00    +0.000 A 
ATOM     15  C   UNL     1       2.872   6.742  18.806  0.00  0.00    +0.000 A 
ATOM     16  C   UNL     1       2.619   7.740  17.866  0.00  0.00    +0.000 A 
ATOM     17  C   UNL     1       1.820   8.832  18.206  0.00  0.00    +0.000 A 
ENDBRANCH   8  12
BRANCH   1  18
ATOM     18  C   UNL     1      -4.930  12.901  20.959  0.00  0.00    +0.000 C 
ATOM     19  C   UNL     1      -5.628  12.649  22.291  0.00  0.00    +0.000 C 
BRANCH  18  21
ATOM     20  C   UNL     1      -7.116  12.737  19.688  0.00  0.00    +0.000 C 
ATOM     21  C   UNL     1      -5.838  13.546  19.907  0.00  0.00    +0.000 C 
ENDBRANCH  18  21
ENDBRANCH   1  18
BRANCH  11  22
ATOM     22  C   UNL     1      -3.360  11.638  18.719  0.00  0.00    +0.000 C 
BRANCH  22  23
ATOM     23  C   UNL     1      -3.508  11.431  17.198  0.00  0.00    +0.000 C 
ATOM     24  C   UNL     1      -3.209   9.956  16.902  0.00  0.00    +0.000 C 
ATOM     25  C   UNL     1      -4.911  11.803  16.738  0.00  0.00    +0.000 C 
ENDBRANCH  22  23
ENDBRANCH  11  22
TORSDOF 5
ENDMDL
MODEL 3
REMARK VINA RESULT:      -5.8      4.348      7.074
REMARK  Name = 
REMARK  9 active torsions:
REMARK  status: ('A' for Active; 'I' for Inactive)
REMARK    1  A    between atoms: C_1  and  C_2
REMARK    2  A    between atoms: C_2  and  C_3
REMARK    3  A    between atoms: C_3  and  C_4
REMARK    4  A    between atoms: C_3  and  C_5
REMARK    5  A    between atoms: C_12  and  C_13
REMARK    6  A    between atoms: C_21  and  C_22
REMARK    7  A    between atoms: C_22  and  C_23
REMARK    8  A    between atoms: C_23  and  C_24
REMARK    9  A    between atoms: C_23  and  C_25
REMARK                            x       y       z     vdW  Elec       q    Type
REMARK                         _______ _______ _______ _____ _____    ______ ____
ROOT
ATOM      1  C   UNL     1      -5.898  15.128  23.345  0.00  0.00    +0.000 C 
ATOM      2  O   UNL     1      -7.078  15.349  23.657  0.00  0.00    +0.000 OA
ATOM      3  N   UNL     1      -5.492  13.839  22.988  0.00  0.00    +0.000 N 
ATOM      4  C   UNL     1      -6.562  12.819  22.947  0.00  0.00    +0.000 C 
ATOM      5  C   UNL     1      -6.983  12.567  21.498  0.00  0.00    +0.000 C 
ATOM      6  N   UNL     1      -5.812  12.390  20.659  0.00  0.00    +0.000 N 
ATOM      7  C   UNL     1      -5.761  11.835  19.413  0.00  0.00    +0.000 A 
ATOM      8  C   UNL     1      -4.423  11.838  19.079  0.00  0.00    +0.000 A 
ATOM      9  N   UNL     1      -3.679  12.383  20.097  0.00  0.00    +0.000 NA
ATOM     10  C   UNL     1      -4.535  12.738  21.033  0.00  0.00    +0.000 A 
ATOM     11  C   UNL     1      -4.216  13.314  22.391  0.00  0.00    +0.000 C 
ENDROOT
BRANCH   8  12
ATOM     12  C   UNL     1      -3.828  11.291  17.874  0.00  0.00    +0.000 A 
ATOM     13  C   UNL     1      -4.438  11.443  16.624  0.00  0.00    +0.000 A 
ATOM     14  C   UNL     1      -3.872  10.863  15.486  0.00  0.00    +0.000 A 
ATOM     15  C   UNL     1      -2.688  10.134  15.587  0.00  0.00    +0.000 A 
ATOM     16  C   UNL     1      -2.059   9.997  16.824  0.00  0.00    +0.000 A 
ATOM     17  C   UNL     1      -2.621  10.580  17.961  0.00  0.00    +0.000 A 
ENDBRANCH   8  12
BRANCH   1  18
ATOM     18  C   UNL     1      -4.931  16.316  23.340  0.00  0.00    +0.000 C 
ATOM     19  C   UNL     1      -5.550  17.487  22.585  0.00  0.00    +0.000 C 
BRANCH  18  21
ATOM     20  C   UNL     1      -5.163  17.879  25.322  0.00  0.00    +0.000 C 
ATOM     21  C   UNL     1      -4.399  16.697  24.726  0.00  0.00    +0.000 C 
ENDBRANCH  18  21
ENDBRANCH   1  18
BRANCH  11  22
ATOM     22  C   UNL     1      -2.994  14.231  22.351  0.00  0.00    +0.000 C 
BRANCH  22  23
ATOM     23  C   UNL     1      -1.632  13.742  22.885  0.00  0.00    +0.000 C 
ATOM     24  C   UNL     1      -1.321  14.539  24.157  0.00  0.00    +0.000 C 
ATOM     25  C   UNL     1      -1.675  12.248  23.178  0.00  0.00    +0.000 C 
ENDBRANCH  22  23
ENDBRANCH  11  22
TORSDOF 5
ENDMDL
MODEL 4
REMARK VINA RESULT:      -5.7      1.774      2.284
REMARK  Name = 
REMARK  9 active torsions:
REMARK  status: ('A' for Active; 'I' for Inactive)
REMARK    1  A    between atoms: C_1  and  C_2
REMARK    2  A    between atoms: C_2  and  C_3
REMARK    3  A    between atoms: C_3  and  C_4
REMARK    4  A    between atoms: C_3  and  C_5
REMARK    5  A    between atoms: C_12  and  C_13
REMARK    6  A    between atoms: C_21  and  C_22
REMARK    7  A    between atoms: C_22  and  C_23
REMARK    8  A    between atoms: C_23  and  C_24
REMARK    9  A    between atoms: C_23  and  C_25
REMARK                            x       y       z     vdW  Elec       q    Type
REMARK                         _______ _______ _______ _____ _____    ______ ____
ROOT
ATOM      1  C   UNL     1      -2.979  14.072  21.037  0.00  0.00    +0.000 C 
ATOM      2  O   UNL     1      -2.795  14.965  21.878  0.00  0.00    +0.000 OA
ATOM      3  N   UNL     1      -1.935  13.666  20.201  0.00  0.00    +0.000 N 
ATOM      4  C   UNL     1      -0.628  14.315  20.445  0.00  0.00    +0.000 C 
ATOM      5  C   UNL     1       0.280  13.371  21.235  0.00  0.00    +0.000 C 
ATOM      6  N   UNL     1       0.255  12.043  20.649  0.00  0.00    +0.000 N 
ATOM      7  C   UNL     1       1.150  11.033  20.846  0.00  0.00    +0.000 A 
ATOM      8  C   UNL     1       0.722  10.014  20.021  0.00  0.00    +0.000 A 
ATOM      9  N   UNL     1      -0.406  10.396  19.340  0.00  0.00    +0.000 NA
ATOM     10  C   UNL     1      -0.694  11.614  19.751  0.00  0.00    +0.000 A 
ATOM     11  C   UNL     1      -1.800  12.511  19.248  0.00  0.00    +0.000 C 
ENDROOT
BRANCH   8  12
ATOM     12  C   UNL     1       1.375   8.736  19.810  0.00  0.00    +0.000 A 
ATOM     13  C   UNL     1       2.009   8.429  18.601  0.00  0.00    +0.000 A 
ATOM     14  C   UNL     1       2.586   7.172  18.404  0.00  0.00    +0.000 A 
ATOM     15  C   UNL     1       2.540   6.215  19.416  0.00  0.00    +0.000 A 
ATOM     16  C   UNL     1       1.932   6.518  20.633  0.00  0.00    +0.000 A 
ATOM     17  C   UNL     1       1.359   7.775  20.833  0.00  0.00    +0.000 A 
ENDBRANCH   8  12
BRANCH   1  18
ATOM     18  C   UNL     1      -4.367  13.427  20.977  0.00  0.00    +0.000 C 
ATOM     19  C   UNL     1      -4.699  12.786  22.320  0.00  0.00    +0.000 C 
BRANCH  18  21
ATOM     20  C   UNL     1      -6.382  13.648  19.456  0.00  0.00    +0.000 C 
ATOM     21  C   UNL     1      -5.468  14.357  20.456  0.00  0.00    +0.000 C 
ENDBRANCH  18  21
ENDBRANCH   1  18
BRANCH  11  22
ATOM     22  C   UNL     1      -3.052  11.719  18.873  0.00  0.00    +0.000 C 
BRANCH  22  23
ATOM     23  C   UNL     1      -3.286  11.273  17.415  0.00  0.00    +0.000 C 
ATOM     24  C   UNL     1      -3.189   9.743  17.379  0.00  0.00    +0.000 C 
ATOM     25  C   UNL     1      -4.648  11.741  16.920  0.00  0.00    +0.000 C 
ENDBRANCH  22  23
ENDBRANCH  11  22
TORSDOF 5
ENDMDL
MODEL 5
REMARK VINA RESULT:      -5.7      3.558      8.461
REMARK  Name = 
REMARK  9 active torsions:
REMARK  status: ('A' for Active; 'I' for Inactive)
REMARK    1  A    between atoms: C_1  and  C_2
REMARK    2  A    between atoms: C_2  and  C_3
REMARK    3  A    between atoms: C_3  and  C_4
REMARK    4  A    between atoms: C_3  and  C_5
REMARK    5  A    between atoms: C_12  and  C_13
REMARK    6  A    between atoms: C_21  and  C_22
REMARK    7  A    between atoms: C_22  and  C_23
REMARK    8  A    between atoms: C_23  and  C_24
REMARK    9  A    between atoms: C_23  and  C_25
REMARK                            x       y       z     vdW  Elec       q    Type
REMARK                         _______ _______ _______ _____ _____    ______ ____
ROOT
ATOM      1  C   UNL     1       3.123   4.410  17.721  0.00  0.00    +0.000 C 
ATOM      2  O   UNL     1       3.654   4.408  16.600  0.00  0.00    +0.000 OA
ATOM      3  N   UNL     1       3.390   5.440  18.627  0.00  0.00    +0.000 N 
ATOM      4  C   UNL     1       4.270   6.520  18.129  0.00  0.00    +0.000 C 
ATOM      5  C   UNL     1       3.427   7.735  17.738  0.00  0.00    +0.000 C 
ATOM      6  N   UNL     1       2.467   8.038  18.783  0.00  0.00    +0.000 N 
ATOM      7  C   UNL     1       1.780   9.203  18.966  0.00  0.00    +0.000 A 
ATOM      8  C   UNL     1       1.058   9.009  20.124  0.00  0.00    +0.000 A 
ATOM      9  N   UNL     1       1.299   7.757  20.633  0.00  0.00    +0.000 NA
ATOM     10  C   UNL     1       2.131   7.171  19.797  0.00  0.00    +0.000 A 
ATOM     11  C   UNL     1       2.766   5.809  19.944  0.00  0.00    +0.000 C 
ENDROOT
BRANCH   8  12
ATOM     12  C   UNL     1       0.210   9.980  20.791  0.00  0.00    +0.000 A 
ATOM     13  C   UNL     1       0.125  10.040  22.187  0.00  0.00    +0.000 A 
ATOM     14  C   UNL     1      -0.737  10.949  22.804  0.00  0.00    +0.000 A 
ATOM     15  C   UNL     1      -1.515  11.810  22.032  0.00  0.00    +0.000 A 
ATOM     16  C   UNL     1      -1.421  11.776  20.642  0.00  0.00    +0.000 A 
ATOM     17  C   UNL     1      -0.557  10.871  20.024  0.00  0.00    +0.000 A 
ENDBRANCH   8  12
BRANCH   1  18
ATOM     18  C   UNL     1       2.154   3.269  18.049  0.00  0.00    +0.000 C 
ATOM     19  C   UNL     1       0.738   3.657  17.640  0.00  0.00    +0.000 C 
BRANCH  18  21
ATOM     20  C   UNL     1       3.770   1.333  18.301  0.00  0.00    +0.000 C 
ATOM     21  C   UNL     1       2.591   1.902  17.511  0.00  0.00    +0.000 C 
ENDBRANCH  18  21
ENDBRANCH   1  18
BRANCH  11  22
ATOM     22  C   UNL     1       1.826   4.810  20.617  0.00  0.00    +0.000 C 
BRANCH  22  23
ATOM     23  C   UNL     1       2.383   3.739  21.578  0.00  0.00    +0.000 C 
ATOM     24  C   UNL     1       1.307   2.659  21.740  0.00  0.00    +0.000 C 
ATOM     25  C   UNL     1       3.673   3.142  21.030  0.00  0.00    +0.000 C 
ENDBRANCH  22  23
ENDBRANCH  11  22
TORSDOF 5
ENDMDL
MODEL 6
REMARK VINA RESULT:      -5.7      3.388      8.322
REMARK  Name = 
REMARK  9 active torsions:
REMARK  status: ('A' for Active; 'I' for Inactive)
REMARK    1  A    between atoms: C_1  and  C_2
REMARK    2  A    between atoms: C_2  and  C_3
REMARK    3  A    between atoms: C_3  and  C_4
REMARK    4  A    between atoms: C_3  and  C_5
REMARK    5  A    between atoms: C_12  and  C_13
REMARK    6  A    between atoms: C_21  and  C_22
REMARK    7  A    between atoms: C_22  and  C_23
REMARK    8  A    between atoms: C_23  and  C_24
REMARK    9  A    between atoms: C_23  and  C_25
REMARK                            x       y       z     vdW  Elec       q    Type
REMARK                         _______ _______ _______ _____ _____    ______ ____
ROOT
ATOM      1  C   UNL     1       3.412   4.486  17.534  0.00  0.00    +0.000 C 
ATOM      2  O   UNL     1       4.061   4.364  16.484  0.00  0.00    +0.000 OA
ATOM      3  N   UNL     1       3.611   5.595  18.362  0.00  0.00    +0.000 N 
ATOM      4  C   UNL     1       4.569   6.604  17.861  0.00  0.00    +0.000 C 
ATOM      5  C   UNL     1       3.808   7.790  17.265  0.00  0.00    +0.000 C 
ATOM      6  N   UNL     1       2.750   8.212  18.166  0.00  0.00    +0.000 N 
ATOM      7  C   UNL     1       2.081   9.401  18.160  0.00  0.00    +0.000 A 
ATOM      8  C   UNL     1       1.234   9.336  19.245  0.00  0.00    +0.000 A 
ATOM      9  N   UNL     1       1.384   8.135  19.895  0.00  0.00    +0.000 NA
ATOM     10  C   UNL     1       2.283   7.455  19.215  0.00  0.00    +0.000 A 
ATOM     11  C   UNL     1       2.860   6.103  19.561  0.00  0.00    +0.000 C 
ENDROOT
BRANCH   8  12
ATOM     12  C   UNL     1       0.348  10.382  19.719  0.00  0.00    +0.000 A 
ATOM     13  C   UNL     1      -0.693  10.874  18.923  0.00  0.00    +0.000 A 
ATOM     14  C   UNL     1      -1.501  11.918  19.381  0.00  0.00    +0.000 A 
ATOM     15  C   UNL     1      -1.280  12.472  20.641  0.00  0.00    +0.000 A 
ATOM     16  C   UNL     1      -0.262  11.973  21.452  0.00  0.00    +0.000 A 
ATOM     17  C   UNL     1       0.543  10.928  20.997  0.00  0.00    +0.000 A 
ENDBRANCH   8  12
BRANCH   1  18
ATOM     18  C   UNL     1       2.382   3.400  17.862  0.00  0.00    +0.000 C 
ATOM     19  C   UNL     1       1.007   3.821  17.358  0.00  0.00    +0.000 C 
BRANCH  18  21
ATOM     20  C   UNL     1       3.688   1.308  18.447  0.00  0.00    +0.000 C 
ATOM     21  C   UNL     1       2.791   1.993  17.416  0.00  0.00    +0.000 C 
ENDBRANCH  18  21
ENDBRANCH   1  18
BRANCH  11  22
ATOM     22  C   UNL     1       1.826   5.192  20.219  0.00  0.00    +0.000 C 
BRANCH  22  23
ATOM     23  C   UNL     1       2.254   4.177  21.299  0.00  0.00    +0.000 C 
ATOM     24  C   UNL     1       1.223   3.042  21.302  0.00  0.00    +0.000 C 
ATOM     25  C   UNL     1       3.650   3.641  21.011  0.00  0.00    +0.000 C 
ENDBRANCH  22  23
ENDBRANCH  11  22
TORSDOF 5
ENDMDL
MODEL 7
REMARK VINA RESULT:      -5.7      0.324      1.020
REMARK  Name = 
REMARK  9 active torsions:
REMARK  status: ('A' for Active; 'I' for Inactive)
REMARK    1  A    between atoms: C_1  and  C_2
REMARK    2  A    between atoms: C_2  and  C_3
REMARK    3  A    between atoms: C_3  and  C_4
REMARK    4  A    between atoms: C_3  and  C_5
REMARK    5  A    between atoms: C_12  and  C_13
REMARK    6  A    between atoms: C_21  and  C_22
REMARK    7  A    between atoms: C_22  and  C_23
REMARK    8  A    between atoms: C_23  and  C_24
REMARK    9  A    between atoms: C_23  and  C_25
REMARK                            x       y       z     vdW  Elec       q    Type
REMARK                         _______ _______ _______ _____ _____    ______ ____
ROOT
ATOM      1  C   UNL     1      -1.522  13.182  19.957  0.00  0.00    +0.000 C 
ATOM      2  O   UNL     1      -1.101  14.253  20.421  0.00  0.00    +0.000 OA
ATOM      3  N   UNL     1      -0.920  12.616  18.830  0.00  0.00    +0.000 N 
ATOM      4  C   UNL     1       0.259  13.337  18.303  0.00  0.00    +0.000 C 
ATOM      5  C   UNL     1       1.540  12.629  18.747  0.00  0.00    +0.000 C 
ATOM      6  N   UNL     1       1.430  11.200  18.516  0.00  0.00    +0.000 N 
ATOM      7  C   UNL     1       2.444  10.288  18.468  0.00  0.00    +0.000 A 
ATOM      8  C   UNL     1       1.830   9.093  18.156  0.00  0.00    +0.000 A 
ATOM      9  N   UNL     1       0.476   9.275  18.020  0.00  0.00    +0.000 NA
ATOM     10  C   UNL     1       0.245  10.548  18.268  0.00  0.00    +0.000 A 
ATOM     11  C   UNL     1      -1.076  11.273  18.173  0.00  0.00    +0.000 C 
ENDROOT
BRANCH   8  12
ATOM     12  C   UNL     1       2.481   7.818  17.923  0.00  0.00    +0.000 A 
ATOM     13  C   UNL     1       1.883   6.612  18.306  0.00  0.00    +0.000 A 
ATOM     14  C   UNL     1       2.552   5.400  18.117  0.00  0.00    +0.000 A 
ATOM     15  C   UNL     1       3.820   5.383  17.538  0.00  0.00    +0.000 A 
ATOM     16  C   UNL     1       4.414   6.577  17.130  0.00  0.00    +0.000 A 
ATOM     17  C   UNL     1       3.745   7.787  17.315  0.00  0.00    +0.000 A 
ENDBRANCH   8  12
BRANCH   1  18
ATOM     18  C   UNL     1      -2.692  12.506  20.680  0.00  0.00    +0.000 C 
ATOM     19  C   UNL     1      -2.324  12.252  22.137  0.00  0.00    +0.000 C 
BRANCH  18  21
ATOM     20  C   UNL     1      -4.463  13.943  21.785  0.00  0.00    +0.000 C 
ATOM     21  C   UNL     1      -4.035  13.224  20.506  0.00  0.00    +0.000 C 
ENDBRANCH  18  21
ENDBRANCH   1  18
BRANCH  11  22
ATOM     22  C   UNL     1      -2.247  10.384  18.589  0.00  0.00    +0.000 C 
BRANCH  22  23
ATOM     23  C   UNL     1      -3.300   9.943  17.552  0.00  0.00    +0.000 C 
ATOM     24  C   UNL     1      -4.464  10.939  17.625  0.00  0.00    +0.000 C 
ATOM     25  C   UNL     1      -2.699   9.914  16.153  0.00  0.00    +0.000 C 
ENDBRANCH  22  23
ENDBRANCH  11  22
TORSDOF 5
ENDMDL
MODEL 8
REMARK VINA RESULT:      -5.7      2.231      3.596
REMARK  Name = 
REMARK  9 active torsions:
REMARK  status: ('A' for Active; 'I' for Inactive)
REMARK    1  A    between atoms: C_1  and  C_2
REMARK    2  A    between atoms: C_2  and  C_3
REMARK    3  A    between atoms: C_3  and  C_4
REMARK    4  A    between atoms: C_3  and  C_5
REMARK    5  A    between atoms: C_12  and  C_13
REMARK    6  A    between atoms: C_21  and  C_22
REMARK    7  A    between atoms: C_22  and  C_23
REMARK    8  A    between atoms: C_23  and  C_24
REMARK    9  A    between atoms: C_23  and  C_25
REMARK                            x       y       z     vdW  Elec       q    Type
REMARK                         _______ _______ _______ _____ _____    ______ ____
ROOT
ATOM      1  C   UNL     1      -3.200  12.661  21.960  0.00  0.00    +0.000 C 
ATOM      2  O   UNL     1      -3.896  12.448  22.964  0.00  0.00    +0.000 OA
ATOM      3  N   UNL     1      -1.824  12.418  21.991  0.00  0.00    +0.000 N 
ATOM      4  C   UNL     1      -1.303  11.840  23.249  0.00  0.00    +0.000 C 
ATOM      5  C   UNL     1      -1.078  10.337  23.075  0.00  0.00    +0.000 C 
ATOM      6  N   UNL     1      -0.367  10.076  21.836  0.00  0.00    +0.000 N 
ATOM      7  C   UNL     1       0.297   8.937  21.485  0.00  0.00    +0.000 A 
ATOM      8  C   UNL     1       0.852   9.216  20.254  0.00  0.00    +0.000 A 
ATOM      9  N   UNL     1       0.531  10.493  19.866  0.00  0.00    +0.000 NA
ATOM     10  C   UNL     1      -0.229  10.991  20.818  0.00  0.00    +0.000 A 
ATOM     11  C   UNL     1      -0.781  12.394  20.908  0.00  0.00    +0.000 C 
ENDROOT
BRANCH   8  12
ATOM     12  C   UNL     1       1.716   8.349  19.475  0.00  0.00    +0.000 A 
ATOM     13  C   UNL     1       2.178   7.130  19.984  0.00  0.00    +0.000 A 
ATOM     14  C   UNL     1       3.050   6.336  19.235  0.00  0.00    +0.000 A 
ATOM     15  C   UNL     1       3.463   6.752  17.970  0.00  0.00    +0.000 A 
ATOM     16  C   UNL     1       2.990   7.954  17.444  0.00  0.00    +0.000 A 
ATOM     17  C   UNL     1       2.115   8.745  18.190  0.00  0.00    +0.000 A 
ENDBRANCH   8  12
BRANCH   1  18
ATOM     18  C   UNL     1      -3.908  13.166  20.699  0.00  0.00    +0.000 C 
ATOM     19  C   UNL     1      -5.186  12.368  20.467  0.00  0.00    +0.000 C 
BRANCH  18  21
ATOM     20  C   UNL     1      -5.593  15.044  20.457  0.00  0.00    +0.000 C 
ATOM     21  C   UNL     1      -4.122  14.683  20.665  0.00  0.00    +0.000 C 
ENDBRANCH  18  21
ENDBRANCH   1  18
BRANCH  11  22
ATOM     22  C   UNL     1      -1.139  12.956  19.533  0.00  0.00    +0.000 C 
BRANCH  22  23
ATOM     23  C   UNL     1      -0.459  14.239  19.013  0.00  0.00    +0.000 C 
ATOM     24  C   UNL     1      -0.501  15.274  20.143  0.00  0.00    +0.000 C 
ATOM     25  C   UNL     1       0.977  13.955  18.591  0.00  0.00    +0.000 C 
ENDBRANCH  22  23
ENDBRANCH  11  22
TORSDOF 5
ENDMDL
MODEL 9
REMARK VINA RESULT:      -5.7      2.195      3.620
REMARK  Name = 
REMARK  9 active torsions:
REMARK  status: ('A' for Active; 'I' for Inactive)
REMARK    1  A    between atoms: C_1  and  C_2
REMARK    2  A    between atoms: C_2  and  C_3
REMARK    3  A    between atoms: C_3  and  C_4
REMARK    4  A    between atoms: C_3  and  C_5
REMARK    5  A    between atoms: C_12  and  C_13
REMARK    6  A    between atoms: C_21  and  C_22
REMARK    7  A    between atoms: C_22  and  C_23
REMARK    8  A    between atoms: C_23  and  C_24
REMARK    9  A    between atoms: C_23  and  C_25
REMARK                            x       y       z     vdW  Elec       q    Type
REMARK                         _______ _______ _______ _____ _____    ______ ____
ROOT
ATOM      1  C   UNL     1      -2.549  12.449  21.843  0.00  0.00    +0.000 C 
ATOM      2  O   UNL     1      -3.394  12.199  22.716  0.00  0.00    +0.000 OA
ATOM      3  N   UNL     1      -1.228  12.018  21.994  0.00  0.00    +0.000 N 
ATOM      4  C   UNL     1      -0.952  11.210  23.202  0.00  0.00    +0.000 C 
ATOM      5  C   UNL     1      -0.885   9.728  22.830  0.00  0.00    +0.000 C 
ATOM      6  N   UNL     1      -0.052   9.542  21.656  0.00  0.00    +0.000 N 
ATOM      7  C   UNL     1       0.514   8.381  21.216  0.00  0.00    +0.000 A 
ATOM      8  C   UNL     1       1.257   8.745  20.113  0.00  0.00    +0.000 A 
ATOM      9  N   UNL     1       1.145  10.095  19.888  0.00  0.00    +0.000 NA
ATOM     10  C   UNL     1       0.328  10.559  20.811  0.00  0.00    +0.000 A 
ATOM     11  C   UNL     1      -0.060  11.998  21.047  0.00  0.00    +0.000 C 
ENDROOT
BRANCH   8  12
ATOM     12  C   UNL     1       2.109   7.882  19.317  0.00  0.00    +0.000 A 
ATOM     13  C   UNL     1       2.634   8.304  18.090  0.00  0.00    +0.000 A 
ATOM     14  C   UNL     1       3.410   7.436  17.317  0.00  0.00    +0.000 A 
ATOM     15  C   UNL     1       3.673   6.143  17.768  0.00  0.00    +0.000 A 
ATOM     16  C   UNL     1       3.174   5.721  18.999  0.00  0.00    +0.000 A 
ATOM     17  C   UNL     1       2.403   6.588  19.774  0.00  0.00    +0.000 A 
ENDBRANCH   8  12
BRANCH   1  18
ATOM     18  C   UNL     1      -3.018  13.211  20.599  0.00  0.00    +0.000 C 
ATOM     19  C   UNL     1      -3.907  12.315  19.745  0.00  0.00    +0.000 C 
BRANCH  18  21
ATOM     20  C   UNL     1      -2.650  15.515  21.591  0.00  0.00    +0.000 C 
ATOM     21  C   UNL     1      -3.642  14.578  20.901  0.00  0.00    +0.000 C 
ENDBRANCH  18  21
ENDBRANCH   1  18
BRANCH  11  22
ATOM     22  C   UNL     1      -0.162  12.785  19.741  0.00  0.00    +0.000 C 
BRANCH  22  23
ATOM     23  C   UNL     1       0.599  14.115  19.569  0.00  0.00    +0.000 C 
ATOM     24  C   UNL     1      -0.304  15.065  18.773  0.00  0.00    +0.000 C 
ATOM     25  C   UNL     1       0.952  14.712  20.925  0.00  0.00    +0.000 C 
ENDBRANCH  22  23
ENDBRANCH  11  22
TORSDOF 5
ENDMDL
