MODEL 1
REMARK VINA RESULT:      -6.7      0.000      0.000
REMARK  Name = 
REMARK  4 active torsions:
REMARK  status: ('A' for Active; 'I' for Inactive)
REMARK    1  A    between atoms: C_1  and  C_2
REMARK    2  A    between atoms: C_2  and  N_3
REMARK    3  A    between atoms: C_9  and  N_10
REMARK    4  A    between atoms: C_13  and  C_14
REMARK                            x       y       z     vdW  Elec       q    Type
REMARK                         _______ _______ _______ _____ _____    ______ ____
ROOT
ATOM      1  N   UNL     1       3.374   3.694  18.810  0.00  0.00    +0.000 NA
ATOM      2  C   UNL     1       4.360   4.163  19.814  0.00  0.00    +0.000 C 
ATOM      3  C   UNL     1       5.343   5.253  19.327  0.00  0.00    +0.000 C 
ATOM      4  C   UNL     1       5.801   5.003  17.912  0.00  0.00    +0.000 A 
ATOM      5  C   UNL     1       5.180   4.034  17.149  0.00  0.00    +0.000 A 
ATOM      6  S   UNL     1       5.745   4.019  15.551  0.00  0.00    +0.000 S 
ATOM      7  C   UNL     1       6.901   5.222  15.892  0.00  0.00    +0.000 A 
ATOM      8  C   UNL     1       6.807   5.747  17.173  0.00  0.00    +0.000 A 
ATOM      9  C   UNL     1       4.094   3.119  17.645  0.00  0.00    +0.000 C 
ENDROOT
BRANCH   8  10
ATOM     10  C   UNL     1       7.513   6.915  17.723  0.00  0.00    +0.000 C 
ATOM     11  N   UNL     1       8.224   6.743  18.873  0.00  0.00    +0.000 N 
ATOM     12  O   UNL     1       7.527   8.008  17.173  0.00  0.00    +0.000 OA
ATOM     13  H   UNL     1       8.461   5.827  19.225  0.00  0.00    +0.000 HD
ATOM     14  H   UNL     1       8.813   7.521  19.150  0.00  0.00    +0.000 HD
ENDBRANCH   8  10
BRANCH   7  15
ATOM     15  N   UNL     1       7.702   5.497  14.808  0.00  0.00    +0.000 N 
ATOM     16  C   UNL     1       7.337   5.085  13.548  0.00  0.00    +0.000 C 
ATOM     17  O   UNL     1       7.917   5.465  12.540  0.00  0.00    +0.000 OA
ATOM     18  H   UNL     1       8.185   6.388  14.792  0.00  0.00    +0.000 HD
ENDBRANCH   7  15
BRANCH   1  20
ATOM     19  C   UNL     1       1.265   4.207  17.526  0.00  0.00    +0.000 C 
ATOM     20  C   UNL     1       2.424   4.730  18.365  0.00  0.00    +0.000 C 
ENDBRANCH   1  20
TORSDOF 3
ENDMDL
MODEL 2
REMARK VINA RESULT:      -6.7      0.922      1.038
REMARK  Name = 
REMARK  4 active torsions:
REMARK  status: ('A' for Active; 'I' for Inactive)
REMARK    1  A    between atoms: C_1  and  C_2
REMARK    2  A    between atoms: C_2  and  N_3
REMARK    3  A    between atoms: C_9  and  N_10
REMARK    4  A    between atoms: C_13  and  C_14
REMARK                            x       y       z     vdW  Elec       q    Type
REMARK                         _______ _______ _______ _____ _____    ______ ____
ROOT
ATOM      1  N   UNL     1       2.959   3.309  18.773  0.00  0.00    +0.000 NA
ATOM      2  C   UNL     1       4.012   3.270  19.815  0.00  0.00    +0.000 C 
ATOM      3  C   UNL     1       5.167   4.284  19.637  0.00  0.00    +0.000 C 
ATOM      4  C   UNL     1       5.572   4.425  18.192  0.00  0.00    +0.000 A 
ATOM      5  C   UNL     1       4.792   3.862  17.201  0.00  0.00    +0.000 A 
ATOM      6  S   UNL     1       5.342   4.265  15.649  0.00  0.00    +0.000 S 
ATOM      7  C   UNL     1       6.687   5.093  16.283  0.00  0.00    +0.000 A 
ATOM      8  C   UNL     1       6.688   5.193  17.666  0.00  0.00    +0.000 A 
ATOM      9  C   UNL     1       3.566   3.025  17.447  0.00  0.00    +0.000 C 
ENDROOT
BRANCH   8  10
ATOM     10  C   UNL     1       7.585   5.996  18.513  0.00  0.00    +0.000 C 
ATOM     11  N   UNL     1       8.131   5.395  19.607  0.00  0.00    +0.000 N 
ATOM     12  O   UNL     1       7.894   7.150  18.252  0.00  0.00    +0.000 OA
ATOM     13  H   UNL     1       8.123   4.392  19.728  0.00  0.00    +0.000 HD
ATOM     14  H   UNL     1       8.852   5.921  20.089  0.00  0.00    +0.000 HD
ENDBRANCH   8  10
BRANCH   7  15
ATOM     15  N   UNL     1       7.521   5.565  15.295  0.00  0.00    +0.000 N 
ATOM     16  C   UNL     1       7.409   5.100  14.006  0.00  0.00    +0.000 C 
ATOM     17  O   UNL     1       7.996   5.620  13.067  0.00  0.00    +0.000 OA
ATOM     18  H   UNL     1       7.781   6.544  15.325  0.00  0.00    +0.000 HD
ENDBRANCH   7  15
BRANCH   1  20
ATOM     19  C   UNL     1       1.586   4.988  20.059  0.00  0.00    +0.000 C 
ATOM     20  C   UNL     1       2.199   4.572  18.728  0.00  0.00    +0.000 C 
ENDBRANCH   1  20
TORSDOF 3
ENDMDL
MODEL 3
REMARK VINA RESULT:      -6.6      2.234      3.507
REMARK  Name = 
REMARK  4 active torsions:
REMARK  status: ('A' for Active; 'I' for Inactive)
REMARK    1  A    between atoms: C_1  and  C_2
REMARK    2  A    between atoms: C_2  and  N_3
REMARK    3  A    between atoms: C_9  and  N_10
REMARK    4  A    between atoms: C_13  and  C_14
REMARK                            x       y       z     vdW  Elec       q    Type
REMARK                         _______ _______ _______ _____ _____    ______ ____
ROOT
ATOM      1  N   UNL     1       1.950   3.105  19.039  0.00  0.00    +0.000 NA
ATOM      2  C   UNL     1       2.453   2.295  17.904  0.00  0.00    +0.000 C 
ATOM      3  C   UNL     1       3.877   2.644  17.412  0.00  0.00    +0.000 C 
ATOM      4  C   UNL     1       4.122   4.132  17.415  0.00  0.00    +0.000 A 
ATOM      5  C   UNL     1       3.215   4.977  18.024  0.00  0.00    +0.000 A 
ATOM      6  S   UNL     1       3.754   6.584  18.044  0.00  0.00    +0.000 S 
ATOM      7  C   UNL     1       5.140   6.187  17.140  0.00  0.00    +0.000 A 
ATOM      8  C   UNL     1       5.294   4.827  16.911  0.00  0.00    +0.000 A 
ATOM      9  C   UNL     1       1.918   4.538  18.646  0.00  0.00    +0.000 C 
ENDROOT
BRANCH   8  10
ATOM     10  C   UNL     1       6.460   4.134  16.339  0.00  0.00    +0.000 C 
ATOM     11  N   UNL     1       6.248   3.299  15.284  0.00  0.00    +0.000 N 
ATOM     12  O   UNL     1       7.603   4.311  16.738  0.00  0.00    +0.000 OA
ATOM     13  H   UNL     1       5.388   3.312  14.755  0.00  0.00    +0.000 HD
ATOM     14  H   UNL     1       7.080   2.949  14.822  0.00  0.00    +0.000 HD
ENDBRANCH   8  10
BRANCH   7  15
ATOM     15  N   UNL     1       5.898   7.294  16.834  0.00  0.00    +0.000 N 
ATOM     16  C   UNL     1       7.047   7.570  17.538  0.00  0.00    +0.000 C 
ATOM     17  O   UNL     1       7.844   8.428  17.185  0.00  0.00    +0.000 OA
ATOM     18  H   UNL     1       5.978   7.557  15.859  0.00  0.00    +0.000 HD
ENDBRANCH   7  15
BRANCH   1  20
ATOM     19  C   UNL     1       2.017   3.471  21.533  0.00  0.00    +0.000 C 
ATOM     20  C   UNL     1       2.713   2.933  20.289  0.00  0.00    +0.000 C 
ENDBRANCH   1  20
TORSDOF 3
ENDMDL
MODEL 4
REMARK VINA RESULT:      -6.4      3.578      6.055
REMARK  Name = 
REMARK  4 active torsions:
REMARK  status: ('A' for Active; 'I' for Inactive)
REMARK    1  A    between atoms: C_1  and  C_2
REMARK    2  A    between atoms: C_2  and  N_3
REMARK    3  A    between atoms: C_9  and  N_10
REMARK    4  A    between atoms: C_13  and  C_14
REMARK                            x       y       z     vdW  Elec       q    Type
REMARK                         _______ _______ _______ _____ _____    ______ ____
ROOT
ATOM      1  N   UNL     1       5.976   6.372  16.468  0.00  0.00    +0.000 NA
ATOM      2  C   UNL     1       6.931   5.515  17.210  0.00  0.00    +0.000 C 
ATOM      3  C   UNL     1       6.327   4.248  17.860  0.00  0.00    +0.000 C 
ATOM      4  C   UNL     1       4.970   4.518  18.458  0.00  0.00    +0.000 A 
ATOM      5  C   UNL     1       4.328   5.713  18.195  0.00  0.00    +0.000 A 
ATOM      6  S   UNL     1       2.759   5.749  18.836  0.00  0.00    +0.000 S 
ATOM      7  C   UNL     1       2.965   4.226  19.568  0.00  0.00    +0.000 A 
ATOM      8  C   UNL     1       4.162   3.603  19.246  0.00  0.00    +0.000 A 
ATOM      9  C   UNL     1       4.914   6.843  17.394  0.00  0.00    +0.000 C 
ENDROOT
BRANCH   8  10
ATOM     10  C   UNL     1       4.569   2.220  19.545  0.00  0.00    +0.000 C 
ATOM     11  N   UNL     1       4.245   1.253  18.642  0.00  0.00    +0.000 N 
ATOM     12  O   UNL     1       5.219   1.916  20.536  0.00  0.00    +0.000 OA
ATOM     13  H   UNL     1       3.946   1.475  17.703  0.00  0.00    +0.000 HD
ATOM     14  H   UNL     1       4.659   0.341  18.802  0.00  0.00    +0.000 HD
ENDBRANCH   8  10
BRANCH   7  15
ATOM     15  N   UNL     1       1.873   3.857  20.319  0.00  0.00    +0.000 N 
ATOM     16  C   UNL     1       2.013   2.982  21.371  0.00  0.00    +0.000 C 
ATOM     17  O   UNL     1       1.115   2.772  22.174  0.00  0.00    +0.000 OA
ATOM     18  H   UNL     1       1.166   4.559  20.501  0.00  0.00    +0.000 HD
ENDBRANCH   7  15
BRANCH   1  20
ATOM     19  C   UNL     1       6.330   4.837  14.498  0.00  0.00    +0.000 C 
ATOM     20  C   UNL     1       5.376   5.726  15.286  0.00  0.00    +0.000 C 
ENDBRANCH   1  20
TORSDOF 3
ENDMDL
MODEL 5
REMARK VINA RESULT:      -6.4      2.383      3.016
REMARK  Name = 
REMARK  4 active torsions:
REMARK  status: ('A' for Active; 'I' for Inactive)
REMARK    1  A    between atoms: C_1  and  C_2
REMARK    2  A    between atoms: C_2  and  N_3
REMARK    3  A    between atoms: C_9  and  N_10
REMARK    4  A    between atoms: C_13  and  C_14
REMARK                            x       y       z     vdW  Elec       q    Type
REMARK                         _______ _______ _______ _____ _____    ______ ____
ROOT
ATOM      1  N   UNL     1       2.450   3.921  19.038  0.00  0.00    +0.000 NA
ATOM      2  C   UNL     1       3.484   2.875  18.853  0.00  0.00    +0.000 C 
ATOM      3  C   UNL     1       4.950   3.363  18.930  0.00  0.00    +0.000 C 
ATOM      4  C   UNL     1       5.132   4.700  18.259  0.00  0.00    +0.000 A 
ATOM      5  C   UNL     1       4.027   5.429  17.865  0.00  0.00    +0.000 A 
ATOM      6  S   UNL     1       4.449   6.959  17.271  0.00  0.00    +0.000 S 
ATOM      7  C   UNL     1       6.110   6.619  17.423  0.00  0.00    +0.000 A 
ATOM      8  C   UNL     1       6.383   5.405  18.036  0.00  0.00    +0.000 A 
ATOM      9  C   UNL     1       2.603   4.959  17.985  0.00  0.00    +0.000 C 
ENDROOT
BRANCH   8  10
ATOM     10  C   UNL     1       7.688   4.896  18.491  0.00  0.00    +0.000 C 
ATOM     11  N   UNL     1       8.132   5.292  19.716  0.00  0.00    +0.000 N 
ATOM     12  O   UNL     1       8.359   4.106  17.842  0.00  0.00    +0.000 OA
ATOM     13  H   UNL     1       7.520   5.724  20.394  0.00  0.00    +0.000 HD
ATOM     14  H   UNL     1       8.959   4.818  20.062  0.00  0.00    +0.000 HD
ENDBRANCH   8  10
BRANCH   7  15
ATOM     15  N   UNL     1       6.897   7.643  16.949  0.00  0.00    +0.000 N 
ATOM     16  C   UNL     1       7.631   8.418  17.816  0.00  0.00    +0.000 C 
ATOM     17  O   UNL     1       8.480   9.210  17.432  0.00  0.00    +0.000 OA
ATOM     18  H   UNL     1       7.377   7.500  16.068  0.00  0.00    +0.000 HD
ENDBRANCH   7  15
BRANCH   1  20
ATOM     19  C   UNL     1       1.689   5.860  20.461  0.00  0.00    +0.000 C 
ATOM     20  C   UNL     1       2.452   4.544  20.375  0.00  0.00    +0.000 C 
ENDBRANCH   1  20
TORSDOF 3
ENDMDL
MODEL 6
REMARK VINA RESULT:      -6.4      3.565      6.037
REMARK  Name = 
REMARK  4 active torsions:
REMARK  status: ('A' for Active; 'I' for Inactive)
REMARK    1  A    between atoms: C_1  and  C_2
REMARK    2  A    between atoms: C_2  and  N_3
REMARK    3  A    between atoms: C_9  and  N_10
REMARK    4  A    between atoms: C_13  and  C_14
REMARK                            x       y       z     vdW  Elec       q    Type
REMARK                         _______ _______ _______ _____ _____    ______ ____
ROOT
ATOM      1  N   UNL     1       6.095   5.395  16.528  0.00  0.00    +0.000 NA
ATOM      2  C   UNL     1       5.187   6.513  16.175  0.00  0.00    +0.000 C 
ATOM      3  C   UNL     1       4.270   7.015  17.315  0.00  0.00    +0.000 C 
ATOM      4  C   UNL     1       3.741   5.878  18.150  0.00  0.00    +0.000 A 
ATOM      5  C   UNL     1       4.257   4.607  17.989  0.00  0.00    +0.000 A 
ATOM      6  S   UNL     1       3.632   3.514  19.124  0.00  0.00    +0.000 S 
ATOM      7  C   UNL     1       2.584   4.694  19.762  0.00  0.00    +0.000 A 
ATOM      8  C   UNL     1       2.766   5.960  19.225  0.00  0.00    +0.000 A 
ATOM      9  C   UNL     1       5.291   4.225  16.964  0.00  0.00    +0.000 C 
ENDROOT
BRANCH   8  10
ATOM     10  C   UNL     1       2.171   7.228  19.679  0.00  0.00    +0.000 C 
ATOM     11  N   UNL     1       1.945   7.381  21.014  0.00  0.00    +0.000 N 
ATOM     12  O   UNL     1       1.917   8.154  18.922  0.00  0.00    +0.000 OA
ATOM     13  H   UNL     1       2.364   6.771  21.701  0.00  0.00    +0.000 HD
ATOM     14  H   UNL     1       1.670   8.310  21.312  0.00  0.00    +0.000 HD
ENDBRANCH   8  10
BRANCH   7  15
ATOM     15  N   UNL     1       1.764   4.187  20.744  0.00  0.00    +0.000 N 
ATOM     16  C   UNL     1       1.980   2.928  21.252  0.00  0.00    +0.000 C 
ATOM     17  O   UNL     1       1.400   2.512  22.245  0.00  0.00    +0.000 OA
ATOM     18  H   UNL     1       1.421   4.828  21.449  0.00  0.00    +0.000 HD
ENDBRANCH   7  15
BRANCH   1  20
ATOM     19  C   UNL     1       7.605   7.172  17.491  0.00  0.00    +0.000 C 
ATOM     20  C   UNL     1       7.103   5.735  17.550  0.00  0.00    +0.000 C 
ENDBRANCH   1  20
TORSDOF 3
ENDMDL
MODEL 7
REMARK VINA RESULT:      -6.3      1.556      1.713
REMARK  Name = 
REMARK  4 active torsions:
REMARK  status: ('A' for Active; 'I' for Inactive)
REMARK    1  A    between atoms: C_1  and  C_2
REMARK    2  A    between atoms: C_2  and  N_3
REMARK    3  A    between atoms: C_9  and  N_10
REMARK    4  A    between atoms: C_13  and  C_14
REMARK                            x       y       z     vdW  Elec       q    Type
REMARK                         _______ _______ _______ _____ _____    ______ ____
ROOT
ATOM      1  N   UNL     1       2.498   3.676  18.540  0.00  0.00    +0.000 NA
ATOM      2  C   UNL     1       3.530   2.955  19.323  0.00  0.00    +0.000 C 
ATOM      3  C   UNL     1       4.956   3.550  19.258  0.00  0.00    +0.000 C 
ATOM      4  C   UNL     1       5.297   4.039  17.873  0.00  0.00    +0.000 A 
ATOM      5  C   UNL     1       4.310   4.122  16.910  0.00  0.00    +0.000 A 
ATOM      6  S   UNL     1       4.872   4.833  15.478  0.00  0.00    +0.000 S 
ATOM      7  C   UNL     1       6.459   4.928  16.086  0.00  0.00    +0.000 A 
ATOM      8  C   UNL     1       6.579   4.546  17.414  0.00  0.00    +0.000 A 
ATOM      9  C   UNL     1       2.884   3.684  17.105  0.00  0.00    +0.000 C 
ENDROOT
BRANCH   8  10
ATOM     10  C   UNL     1       7.752   4.686  18.292  0.00  0.00    +0.000 C 
ATOM     11  N   UNL     1       7.657   5.542  19.347  0.00  0.00    +0.000 N 
ATOM     12  O   UNL     1       8.779   4.039  18.142  0.00  0.00    +0.000 OA
ATOM     13  H   UNL     1       6.768   5.899  19.669  0.00  0.00    +0.000 HD
ATOM     14  H   UNL     1       8.421   5.512  20.012  0.00  0.00    +0.000 HD
ENDBRANCH   8  10
BRANCH   7  15
ATOM     15  N   UNL     1       7.345   5.419  15.154  0.00  0.00    +0.000 N 
ATOM     16  C   UNL     1       7.295   4.990  13.849  0.00  0.00    +0.000 C 
ATOM     17  O   UNL     1       7.932   5.530  12.955  0.00  0.00    +0.000 OA
ATOM     18  H   UNL     1       7.611   6.394  15.224  0.00  0.00    +0.000 HD
ENDBRANCH   7  15
BRANCH   1  20
ATOM     19  C   UNL     1       1.711   5.143  20.435  0.00  0.00    +0.000 C 
ATOM     20  C   UNL     1       2.235   5.050  19.007  0.00  0.00    +0.000 C 
ENDBRANCH   1  20
TORSDOF 3
ENDMDL
MODEL 8
REMARK VINA RESULT:      -6.3      3.185      5.454
REMARK  Name = 
REMARK  4 active torsions:
REMARK  status: ('A' for Active; 'I' for Inactive)
REMARK    1  A    between atoms: C_1  and  C_2
REMARK    2  A    between atoms: C_2  and  N_3
REMARK    3  A    between atoms: C_9  and  N_10
REMARK    4  A    between atoms: C_13  and  C_14
REMARK                            x       y       z     vdW  Elec       q    Type
REMARK                         _______ _______ _______ _____ _____    ______ ____
ROOT
ATOM      1  N   UNL     1       7.296   5.185  16.848  0.00  0.00    +0.000 NA
ATOM      2  C   UNL     1       6.798   6.575  16.722  0.00  0.00    +0.000 C 
ATOM      3  C   UNL     1       5.500   6.894  17.500  0.00  0.00    +0.000 C 
ATOM      4  C   UNL     1       4.515   5.755  17.438  0.00  0.00    +0.000 A 
ATOM      5  C   UNL     1       4.908   4.532  16.930  0.00  0.00    +0.000 A 
ATOM      6  S   UNL     1       3.699   3.355  17.089  0.00  0.00    +0.000 S 
ATOM      7  C   UNL     1       2.603   4.491  17.726  0.00  0.00    +0.000 A 
ATOM      8  C   UNL     1       3.155   5.744  17.949  0.00  0.00    +0.000 A 
ATOM      9  C   UNL     1       6.263   4.243  16.345  0.00  0.00    +0.000 C 
ENDROOT
BRANCH   8  10
ATOM     10  C   UNL     1       2.550   6.884  18.657  0.00  0.00    +0.000 C 
ATOM     11  N   UNL     1       2.493   6.829  20.018  0.00  0.00    +0.000 N 
ATOM     12  O   UNL     1       2.145   7.887  18.085  0.00  0.00    +0.000 OA
ATOM     13  H   UNL     1       3.033   6.162  20.550  0.00  0.00    +0.000 HD
ATOM     14  H   UNL     1       2.204   7.682  20.484  0.00  0.00    +0.000 HD
ENDBRANCH   8  10
BRANCH   7  15
ATOM     15  N   UNL     1       1.360   3.945  17.955  0.00  0.00    +0.000 N 
ATOM     16  C   UNL     1       1.228   2.803  18.708  0.00  0.00    +0.000 C 
ATOM     17  O   UNL     1       0.142   2.391  19.090  0.00  0.00    +0.000 OA
ATOM     18  H   UNL     1       0.583   4.581  18.088  0.00  0.00    +0.000 HD
ENDBRANCH   7  15
BRANCH   1  20
ATOM     19  C   UNL     1       8.009   5.992  19.129  0.00  0.00    +0.000 C 
ATOM     20  C   UNL     1       7.707   4.812  18.215  0.00  0.00    +0.000 C 
ENDBRANCH   1  20
TORSDOF 3
ENDMDL
MODEL 9
REMARK VINA RESULT:      -6.2      2.524      3.142
REMARK  Name = 
REMARK  4 active torsions:
REMARK  status: ('A' for Active; 'I' for Inactive)
REMARK    1  A    between atoms: C_1  and  C_2
REMARK    2  A    between atoms: C_2  and  N_3
REMARK    3  A    between atoms: C_9  and  N_10
REMARK    4  A    between atoms: C_13  and  C_14
REMARK                            x       y       z     vdW  Elec       q    Type
REMARK                         _______ _______ _______ _____ _____    ______ ____
ROOT
ATOM      1  N   UNL     1       1.958   3.406  19.177  0.00  0.00    +0.000 NA
ATOM      2  C   UNL     1       3.107   2.472  19.109  0.00  0.00    +0.000 C 
ATOM      3  C   UNL     1       4.505   3.121  19.237  0.00  0.00    +0.000 C 
ATOM      4  C   UNL     1       4.584   4.432  18.499  0.00  0.00    +0.000 A 
ATOM      5  C   UNL     1       3.433   5.014  18.004  0.00  0.00    +0.000 A 
ATOM      6  S   UNL     1       3.725   6.547  17.344  0.00  0.00    +0.000 S 
ATOM      7  C   UNL     1       5.400   6.400  17.605  0.00  0.00    +0.000 A 
ATOM      8  C   UNL     1       5.764   5.258  18.303  0.00  0.00    +0.000 A 
ATOM      9  C   UNL     1       2.063   4.397  18.074  0.00  0.00    +0.000 C 
ENDROOT
BRANCH   8  10
ATOM     10  C   UNL     1       7.086   4.920  18.856  0.00  0.00    +0.000 C 
ATOM     11  N   UNL     1       7.956   4.245  18.054  0.00  0.00    +0.000 N 
ATOM     12  O   UNL     1       7.447   5.258  19.975  0.00  0.00    +0.000 OA
ATOM     13  H   UNL     1       7.817   4.169  17.057  0.00  0.00    +0.000 HD
ATOM     14  H   UNL     1       8.902   4.152  18.407  0.00  0.00    +0.000 HD
ENDBRANCH   8  10
BRANCH   7  15
ATOM     15  N   UNL     1       6.101   7.478  17.115  0.00  0.00    +0.000 N 
ATOM     16  C   UNL     1       7.303   7.843  17.674  0.00  0.00    +0.000 C 
ATOM     17  O   UNL     1       8.044   8.668  17.159  0.00  0.00    +0.000 OA
ATOM     18  H   UNL     1       6.085   7.636  16.114  0.00  0.00    +0.000 HD
ENDBRANCH   7  15
BRANCH   1  20
ATOM     19  C   UNL     1       1.802   3.170  21.683  0.00  0.00    +0.000 C 
ATOM     20  C   UNL     1       1.814   4.095  20.472  0.00  0.00    +0.000 C 
ENDBRANCH   1  20
TORSDOF 3
ENDMDL
