MODEL 1
REMARK VINA RESULT:      -7.5      0.000      0.000
REMARK  Name = 
REMARK  7 active torsions:
REMARK  status: ('A' for Active; 'I' for Inactive)
REMARK    1  A    between atoms: C_1  and  C_2
REMARK    2  A    between atoms: C_2  and  C_3
REMARK    3  A    between atoms: C_6  and  C_7
REMARK    4  A    between atoms: N_15  and  C_16
REMARK    5  A    between atoms: C_16  and  C_17
REMARK    6  A    between atoms: C_17  and  C_18
REMARK    7  A    between atoms: C_17  and  N_19
REMARK                            x       y       z     vdW  Elec       q    Type
REMARK                         _______ _______ _______ _____ _____    ______ ____
ROOT
ATOM      1  C   UNL     1       5.735   4.317  16.793  0.00  0.00    +0.000 C 
ATOM      2  C   UNL     1       4.522   3.375  17.000  0.00  0.00    +0.000 C 
ATOM      3  C   UNL     1       3.658   4.180  17.913  0.00  0.00    +0.000 A 
ATOM      4  C   UNL     1       2.446   3.794  18.475  0.00  0.00    +0.000 A 
ATOM      5  C   UNL     1       1.781   4.699  19.298  0.00  0.00    +0.000 A 
ATOM      6  C   UNL     1       2.324   5.966  19.526  0.00  0.00    +0.000 A 
ATOM      7  C   UNL     1       3.546   6.336  18.950  0.00  0.00    +0.000 A 
ATOM      8  C   UNL     1       4.228   5.436  18.150  0.00  0.00    +0.000 A 
ATOM      9  N   UNL     1       5.494   5.572  17.577  0.00  0.00    +0.000 N 
ENDROOT
BRANCH   1  13
ATOM     10  C   UNL     1       6.299   4.033  13.258  0.00  0.00    +0.000 A 
ATOM     11  C   UNL     1       7.429   4.745  13.599  0.00  0.00    +0.000 A 
ATOM     12  N   UNL     1       7.257   5.081  14.915  0.00  0.00    +0.000 N 
ATOM     13  C   UNL     1       6.075   4.526  15.339  0.00  0.00    +0.000 A 
ATOM     14  N   UNL     1       5.438   3.973  14.323  0.00  0.00    +0.000 NA
ATOM     15  H   UNL     1       7.950   5.507  15.518  0.00  0.00    +0.000 HD
BRANCH  10  17
ATOM     16  C   UNL     1       4.510   3.337  11.681  0.00  0.00    +0.000 C 
ATOM     17  C   UNL     1       5.997   3.273  12.016  0.00  0.00    +0.000 C 
ENDBRANCH  10  17
ENDBRANCH   1  13
BRANCH   9  18
ATOM     18  C   UNL     1       6.005   6.850  17.046  0.00  0.00    +0.000 C 
BRANCH  18  19
ATOM     19  C   UNL     1       7.475   7.161  17.415  0.00  0.00    +0.000 C 
ATOM     20  C   UNL     1       7.842   6.478  18.734  0.00  0.00    +0.000 C 
BRANCH  19  21
ATOM     21  N   UNL     1       7.722   8.608  17.510  0.00  0.00    +0.000 NA
ATOM     22  H   UNL     1       8.709   8.786  17.326  0.00  0.00    +0.000 HD
ATOM     23  H   UNL     1       7.612   8.844  18.504  0.00  0.00    +0.000 HD
ENDBRANCH  19  21
ENDBRANCH  18  19
ENDBRANCH   9  18
TORSDOF 5
ENDMDL
MODEL 2
REMARK VINA RESULT:      -7.4      2.363      6.434
REMARK  Name = 
REMARK  7 active torsions:
REMARK  status: ('A' for Active; 'I' for Inactive)
REMARK    1  A    between atoms: C_1  and  C_2
REMARK    2  A    between atoms: C_2  and  C_3
REMARK    3  A    between atoms: C_6  and  C_7
REMARK    4  A    between atoms: N_15  and  C_16
REMARK    5  A    between atoms: C_16  and  C_17
REMARK    6  A    between atoms: C_17  and  C_18
REMARK    7  A    between atoms: C_17  and  N_19
REMARK                            x       y       z     vdW  Elec       q    Type
REMARK                         _______ _______ _______ _____ _____    ______ ____
ROOT
ATOM      1  C   UNL     1       4.396   4.970  18.819  0.00  0.00    +0.000 C 
ATOM      2  C   UNL     1       5.603   5.844  18.399  0.00  0.00    +0.000 C 
ATOM      3  C   UNL     1       5.959   5.263  17.071  0.00  0.00    +0.000 A 
ATOM      4  C   UNL     1       7.019   5.635  16.252  0.00  0.00    +0.000 A 
ATOM      5  C   UNL     1       7.178   4.976  15.036  0.00  0.00    +0.000 A 
ATOM      6  C   UNL     1       6.273   3.982  14.656  0.00  0.00    +0.000 A 
ATOM      7  C   UNL     1       5.210   3.622  15.496  0.00  0.00    +0.000 A 
ATOM      8  C   UNL     1       5.057   4.254  16.718  0.00  0.00    +0.000 A 
ATOM      9  N   UNL     1       4.139   3.970  17.731  0.00  0.00    +0.000 N 
ENDROOT
BRANCH   1  13
ATOM     10  C   UNL     1       1.992   7.539  19.536  0.00  0.00    +0.000 A 
ATOM     11  C   UNL     1       1.844   6.782  20.678  0.00  0.00    +0.000 A 
ATOM     12  N   UNL     1       2.587   5.653  20.459  0.00  0.00    +0.000 N 
ATOM     13  C   UNL     1       3.196   5.784  19.236  0.00  0.00    +0.000 A 
ATOM     14  N   UNL     1       2.769   6.873  18.625  0.00  0.00    +0.000 NA
ATOM     15  H   UNL     1       2.795   4.934  21.140  0.00  0.00    +0.000 HD
BRANCH  10  17
ATOM     16  C   UNL     1       1.923   9.355  17.841  0.00  0.00    +0.000 C 
ATOM     17  C   UNL     1       1.556   8.934  19.260  0.00  0.00    +0.000 C 
ENDBRANCH  10  17
ENDBRANCH   1  13
BRANCH   9  18
ATOM     18  C   UNL     1       2.749   3.551  17.465  0.00  0.00    +0.000 C 
BRANCH  18  19
ATOM     19  C   UNL     1       2.396   2.131  17.967  0.00  0.00    +0.000 C 
ATOM     20  C   UNL     1       1.523   2.217  19.220  0.00  0.00    +0.000 C 
BRANCH  19  21
ATOM     21  N   UNL     1       3.600   1.332  18.243  0.00  0.00    +0.000 NA
ATOM     22  H   UNL     1       4.394   1.963  18.354  0.00  0.00    +0.000 HD
ATOM     23  H   UNL     1       3.806   0.830  17.371  0.00  0.00    +0.000 HD
ENDBRANCH  19  21
ENDBRANCH  18  19
ENDBRANCH   9  18
TORSDOF 5
ENDMDL
MODEL 3
REMARK VINA RESULT:      -7.2      1.399      1.539
REMARK  Name = 
REMARK  7 active torsions:
REMARK  status: ('A' for Active; 'I' for Inactive)
REMARK    1  A    between atoms: C_1  and  C_2
REMARK    2  A    between atoms: C_2  and  C_3
REMARK    3  A    between atoms: C_6  and  C_7
REMARK    4  A    between atoms: N_15  and  C_16
REMARK    5  A    between atoms: C_16  and  C_17
REMARK    6  A    between atoms: C_17  and  C_18
REMARK    7  A    between atoms: C_17  and  N_19
REMARK                            x       y       z     vdW  Elec       q    Type
REMARK                         _______ _______ _______ _____ _____    ______ ____
ROOT
ATOM      1  C   UNL     1       5.065   3.639  17.497  0.00  0.00    +0.000 C 
ATOM      2  C   UNL     1       3.700   2.907  17.462  0.00  0.00    +0.000 C 
ATOM      3  C   UNL     1       2.937   3.625  18.525  0.00  0.00    +0.000 A 
ATOM      4  C   UNL     1       1.648   3.344  18.964  0.00  0.00    +0.000 A 
ATOM      5  C   UNL     1       1.102   4.142  19.966  0.00  0.00    +0.000 A 
ATOM      6  C   UNL     1       1.840   5.207  20.491  0.00  0.00    +0.000 A 
ATOM      7  C   UNL     1       3.137   5.474  20.034  0.00  0.00    +0.000 A 
ATOM      8  C   UNL     1       3.699   4.672  19.056  0.00  0.00    +0.000 A 
ATOM      9  N   UNL     1       4.999   4.706  18.548  0.00  0.00    +0.000 N 
ENDROOT
BRANCH   1  13
ATOM     10  C   UNL     1       5.703   4.110  13.995  0.00  0.00    +0.000 A 
ATOM     11  C   UNL     1       6.961   4.395  14.482  0.00  0.00    +0.000 A 
ATOM     12  N   UNL     1       6.819   4.425  15.843  0.00  0.00    +0.000 N 
ATOM     13  C   UNL     1       5.516   4.110  16.136  0.00  0.00    +0.000 A 
ATOM     14  N   UNL     1       4.807   4.012  15.027  0.00  0.00    +0.000 NA
ATOM     15  H   UNL     1       7.569   4.491  16.520  0.00  0.00    +0.000 HD
BRANCH  10  17
ATOM     16  C   UNL     1       6.340   2.982  11.874  0.00  0.00    +0.000 C 
ATOM     17  C   UNL     1       5.274   3.790  12.607  0.00  0.00    +0.000 C 
ENDBRANCH  10  17
ENDBRANCH   1  13
BRANCH   9  18
ATOM     18  C   UNL     1       5.749   5.960  18.337  0.00  0.00    +0.000 C 
BRANCH  18  19
ATOM     19  C   UNL     1       7.170   5.973  18.949  0.00  0.00    +0.000 C 
ATOM     20  C   UNL     1       7.983   7.129  18.365  0.00  0.00    +0.000 C 
BRANCH  19  21
ATOM     21  N   UNL     1       7.873   4.700  18.732  0.00  0.00    +0.000 NA
ATOM     22  H   UNL     1       8.051   4.590  17.734  0.00  0.00    +0.000 HD
ATOM     23  H   UNL     1       7.186   3.965  18.940  0.00  0.00    +0.000 HD
ENDBRANCH  19  21
ENDBRANCH  18  19
ENDBRANCH   9  18
TORSDOF 5
ENDMDL
MODEL 4
REMARK VINA RESULT:      -7.1      2.834      5.445
REMARK  Name = 
REMARK  7 active torsions:
REMARK  status: ('A' for Active; 'I' for Inactive)
REMARK    1  A    between atoms: C_1  and  C_2
REMARK    2  A    between atoms: C_2  and  C_3
REMARK    3  A    between atoms: C_6  and  C_7
REMARK    4  A    between atoms: N_15  and  C_16
REMARK    5  A    between atoms: C_16  and  C_17
REMARK    6  A    between atoms: C_17  and  C_18
REMARK    7  A    between atoms: C_17  and  N_19
REMARK                            x       y       z     vdW  Elec       q    Type
REMARK                         _______ _______ _______ _____ _____    ______ ____
ROOT
ATOM      1  C   UNL     1       2.885   5.858  18.345  0.00  0.00    +0.000 C 
ATOM      2  C   UNL     1       2.723   7.295  17.791  0.00  0.00    +0.000 C 
ATOM      3  C   UNL     1       1.990   7.973  18.901  0.00  0.00    +0.000 A 
ATOM      4  C   UNL     1       1.530   9.285  18.922  0.00  0.00    +0.000 A 
ATOM      5  C   UNL     1       0.875   9.738  20.063  0.00  0.00    +0.000 A 
ATOM      6  C   UNL     1       0.710   8.886  21.159  0.00  0.00    +0.000 A 
ATOM      7  C   UNL     1       1.182   7.567  21.118  0.00  0.00    +0.000 A 
ATOM      8  C   UNL     1       1.814   7.099  19.980  0.00  0.00    +0.000 A 
ATOM      9  N   UNL     1       2.255   5.804  19.704  0.00  0.00    +0.000 N 
ENDROOT
BRANCH   1  13
ATOM     10  C   UNL     1       6.452   5.474  18.188  0.00  0.00    +0.000 A 
ATOM     11  C   UNL     1       6.091   4.488  17.296  0.00  0.00    +0.000 A 
ATOM     12  N   UNL     1       4.728   4.401  17.389  0.00  0.00    +0.000 N 
ATOM     13  C   UNL     1       4.307   5.359  18.279  0.00  0.00    +0.000 A 
ATOM     14  N   UNL     1       5.345   5.949  18.842  0.00  0.00    +0.000 NA
ATOM     15  H   UNL     1       4.122   3.858  16.788  0.00  0.00    +0.000 HD
BRANCH  10  17
ATOM     16  C   UNL     1       7.807   7.520  17.800  0.00  0.00    +0.000 C 
ATOM     17  C   UNL     1       7.775   6.120  18.403  0.00  0.00    +0.000 C 
ENDBRANCH  10  17
ENDBRANCH   1  13
BRANCH   9  18
ATOM     18  C   UNL     1       2.847   4.919  20.727  0.00  0.00    +0.000 C 
BRANCH  18  19
ATOM     19  C   UNL     1       2.258   3.489  20.763  0.00  0.00    +0.000 C 
ATOM     20  C   UNL     1       0.814   3.503  20.259  0.00  0.00    +0.000 C 
BRANCH  19  21
ATOM     21  N   UNL     1       2.317   2.906  22.112  0.00  0.00    +0.000 NA
ATOM     22  H   UNL     1       2.299   1.890  22.031  0.00  0.00    +0.000 HD
ATOM     23  H   UNL     1       1.416   3.132  22.551  0.00  0.00    +0.000 HD
ENDBRANCH  19  21
ENDBRANCH  18  19
ENDBRANCH   9  18
TORSDOF 5
ENDMDL
MODEL 5
REMARK VINA RESULT:      -7.1      2.089      3.296
REMARK  Name = 
REMARK  7 active torsions:
REMARK  status: ('A' for Active; 'I' for Inactive)
REMARK    1  A    between atoms: C_1  and  C_2
REMARK    2  A    between atoms: C_2  and  C_3
REMARK    3  A    between atoms: C_6  and  C_7
REMARK    4  A    between atoms: N_15  and  C_16
REMARK    5  A    between atoms: C_16  and  C_17
REMARK    6  A    between atoms: C_17  and  C_18
REMARK    7  A    between atoms: C_17  and  N_19
REMARK                            x       y       z     vdW  Elec       q    Type
REMARK                         _______ _______ _______ _____ _____    ______ ____
ROOT
ATOM      1  C   UNL     1       4.617   5.239  18.550  0.00  0.00    +0.000 C 
ATOM      2  C   UNL     1       4.869   3.823  19.126  0.00  0.00    +0.000 C 
ATOM      3  C   UNL     1       3.624   3.584  19.914  0.00  0.00    +0.000 A 
ATOM      4  C   UNL     1       3.328   2.473  20.696  0.00  0.00    +0.000 A 
ATOM      5  C   UNL     1       2.099   2.432  21.349  0.00  0.00    +0.000 A 
ATOM      6  C   UNL     1       1.190   3.481  21.195  0.00  0.00    +0.000 A 
ATOM      7  C   UNL     1       1.507   4.593  20.402  0.00  0.00    +0.000 A 
ATOM      8  C   UNL     1       2.735   4.655  19.767  0.00  0.00    +0.000 A 
ATOM      9  N   UNL     1       3.277   5.709  19.029  0.00  0.00    +0.000 N 
ENDROOT
BRANCH   1  13
ATOM     10  C   UNL     1       5.609   4.770  15.131  0.00  0.00    +0.000 A 
ATOM     11  C   UNL     1       5.653   6.146  15.180  0.00  0.00    +0.000 A 
ATOM     12  N   UNL     1       5.120   6.479  16.397  0.00  0.00    +0.000 N 
ATOM     13  C   UNL     1       4.826   5.313  17.058  0.00  0.00    +0.000 A 
ATOM     14  N   UNL     1       5.025   4.275  16.268  0.00  0.00    +0.000 NA
ATOM     15  H   UNL     1       5.107   7.403  16.810  0.00  0.00    +0.000 HD
BRANCH  10  17
ATOM     16  C   UNL     1       5.303   3.715  12.902  0.00  0.00    +0.000 C 
ATOM     17  C   UNL     1       6.197   3.838  14.132  0.00  0.00    +0.000 C 
ENDBRANCH  10  17
ENDBRANCH   1  13
BRANCH   9  18
ATOM     18  C   UNL     1       2.469   6.572  18.144  0.00  0.00    +0.000 C 
BRANCH  18  19
ATOM     19  C   UNL     1       2.476   8.072  18.523  0.00  0.00    +0.000 C 
ATOM     20  C   UNL     1       1.652   8.297  19.792  0.00  0.00    +0.000 C 
BRANCH  19  21
ATOM     21  N   UNL     1       1.965   8.915  17.432  0.00  0.00    +0.000 NA
ATOM     22  H   UNL     1       2.037   8.398  16.556  0.00  0.00    +0.000 HD
ATOM     23  H   UNL     1       2.649   9.674  17.324  0.00  0.00    +0.000 HD
ENDBRANCH  19  21
ENDBRANCH  18  19
ENDBRANCH   9  18
TORSDOF 5
ENDMDL
MODEL 6
REMARK VINA RESULT:      -7.0      1.793      6.213
REMARK  Name = 
REMARK  7 active torsions:
REMARK  status: ('A' for Active; 'I' for Inactive)
REMARK    1  A    between atoms: C_1  and  C_2
REMARK    2  A    between atoms: C_2  and  C_3
REMARK    3  A    between atoms: C_6  and  C_7
REMARK    4  A    between atoms: N_15  and  C_16
REMARK    5  A    between atoms: C_16  and  C_17
REMARK    6  A    between atoms: C_17  and  C_18
REMARK    7  A    between atoms: C_17  and  N_19
REMARK                            x       y       z     vdW  Elec       q    Type
REMARK                         _______ _______ _______ _____ _____    ______ ____
ROOT
ATOM      1  C   UNL     1       5.639   5.022  17.587  0.00  0.00    +0.000 C 
ATOM      2  C   UNL     1       6.637   5.857  16.746  0.00  0.00    +0.000 C 
ATOM      3  C   UNL     1       6.587   5.160  15.427  0.00  0.00    +0.000 A 
ATOM      4  C   UNL     1       7.337   5.459  14.295  0.00  0.00    +0.000 A 
ATOM      5  C   UNL     1       7.136   4.694  13.148  0.00  0.00    +0.000 A 
ATOM      6  C   UNL     1       6.187   3.669  13.149  0.00  0.00    +0.000 A 
ATOM      7  C   UNL     1       5.441   3.385  14.301  0.00  0.00    +0.000 A 
ATOM      8  C   UNL     1       5.649   4.123  15.453  0.00  0.00    +0.000 A 
ATOM      9  N   UNL     1       5.092   3.930  16.719  0.00  0.00    +0.000 N 
ENDROOT
BRANCH   1  13
ATOM     10  C   UNL     1       2.875   6.310  19.484  0.00  0.00    +0.000 A 
ATOM     11  C   UNL     1       2.796   7.149  18.393  0.00  0.00    +0.000 A 
ATOM     12  N   UNL     1       3.917   6.882  17.654  0.00  0.00    +0.000 N 
ATOM     13  C   UNL     1       4.601   5.869  18.280  0.00  0.00    +0.000 A 
ATOM     14  N   UNL     1       4.034   5.581  19.436  0.00  0.00    +0.000 NA
ATOM     15  H   UNL     1       4.119   7.237  16.728  0.00  0.00    +0.000 HD
BRANCH  10  17
ATOM     16  C   UNL     1       1.834   4.550  20.895  0.00  0.00    +0.000 C 
ATOM     17  C   UNL     1       1.866   6.033  20.541  0.00  0.00    +0.000 C 
ENDBRANCH  10  17
ENDBRANCH   1  13
BRANCH   9  18
ATOM     18  C   UNL     1       3.699   3.488  16.926  0.00  0.00    +0.000 C 
BRANCH  18  19
ATOM     19  C   UNL     1       3.545   2.241  17.830  0.00  0.00    +0.000 C 
ATOM     20  C   UNL     1       2.078   2.046  18.213  0.00  0.00    +0.000 C 
BRANCH  19  21
ATOM     21  N   UNL     1       4.376   2.336  19.040  0.00  0.00    +0.000 NA
ATOM     22  H   UNL     1       4.645   3.310  19.178  0.00  0.00    +0.000 HD
ATOM     23  H   UNL     1       5.260   1.868  18.807  0.00  0.00    +0.000 HD
ENDBRANCH  19  21
ENDBRANCH  18  19
ENDBRANCH   9  18
TORSDOF 5
ENDMDL
MODEL 7
REMARK VINA RESULT:      -6.9      1.360      4.561
REMARK  Name = 
REMARK  7 active torsions:
REMARK  status: ('A' for Active; 'I' for Inactive)
REMARK    1  A    between atoms: C_1  and  C_2
REMARK    2  A    between atoms: C_2  and  C_3
REMARK    3  A    between atoms: C_6  and  C_7
REMARK    4  A    between atoms: N_15  and  C_16
REMARK    5  A    between atoms: C_16  and  C_17
REMARK    6  A    between atoms: C_17  and  C_18
REMARK    7  A    between atoms: C_17  and  N_19
REMARK                            x       y       z     vdW  Elec       q    Type
REMARK                         _______ _______ _______ _____ _____    ______ ____
ROOT
ATOM      1  C   UNL     1       4.032   5.833  17.511  0.00  0.00    +0.000 C 
ATOM      2  C   UNL     1       2.931   5.858  18.601  0.00  0.00    +0.000 C 
ATOM      3  C   UNL     1       2.419   4.457  18.555  0.00  0.00    +0.000 A 
ATOM      4  C   UNL     1       1.371   3.925  19.298  0.00  0.00    +0.000 A 
ATOM      5  C   UNL     1       1.050   2.582  19.120  0.00  0.00    +0.000 A 
ATOM      6  C   UNL     1       1.786   1.799  18.226  0.00  0.00    +0.000 A 
ATOM      7  C   UNL     1       2.839   2.355  17.488  0.00  0.00    +0.000 A 
ATOM      8  C   UNL     1       3.152   3.694  17.639  0.00  0.00    +0.000 A 
ATOM      9  N   UNL     1       4.083   4.453  16.927  0.00  0.00    +0.000 N 
ENDROOT
BRANCH   1  13
ATOM     10  C   UNL     1       7.254   7.371  17.893  0.00  0.00    +0.000 A 
ATOM     11  C   UNL     1       7.471   6.232  18.638  0.00  0.00    +0.000 A 
ATOM     12  N   UNL     1       6.248   5.623  18.726  0.00  0.00    +0.000 N 
ATOM     13  C   UNL     1       5.354   6.370  17.999  0.00  0.00    +0.000 A 
ATOM     14  N   UNL     1       5.926   7.480  17.571  0.00  0.00    +0.000 NA
ATOM     15  H   UNL     1       6.065   4.702  19.104  0.00  0.00    +0.000 HD
BRANCH  10  17
ATOM     16  C   UNL     1       8.589   9.416  18.354  0.00  0.00    +0.000 C 
ATOM     17  C   UNL     1       8.235   8.339  17.334  0.00  0.00    +0.000 C 
ENDBRANCH  10  17
ENDBRANCH   1  13
BRANCH   9  18
ATOM     18  C   UNL     1       5.384   3.919  16.480  0.00  0.00    +0.000 C 
BRANCH  18  19
ATOM     19  C   UNL     1       5.991   4.641  15.253  0.00  0.00    +0.000 C 
ATOM     20  C   UNL     1       5.642   3.884  13.971  0.00  0.00    +0.000 C 
BRANCH  19  21
ATOM     21  N   UNL     1       7.450   4.790  15.372  0.00  0.00    +0.000 NA
ATOM     22  H   UNL     1       7.688   4.917  16.355  0.00  0.00    +0.000 HD
ATOM     23  H   UNL     1       7.671   5.698  14.947  0.00  0.00    +0.000 HD
ENDBRANCH  19  21
ENDBRANCH  18  19
ENDBRANCH   9  18
TORSDOF 5
ENDMDL
MODEL 8
REMARK VINA RESULT:      -6.9      2.569      6.541
REMARK  Name = 
REMARK  7 active torsions:
REMARK  status: ('A' for Active; 'I' for Inactive)
REMARK    1  A    between atoms: C_1  and  C_2
REMARK    2  A    between atoms: C_2  and  C_3
REMARK    3  A    between atoms: C_6  and  C_7
REMARK    4  A    between atoms: N_15  and  C_16
REMARK    5  A    between atoms: C_16  and  C_17
REMARK    6  A    between atoms: C_17  and  C_18
REMARK    7  A    between atoms: C_17  and  N_19
REMARK                            x       y       z     vdW  Elec       q    Type
REMARK                         _______ _______ _______ _____ _____    ______ ____
ROOT
ATOM      1  C   UNL     1       4.181   5.870  18.804  0.00  0.00    +0.000 C 
ATOM      2  C   UNL     1       5.381   6.567  18.114  0.00  0.00    +0.000 C 
ATOM      3  C   UNL     1       5.710   5.606  17.020  0.00  0.00    +0.000 A 
ATOM      4  C   UNL     1       6.753   5.703  16.107  0.00  0.00    +0.000 A 
ATOM      5  C   UNL     1       6.887   4.703  15.147  0.00  0.00    +0.000 A 
ATOM      6  C   UNL     1       5.974   3.647  15.106  0.00  0.00    +0.000 A 
ATOM      7  C   UNL     1       4.928   3.567  16.036  0.00  0.00    +0.000 A 
ATOM      8  C   UNL     1       4.799   4.543  17.009  0.00  0.00    +0.000 A 
ATOM      9  N   UNL     1       3.902   4.588  18.078  0.00  0.00    +0.000 N 
ENDROOT
BRANCH   1  13
ATOM     10  C   UNL     1       1.812   8.568  18.784  0.00  0.00    +0.000 A 
ATOM     11  C   UNL     1       1.641   8.143  20.083  0.00  0.00    +0.000 A 
ATOM     12  N   UNL     1       2.369   6.987  20.181  0.00  0.00    +0.000 N 
ATOM     13  C   UNL     1       2.991   6.781  18.974  0.00  0.00    +0.000 A 
ATOM     14  N   UNL     1       2.586   7.674  18.091  0.00  0.00    +0.000 NA
ATOM     15  H   UNL     1       2.560   6.472  21.031  0.00  0.00    +0.000 HD
BRANCH  10  17
ATOM     16  C   UNL     1      -0.049  10.187  18.478  0.00  0.00    +0.000 C 
ATOM     17  C   UNL     1       1.399   9.845  18.142  0.00  0.00    +0.000 C 
ENDBRANCH  10  17
ENDBRANCH   1  13
BRANCH   9  18
ATOM     18  C   UNL     1       2.507   4.118  17.978  0.00  0.00    +0.000 C 
BRANCH  18  19
ATOM     19  C   UNL     1       2.066   3.162  19.113  0.00  0.00    +0.000 C 
ATOM     20  C   UNL     1       0.896   2.294  18.644  0.00  0.00    +0.000 C 
BRANCH  19  21
ATOM     21  N   UNL     1       1.695   3.894  20.333  0.00  0.00    +0.000 NA
ATOM     22  H   UNL     1       2.218   4.770  20.362  0.00  0.00    +0.000 HD
ATOM     23  H   UNL     1       2.085   3.351  21.112  0.00  0.00    +0.000 HD
ENDBRANCH  19  21
ENDBRANCH  18  19
ENDBRANCH   9  18
TORSDOF 5
ENDMDL
MODEL 9
REMARK VINA RESULT:      -6.8      2.504      5.147
REMARK  Name = 
REMARK  7 active torsions:
REMARK  status: ('A' for Active; 'I' for Inactive)
REMARK    1  A    between atoms: C_1  and  C_2
REMARK    2  A    between atoms: C_2  and  C_3
REMARK    3  A    between atoms: C_6  and  C_7
REMARK    4  A    between atoms: N_15  and  C_16
REMARK    5  A    between atoms: C_16  and  C_17
REMARK    6  A    between atoms: C_17  and  C_18
REMARK    7  A    between atoms: C_17  and  N_19
REMARK                            x       y       z     vdW  Elec       q    Type
REMARK                         _______ _______ _______ _____ _____    ______ ____
ROOT
ATOM      1  C   UNL     1       2.965   5.202  17.848  0.00  0.00    +0.000 C 
ATOM      2  C   UNL     1       2.854   6.702  17.477  0.00  0.00    +0.000 C 
ATOM      3  C   UNL     1       2.256   7.283  18.715  0.00  0.00    +0.000 A 
ATOM      4  C   UNL     1       1.885   8.607  18.924  0.00  0.00    +0.000 A 
ATOM      5  C   UNL     1       1.352   8.957  20.161  0.00  0.00    +0.000 A 
ATOM      6  C   UNL     1       1.218   7.992  21.163  0.00  0.00    +0.000 A 
ATOM      7  C   UNL     1       1.599   6.663  20.933  0.00  0.00    +0.000 A 
ATOM      8  C   UNL     1       2.108   6.299  19.699  0.00  0.00    +0.000 A 
ATOM      9  N   UNL     1       2.441   5.023  19.241  0.00  0.00    +0.000 N 
ENDROOT
BRANCH   1  13
ATOM     10  C   UNL     1       6.491   4.581  17.572  0.00  0.00    +0.000 A 
ATOM     11  C   UNL     1       6.083   4.036  16.374  0.00  0.00    +0.000 A 
ATOM     12  N   UNL     1       4.714   4.046  16.423  0.00  0.00    +0.000 N 
ATOM     13  C   UNL     1       4.342   4.637  17.605  0.00  0.00    +0.000 A 
ATOM     14  N   UNL     1       5.403   4.876  18.352  0.00  0.00    +0.000 NA
ATOM     15  H   UNL     1       4.088   3.825  15.659  0.00  0.00    +0.000 HD
BRANCH  10  17
ATOM     16  C   UNL     1       7.791   5.853  19.265  0.00  0.00    +0.000 C 
ATOM     17  C   UNL     1       7.853   4.976  18.018  0.00  0.00    +0.000 C 
ENDBRANCH  10  17
ENDBRANCH   1  13
BRANCH   9  18
ATOM     18  C   UNL     1       3.053   3.992  20.103  0.00  0.00    +0.000 C 
BRANCH  18  19
ATOM     19  C   UNL     1       2.090   2.862  20.540  0.00  0.00    +0.000 C 
ATOM     20  C   UNL     1       0.760   2.988  19.797  0.00  0.00    +0.000 C 
BRANCH  19  21
ATOM     21  N   UNL     1       1.861   2.869  21.993  0.00  0.00    +0.000 NA
ATOM     22  H   UNL     1       2.631   3.361  22.445  0.00  0.00    +0.000 HD
ATOM     23  H   UNL     1       1.980   1.896  22.298  0.00  0.00    +0.000 HD
ENDBRANCH  19  21
ENDBRANCH  18  19
ENDBRANCH   9  18
TORSDOF 5
ENDMDL
