MODEL 1
REMARK VINA RESULT:      -9.3      0.000      0.000
REMARK  Name = 
REMARK  2 active torsions:
REMARK  status: ('A' for Active; 'I' for Inactive)
REMARK    1  A    between atoms: C_7  and  C_8
REMARK    2  A    between atoms: C_17  and  C_18
REMARK                            x       y       z     vdW  Elec       q    Type
REMARK                         _______ _______ _______ _____ _____    ______ ____
ROOT
ATOM      1  C   UNL     1       2.288   7.945  18.558  0.00  0.00    +0.000 C 
ATOM      2  O   UNL     1       2.846   7.874  17.464  0.00  0.00    +0.000 OA
ATOM      3  N   UNL     1       2.212   6.910  19.492  0.00  0.00    +0.000 N 
ATOM      4  C   UNL     1       2.993   5.826  19.184  0.00  0.00    +0.000 A 
ATOM      5  N   UNL     1       4.162   5.568  19.706  0.00  0.00    +0.000 NA
ATOM      6  C   UNL     1       4.900   4.970  18.701  0.00  0.00    +0.000 A 
ATOM      7  C   UNL     1       6.304   4.904  18.637  0.00  0.00    +0.000 A 
ATOM      8  C   UNL     1       6.750   5.125  17.333  0.00  0.00    +0.000 A 
ATOM      9 CL   UNL     1       7.279   6.781  17.045  0.00  0.00    +0.000 Cl
ATOM     10  C   UNL     1       6.105   4.489  16.265  0.00  0.00    +0.000 A 
ATOM     11  C   UNL     1       4.796   4.015  16.439  0.00  0.00    +0.000 A 
ATOM     12  C   UNL     1       4.168   4.505  17.597  0.00  0.00    +0.000 A 
ATOM     13  S   UNL     1       2.496   4.791  17.912  0.00  0.00    +0.000 S 
ATOM     14  H   UNL     1       2.339   7.273  20.430  0.00  0.00    +0.000 HD
ENDROOT
BRANCH   1  21
ATOM     15  N   UNL     1      -1.304  11.040  23.408  0.00  0.00    +0.000 NA
ATOM     16  C   UNL     1      -0.491  10.440  22.612  0.00  0.00    +0.000 C 
ATOM     17  N   UNL     1       0.157   9.310  22.939  0.00  0.00    +0.000 N 
ATOM     18  N   UNL     1      -0.252  10.967  21.382  0.00  0.00    +0.000 N 
ATOM     19  C   UNL     1       0.471  10.516  20.338  0.00  0.00    +0.000 A 
ATOM     20  N   UNL     1       1.081   9.345  20.253  0.00  0.00    +0.000 NA
ATOM     21  C   UNL     1       1.651   9.192  18.990  0.00  0.00    +0.000 A 
ATOM     22  C   UNL     1       1.529  10.296  18.166  0.00  0.00    +0.000 A 
ATOM     23  S   UNL     1       0.617  11.512  18.936  0.00  0.00    +0.000 S 
ATOM     24  H   UNL     1      -1.323  10.529  24.294  0.00  0.00    +0.000 HD
ATOM     25  H   UNL     1      -0.257   8.740  23.657  0.00  0.00    +0.000 HD
ATOM     26  H   UNL     1       0.478   8.765  22.144  0.00  0.00    +0.000 HD
ATOM     27  H   UNL     1      -0.741  11.844  21.257  0.00  0.00    +0.000 HD
ENDBRANCH   1  21
BRANCH  10  28
ATOM     28  C   UNL     1       6.791   4.482  14.949  0.00  0.00    +0.000 C 
ATOM     29  N   UNL     1       6.347   3.612  13.994  0.00  0.00    +0.000 N 
ATOM     30  O   UNL     1       7.722   5.241  14.711  0.00  0.00    +0.000 OA
ATOM     31  H   UNL     1       5.468   3.121  14.054  0.00  0.00    +0.000 HD
ATOM     32  H   UNL     1       6.740   3.746  13.070  0.00  0.00    +0.000 HD
ENDBRANCH  10  28
TORSDOF 2
ENDMDL
MODEL 2
REMARK VINA RESULT:      -8.9      1.622      2.156
REMARK  Name = 
REMARK  2 active torsions:
REMARK  status: ('A' for Active; 'I' for Inactive)
REMARK    1  A    between atoms: C_7  and  C_8
REMARK    2  A    between atoms: C_17  and  C_18
REMARK                            x       y       z     vdW  Elec       q    Type
REMARK                         _______ _______ _______ _____ _____    ______ ____
ROOT
ATOM      1  C   UNL     1       2.364   7.126  19.351  0.00  0.00    +0.000 C 
ATOM      2  O   UNL     1       2.763   7.262  18.196  0.00  0.00    +0.000 OA
ATOM      3  N   UNL     1       2.595   6.011  20.158  0.00  0.00    +0.000 N 
ATOM      4  C   UNL     1       3.492   5.119  19.628  0.00  0.00    +0.000 A 
ATOM      5  N   UNL     1       4.751   5.027  19.966  0.00  0.00    +0.000 NA
ATOM      6  C   UNL     1       5.426   4.670  18.813  0.00  0.00    +0.000 A 
ATOM      7  C   UNL     1       6.797   4.865  18.568  0.00  0.00    +0.000 A 
ATOM      8  C   UNL     1       7.008   5.285  17.254  0.00  0.00    +0.000 A 
ATOM      9 CL   UNL     1       7.210   7.030  17.101  0.00  0.00    +0.000 Cl
ATOM     10  C   UNL     1       6.331   4.649  16.206  0.00  0.00    +0.000 A 
ATOM     11  C   UNL     1       5.157   3.933  16.484  0.00  0.00    +0.000 A 
ATOM     12  C   UNL     1       4.629   4.189  17.762  0.00  0.00    +0.000 A 
ATOM     13  S   UNL     1       2.996   4.138  18.314  0.00  0.00    +0.000 S 
ATOM     14  H   UNL     1       2.793   6.300  21.109  0.00  0.00    +0.000 HD
ENDROOT
BRANCH   1  21
ATOM     15  N   UNL     1      -1.479  12.646  18.471  0.00  0.00    +0.000 NA
ATOM     16  C   UNL     1      -0.885  11.509  18.557  0.00  0.00    +0.000 C 
ATOM     17  N   UNL     1      -0.740  10.674  17.514  0.00  0.00    +0.000 N 
ATOM     18  N   UNL     1      -0.385  11.107  19.755  0.00  0.00    +0.000 N 
ATOM     19  C   UNL     1       0.340  10.027  20.108  0.00  0.00    +0.000 A 
ATOM     20  N   UNL     1       0.821   9.104  19.292  0.00  0.00    +0.000 NA
ATOM     21  C   UNL     1       1.598   8.191  20.005  0.00  0.00    +0.000 A 
ATOM     22  C   UNL     1       1.621   8.400  21.372  0.00  0.00    +0.000 A 
ATOM     23  S   UNL     1       0.738   9.801  21.773  0.00  0.00    +0.000 S 
ATOM     24  H   UNL     1      -1.825  12.757  17.514  0.00  0.00    +0.000 HD
ATOM     25  H   UNL     1      -0.776  11.085  16.596  0.00  0.00    +0.000 HD
ATOM     26  H   UNL     1       0.016  10.004  17.614  0.00  0.00    +0.000 HD
ATOM     27  H   UNL     1      -0.596  11.777  20.484  0.00  0.00    +0.000 HD
ENDBRANCH   1  21
BRANCH  10  28
ATOM     28  C   UNL     1       6.813   4.891  14.824  0.00  0.00    +0.000 C 
ATOM     29  N   UNL     1       6.087   4.376  13.788  0.00  0.00    +0.000 N 
ATOM     30  O   UNL     1       7.826   5.544  14.607  0.00  0.00    +0.000 OA
ATOM     31  H   UNL     1       5.148   4.020  13.889  0.00  0.00    +0.000 HD
ATOM     32  H   UNL     1       6.364   4.692  12.866  0.00  0.00    +0.000 HD
ENDBRANCH  10  28
TORSDOF 2
ENDMDL
MODEL 3
REMARK VINA RESULT:      -8.9      1.737      2.435
REMARK  Name = 
REMARK  2 active torsions:
REMARK  status: ('A' for Active; 'I' for Inactive)
REMARK    1  A    between atoms: C_7  and  C_8
REMARK    2  A    between atoms: C_17  and  C_18
REMARK                            x       y       z     vdW  Elec       q    Type
REMARK                         _______ _______ _______ _____ _____    ______ ____
ROOT
ATOM      1  C   UNL     1       2.218   7.720  18.792  0.00  0.00    +0.000 C 
ATOM      2  O   UNL     1       2.748   7.742  17.683  0.00  0.00    +0.000 OA
ATOM      3  N   UNL     1       2.185   6.618  19.649  0.00  0.00    +0.000 N 
ATOM      4  C   UNL     1       2.978   5.576  19.241  0.00  0.00    +0.000 A 
ATOM      5  N   UNL     1       4.165   5.303  19.714  0.00  0.00    +0.000 NA
ATOM      6  C   UNL     1       4.887   4.796  18.649  0.00  0.00    +0.000 A 
ATOM      7  C   UNL     1       6.290   4.764  18.546  0.00  0.00    +0.000 A 
ATOM      8  C   UNL     1       6.697   5.090  17.251  0.00  0.00    +0.000 A 
ATOM      9 CL   UNL     1       7.189   6.773  17.075  0.00  0.00    +0.000 Cl
ATOM     10  C   UNL     1       6.037   4.522  16.155  0.00  0.00    +0.000 A 
ATOM     11  C   UNL     1       4.741   4.011  16.325  0.00  0.00    +0.000 A 
ATOM     12  C   UNL     1       4.135   4.400  17.531  0.00  0.00    +0.000 A 
ATOM     13  S   UNL     1       2.467   4.628  17.908  0.00  0.00    +0.000 S 
ATOM     14  H   UNL     1       2.330   6.913  20.608  0.00  0.00    +0.000 HD
ENDROOT
BRANCH   1  21
ATOM     15  N   UNL     1       1.889  14.493  18.634  0.00  0.00    +0.000 NA
ATOM     16  C   UNL     1       1.892  13.215  18.493  0.00  0.00    +0.000 C 
ATOM     17  N   UNL     1       2.464  12.592  17.450  0.00  0.00    +0.000 N 
ATOM     18  N   UNL     1       1.278  12.440  19.426  0.00  0.00    +0.000 N 
ATOM     19  C   UNL     1       1.200  11.103  19.571  0.00  0.00    +0.000 A 
ATOM     20  N   UNL     1       1.813  10.196  18.829  0.00  0.00    +0.000 NA
ATOM     21  C   UNL     1       1.570   8.919  19.332  0.00  0.00    +0.000 A 
ATOM     22  C   UNL     1       0.701   8.881  20.408  0.00  0.00    +0.000 A 
ATOM     23  S   UNL     1       0.248  10.460  20.860  0.00  0.00    +0.000 S 
ATOM     24  H   UNL     1       2.353  14.908  17.822  0.00  0.00    +0.000 HD
ATOM     25  H   UNL     1       3.194  13.090  16.968  0.00  0.00    +0.000 HD
ATOM     26  H   UNL     1       2.701  11.619  17.620  0.00  0.00    +0.000 HD
ATOM     27  H   UNL     1       0.831  13.006  20.136  0.00  0.00    +0.000 HD
ENDBRANCH   1  21
BRANCH  10  28
ATOM     28  C   UNL     1       6.688   4.627  14.825  0.00  0.00    +0.000 C 
ATOM     29  N   UNL     1       6.333   3.727  13.860  0.00  0.00    +0.000 N 
ATOM     30  O   UNL     1       7.513   5.499  14.586  0.00  0.00    +0.000 OA
ATOM     31  H   UNL     1       5.522   3.131  13.927  0.00  0.00    +0.000 HD
ATOM     32  H   UNL     1       6.685   3.928  12.932  0.00  0.00    +0.000 HD
ENDBRANCH  10  28
TORSDOF 2
ENDMDL
MODEL 4
REMARK VINA RESULT:      -8.6      1.797      2.307
REMARK  Name = 
REMARK  2 active torsions:
REMARK  status: ('A' for Active; 'I' for Inactive)
REMARK    1  A    between atoms: C_7  and  C_8
REMARK    2  A    between atoms: C_17  and  C_18
REMARK                            x       y       z     vdW  Elec       q    Type
REMARK                         _______ _______ _______ _____ _____    ______ ____
ROOT
ATOM      1  C   UNL     1       2.501   6.940  19.304  0.00  0.00    +0.000 C 
ATOM      2  O   UNL     1       2.833   7.061  18.125  0.00  0.00    +0.000 OA
ATOM      3  N   UNL     1       2.825   5.859  20.126  0.00  0.00    +0.000 N 
ATOM      4  C   UNL     1       3.734   4.994  19.572  0.00  0.00    +0.000 A 
ATOM      5  N   UNL     1       5.011   4.968  19.845  0.00  0.00    +0.000 NA
ATOM      6  C   UNL     1       5.641   4.609  18.668  0.00  0.00    +0.000 A 
ATOM      7  C   UNL     1       6.987   4.857  18.345  0.00  0.00    +0.000 A 
ATOM      8  C   UNL     1       7.110   5.249  17.011  0.00  0.00    +0.000 A 
ATOM      9 CL   UNL     1       7.223   6.996  16.802  0.00  0.00    +0.000 Cl
ATOM     10  C   UNL     1       6.410   4.554  16.018  0.00  0.00    +0.000 A 
ATOM     11  C   UNL     1       5.285   3.794  16.376  0.00  0.00    +0.000 A 
ATOM     12  C   UNL     1       4.814   4.062  17.673  0.00  0.00    +0.000 A 
ATOM     13  S   UNL     1       3.216   3.954  18.313  0.00  0.00    +0.000 S 
ATOM     14  H   UNL     1       3.059   6.184  21.058  0.00  0.00    +0.000 HD
ENDROOT
BRANCH   1  21
ATOM     15  N   UNL     1       0.708  13.482  19.293  0.00  0.00    +0.000 NA
ATOM     16  C   UNL     1       0.958  12.230  19.138  0.00  0.00    +0.000 C 
ATOM     17  N   UNL     1       1.449  11.714  17.999  0.00  0.00    +0.000 N 
ATOM     18  N   UNL     1       0.706  11.368  20.159  0.00  0.00    +0.000 N 
ATOM     19  C   UNL     1       0.945  10.049  20.299  0.00  0.00    +0.000 A 
ATOM     20  N   UNL     1       1.590   9.273  19.445  0.00  0.00    +0.000 NA
ATOM     21  C   UNL     1       1.722   7.988  19.969  0.00  0.00    +0.000 A 
ATOM     22  C   UNL     1       1.095   7.796  21.187  0.00  0.00    +0.000 A 
ATOM     23  S   UNL     1       0.405   9.256  21.735  0.00  0.00    +0.000 S 
ATOM     24  H   UNL     1       0.914  13.962  18.413  0.00  0.00    +0.000 HD
ATOM     25  H   UNL     1       1.954  12.342  17.397  0.00  0.00    +0.000 HD
ATOM     26  H   UNL     1       1.915  10.818  18.110  0.00  0.00    +0.000 HD
ATOM     27  H   UNL     1       0.287  11.846  20.947  0.00  0.00    +0.000 HD
ENDBRANCH   1  21
BRANCH  10  28
ATOM     28  C   UNL     1       6.807   4.777  14.606  0.00  0.00    +0.000 C 
ATOM     29  N   UNL     1       7.923   5.525  14.359  0.00  0.00    +0.000 N 
ATOM     30  O   UNL     1       6.165   4.298  13.679  0.00  0.00    +0.000 OA
ATOM     31  H   UNL     1       8.600   5.764  15.068  0.00  0.00    +0.000 HD
ATOM     32  H   UNL     1       8.241   5.524  13.398  0.00  0.00    +0.000 HD
ENDBRANCH  10  28
TORSDOF 2
ENDMDL
MODEL 5
REMARK VINA RESULT:      -8.3      1.951      2.335
REMARK  Name = 
REMARK  2 active torsions:
REMARK  status: ('A' for Active; 'I' for Inactive)
REMARK    1  A    between atoms: C_7  and  C_8
REMARK    2  A    between atoms: C_17  and  C_18
REMARK                            x       y       z     vdW  Elec       q    Type
REMARK                         _______ _______ _______ _____ _____    ______ ____
ROOT
ATOM      1  C   UNL     1       2.003   8.339  18.202  0.00  0.00    +0.000 C 
ATOM      2  O   UNL     1       2.634   8.159  17.161  0.00  0.00    +0.000 OA
ATOM      3  N   UNL     1       1.867   7.408  19.233  0.00  0.00    +0.000 N 
ATOM      4  C   UNL     1       2.670   6.305  19.094  0.00  0.00    +0.000 A 
ATOM      5  N   UNL     1       3.802   6.114  19.718  0.00  0.00    +0.000 NA
ATOM      6  C   UNL     1       4.608   5.421  18.834  0.00  0.00    +0.000 A 
ATOM      7  C   UNL     1       6.013   5.363  18.872  0.00  0.00    +0.000 A 
ATOM      8  C   UNL     1       6.545   5.449  17.584  0.00  0.00    +0.000 A 
ATOM      9 CL   UNL     1       7.089   7.071  17.160  0.00  0.00    +0.000 Cl
ATOM     10  C   UNL     1       5.976   4.699  16.548  0.00  0.00    +0.000 A 
ATOM     11  C   UNL     1       4.659   4.233  16.683  0.00  0.00    +0.000 A 
ATOM     12  C   UNL     1       3.953   4.836  17.738  0.00  0.00    +0.000 A 
ATOM     13  S   UNL     1       2.263   5.137  17.908  0.00  0.00    +0.000 S 
ATOM     14  H   UNL     1       1.929   7.869  20.134  0.00  0.00    +0.000 HD
ENDROOT
BRANCH   1  21
ATOM     15  N   UNL     1      -3.702  11.943  17.515  0.00  0.00    +0.000 NA
ATOM     16  C   UNL     1      -2.717  11.151  17.753  0.00  0.00    +0.000 C 
ATOM     17  N   UNL     1      -2.803   9.816  17.637  0.00  0.00    +0.000 N 
ATOM     18  N   UNL     1      -1.528  11.670  18.158  0.00  0.00    +0.000 N 
ATOM     19  C   UNL     1      -0.332  11.095  18.392  0.00  0.00    +0.000 A 
ATOM     20  N   UNL     1      -0.017   9.827  18.188  0.00  0.00    +0.000 NA
ATOM     21  C   UNL     1       1.335   9.618  18.456  0.00  0.00    +0.000 A 
ATOM     22  C   UNL     1       2.003  10.728  18.942  0.00  0.00    +0.000 A 
ATOM     23  S   UNL     1       0.960  12.076  18.983  0.00  0.00    +0.000 S 
ATOM     24  H   UNL     1      -4.518  11.377  17.269  0.00  0.00    +0.000 HD
ATOM     25  H   UNL     1      -3.518   9.458  17.025  0.00  0.00    +0.000 HD
ATOM     26  H   UNL     1      -1.911   9.347  17.512  0.00  0.00    +0.000 HD
ATOM     27  H   UNL     1      -1.584  12.674  18.269  0.00  0.00    +0.000 HD
ENDBRANCH   1  21
BRANCH  10  28
ATOM     28  C   UNL     1       6.749   4.560  15.290  0.00  0.00    +0.000 C 
ATOM     29  N   UNL     1       6.328   3.641  14.371  0.00  0.00    +0.000 N 
ATOM     30  O   UNL     1       7.733   5.255  15.066  0.00  0.00    +0.000 OA
ATOM     31  H   UNL     1       5.422   3.198  14.402  0.00  0.00    +0.000 HD
ATOM     32  H   UNL     1       6.790   3.686  13.470  0.00  0.00    +0.000 HD
ENDBRANCH  10  28
TORSDOF 2
ENDMDL
MODEL 6
REMARK VINA RESULT:      -7.5      3.408      4.103
REMARK  Name = 
REMARK  2 active torsions:
REMARK  status: ('A' for Active; 'I' for Inactive)
REMARK    1  A    between atoms: C_7  and  C_8
REMARK    2  A    between atoms: C_17  and  C_18
REMARK                            x       y       z     vdW  Elec       q    Type
REMARK                         _______ _______ _______ _____ _____    ______ ____
ROOT
ATOM      1  C   UNL     1       1.818   7.829  20.101  0.00  0.00    +0.000 C 
ATOM      2  O   UNL     1       2.349   6.968  20.800  0.00  0.00    +0.000 OA
ATOM      3  N   UNL     1       1.918   7.914  18.711  0.00  0.00    +0.000 N 
ATOM      4  C   UNL     1       2.515   6.824  18.130  0.00  0.00    +0.000 A 
ATOM      5  N   UNL     1       1.881   5.842  17.545  0.00  0.00    +0.000 NA
ATOM      6  C   UNL     1       2.628   4.706  17.801  0.00  0.00    +0.000 A 
ATOM      7  C   UNL     1       2.155   3.382  17.756  0.00  0.00    +0.000 A 
ATOM      8  C   UNL     1       2.678   2.636  18.814  0.00  0.00    +0.000 A 
ATOM      9 CL   UNL     1       1.574   2.491  20.181  0.00  0.00    +0.000 Cl
ATOM     10  C   UNL     1       4.038   2.740  19.129  0.00  0.00    +0.000 A 
ATOM     11  C   UNL     1       4.754   3.872  18.709  0.00  0.00    +0.000 A 
ATOM     12  C   UNL     1       3.936   4.925  18.265  0.00  0.00    +0.000 A 
ATOM     13  S   UNL     1       4.208   6.627  18.299  0.00  0.00    +0.000 S 
ATOM     14  H   UNL     1       1.025   8.175  18.309  0.00  0.00    +0.000 HD
ENDROOT
BRANCH   1  21
ATOM     15  N   UNL     1      -1.331  13.766  19.180  0.00  0.00    +0.000 NA
ATOM     16  C   UNL     1      -0.848  12.575  19.230  0.00  0.00    +0.000 C 
ATOM     17  N   UNL     1      -0.494  11.879  18.138  0.00  0.00    +0.000 N 
ATOM     18  N   UNL     1      -0.695  11.968  20.437  0.00  0.00    +0.000 N 
ATOM     19  C   UNL     1      -0.151  10.786  20.784  0.00  0.00    +0.000 A 
ATOM     20  N   UNL     1       0.465   9.938  19.977  0.00  0.00    +0.000 NA
ATOM     21  C   UNL     1       0.978   8.866  20.706  0.00  0.00    +0.000 A 
ATOM     22  C   UNL     1       0.664   8.885  22.053  0.00  0.00    +0.000 A 
ATOM     23  S   UNL     1      -0.205  10.300  22.440  0.00  0.00    +0.000 S 
ATOM     24  H   UNL     1      -1.414  14.038  18.197  0.00  0.00    +0.000 HD
ATOM     25  H   UNL     1      -0.270  12.410  17.313  0.00  0.00    +0.000 HD
ATOM     26  H   UNL     1       0.169  11.130  18.313  0.00  0.00    +0.000 HD
ATOM     27  H   UNL     1      -1.043  12.552  21.188  0.00  0.00    +0.000 HD
ENDBRANCH   1  21
BRANCH  10  28
ATOM     28  C   UNL     1       4.621   1.712  20.025  0.00  0.00    +0.000 C 
ATOM     29  N   UNL     1       4.853   0.466  19.514  0.00  0.00    +0.000 N 
ATOM     30  O   UNL     1       4.902   1.966  21.190  0.00  0.00    +0.000 OA
ATOM     31  H   UNL     1       4.843   0.259  18.526  0.00  0.00    +0.000 HD
ATOM     32  H   UNL     1       5.389  -0.154  20.110  0.00  0.00    +0.000 HD
ENDBRANCH  10  28
TORSDOF 2
ENDMDL
MODEL 7
REMARK VINA RESULT:      -7.4      3.572      4.356
REMARK  Name = 
REMARK  2 active torsions:
REMARK  status: ('A' for Active; 'I' for Inactive)
REMARK    1  A    between atoms: C_7  and  C_8
REMARK    2  A    between atoms: C_17  and  C_18
REMARK                            x       y       z     vdW  Elec       q    Type
REMARK                         _______ _______ _______ _____ _____    ______ ____
ROOT
ATOM      1  C   UNL     1       1.591   8.416  19.692  0.00  0.00    +0.000 C 
ATOM      2  O   UNL     1       2.020   7.634  20.539  0.00  0.00    +0.000 OA
ATOM      3  N   UNL     1       1.812   8.317  18.317  0.00  0.00    +0.000 N 
ATOM      4  C   UNL     1       2.404   7.139  17.934  0.00  0.00    +0.000 A 
ATOM      5  N   UNL     1       1.777   6.114  17.422  0.00  0.00    +0.000 NA
ATOM      6  C   UNL     1       2.445   4.995  17.885  0.00  0.00    +0.000 A 
ATOM      7  C   UNL     1       1.915   3.694  17.965  0.00  0.00    +0.000 A 
ATOM      8  C   UNL     1       2.311   3.072  19.150  0.00  0.00    +0.000 A 
ATOM      9 CL   UNL     1       1.089   3.145  20.419  0.00  0.00    +0.000 Cl
ATOM     10  C   UNL     1       3.643   3.167  19.571  0.00  0.00    +0.000 A 
ATOM     11  C   UNL     1       4.444   4.208  19.078  0.00  0.00    +0.000 A 
ATOM     12  C   UNL     1       3.717   5.224  18.433  0.00  0.00    +0.000 A 
ATOM     13  S   UNL     1       4.066   6.906  18.277  0.00  0.00    +0.000 S 
ATOM     14  H   UNL     1       0.970   8.555  17.807  0.00  0.00    +0.000 HD
ENDROOT
BRANCH   1  21
ATOM     15  N   UNL     1      -3.813  12.216  18.154  0.00  0.00    +0.000 NA
ATOM     16  C   UNL     1      -2.906  11.360  18.467  0.00  0.00    +0.000 C 
ATOM     17  N   UNL     1      -2.811  10.147  17.897  0.00  0.00    +0.000 N 
ATOM     18  N   UNL     1      -2.000  11.671  19.432  0.00  0.00    +0.000 N 
ATOM     19  C   UNL     1      -0.918  11.014  19.891  0.00  0.00    +0.000 A 
ATOM     20  N   UNL     1      -0.426   9.882  19.416  0.00  0.00    +0.000 NA
ATOM     21  C   UNL     1       0.753   9.552  20.084  0.00  0.00    +0.000 A 
ATOM     22  C   UNL     1       1.086  10.408  21.118  0.00  0.00    +0.000 A 
ATOM     23  S   UNL     1      -0.030  11.693  21.207  0.00  0.00    +0.000 S 
ATOM     24  H   UNL     1      -4.425  11.793  17.451  0.00  0.00    +0.000 HD
ATOM     25  H   UNL     1      -3.219  10.042  16.983  0.00  0.00    +0.000 HD
ATOM     26  H   UNL     1      -1.892   9.721  17.967  0.00  0.00    +0.000 HD
ATOM     27  H   UNL     1      -2.193  12.579  19.837  0.00  0.00    +0.000 HD
ENDBRANCH   1  21
BRANCH  10  28
ATOM     28  C   UNL     1       4.099   2.243  20.638  0.00  0.00    +0.000 C 
ATOM     29  N   UNL     1       5.215   1.490  20.406  0.00  0.00    +0.000 N 
ATOM     30  O   UNL     1       3.505   2.159  21.705  0.00  0.00    +0.000 OA
ATOM     31  H   UNL     1       5.857   1.666  19.648  0.00  0.00    +0.000 HD
ATOM     32  H   UNL     1       5.576   0.991  21.211  0.00  0.00    +0.000 HD
ENDBRANCH  10  28
TORSDOF 2
ENDMDL
MODEL 8
REMARK VINA RESULT:      -7.4      3.254      3.886
REMARK  Name = 
REMARK  2 active torsions:
REMARK  status: ('A' for Active; 'I' for Inactive)
REMARK    1  A    between atoms: C_7  and  C_8
REMARK    2  A    between atoms: C_17  and  C_18
REMARK                            x       y       z     vdW  Elec       q    Type
REMARK                         _______ _______ _______ _____ _____    ______ ____
ROOT
ATOM      1  C   UNL     1       1.844   8.382  19.262  0.00  0.00    +0.000 C 
ATOM      2  O   UNL     1       2.304   7.689  20.169  0.00  0.00    +0.000 OA
ATOM      3  N   UNL     1       1.907   8.075  17.902  0.00  0.00    +0.000 N 
ATOM      4  C   UNL     1       2.365   6.809  17.640  0.00  0.00    +0.000 A 
ATOM      5  N   UNL     1       1.612   5.782  17.347  0.00  0.00    +0.000 NA
ATOM      6  C   UNL     1       2.243   4.683  17.901  0.00  0.00    +0.000 A 
ATOM      7  C   UNL     1       1.631   3.457  18.221  0.00  0.00    +0.000 A 
ATOM      8  C   UNL     1       2.107   2.973  19.441  0.00  0.00    +0.000 A 
ATOM      9 CL   UNL     1       1.039   3.327  20.798  0.00  0.00    +0.000 Cl
ATOM     10  C   UNL     1       3.480   3.007  19.711  0.00  0.00    +0.000 A 
ATOM     11  C   UNL     1       4.297   3.895  18.996  0.00  0.00    +0.000 A 
ATOM     12  C   UNL     1       3.581   4.872  18.284  0.00  0.00    +0.000 A 
ATOM     13  S   UNL     1       4.033   6.479  17.850  0.00  0.00    +0.000 S 
ATOM     14  H   UNL     1       1.033   8.314  17.446  0.00  0.00    +0.000 HD
ENDROOT
BRANCH   1  21
ATOM     15  N   UNL     1      -2.288  11.614  23.562  0.00  0.00    +0.000 NA
ATOM     16  C   UNL     1      -1.386  10.997  22.883  0.00  0.00    +0.000 C 
ATOM     17  N   UNL     1      -0.749   9.903  23.332  0.00  0.00    +0.000 N 
ATOM     18  N   UNL     1      -1.035  11.469  21.658  0.00  0.00    +0.000 N 
ATOM     19  C   UNL     1      -0.201  10.987  20.716  0.00  0.00    +0.000 A 
ATOM     20  N   UNL     1       0.440   9.831  20.753  0.00  0.00    +0.000 NA
ATOM     21  C   UNL     1       1.139   9.631  19.563  0.00  0.00    +0.000 A 
ATOM     22  C   UNL     1       1.076  10.689  18.675  0.00  0.00    +0.000 A 
ATOM     23  S   UNL     1       0.063  11.916  19.285  0.00  0.00    +0.000 S 
ATOM     24  H   UNL     1      -2.385  11.146  24.467  0.00  0.00    +0.000 HD
ATOM     25  H   UNL     1      -1.221   9.359  24.034  0.00  0.00    +0.000 HD
ATOM     26  H   UNL     1      -0.337   9.329  22.603  0.00  0.00    +0.000 HD
ATOM     27  H   UNL     1      -1.530  12.325  21.439  0.00  0.00    +0.000 HD
ENDBRANCH   1  21
BRANCH  10  28
ATOM     28  C   UNL     1       3.980   2.202  20.853  0.00  0.00    +0.000 C 
ATOM     29  N   UNL     1       5.178   1.560  20.714  0.00  0.00    +0.000 N 
ATOM     30  O   UNL     1       3.350   2.118  21.899  0.00  0.00    +0.000 OA
ATOM     31  H   UNL     1       5.833   1.758  19.973  0.00  0.00    +0.000 HD
ATOM     32  H   UNL     1       5.551   1.152  21.563  0.00  0.00    +0.000 HD
ENDBRANCH  10  28
TORSDOF 2
ENDMDL
MODEL 9
REMARK VINA RESULT:      -7.2      6.732      9.311
REMARK  Name = 
REMARK  2 active torsions:
REMARK  status: ('A' for Active; 'I' for Inactive)
REMARK    1  A    between atoms: C_7  and  C_8
REMARK    2  A    between atoms: C_17  and  C_18
REMARK                            x       y       z     vdW  Elec       q    Type
REMARK                         _______ _______ _______ _____ _____    ______ ____
ROOT
ATOM      1  C   UNL     1       3.601  14.822  18.968  0.00  0.00    +0.000 C 
ATOM      2  O   UNL     1       2.916  14.370  18.052  0.00  0.00    +0.000 OA
ATOM      3  N   UNL     1       3.222  14.868  20.311  0.00  0.00    +0.000 N 
ATOM      4  C   UNL     1       2.069  14.176  20.586  0.00  0.00    +0.000 A 
ATOM      5  N   UNL     1       2.015  12.980  21.108  0.00  0.00    +0.000 NA
ATOM      6  C   UNL     1       0.913  12.369  20.537  0.00  0.00    +0.000 A 
ATOM      7  C   UNL     1       0.694  10.983  20.449  0.00  0.00    +0.000 A 
ATOM      8  C   UNL     1       0.155  10.646  19.205  0.00  0.00    +0.000 A 
ATOM      9 CL   UNL     1       1.358  10.057  18.059  0.00  0.00    +0.000 Cl
ATOM     10  C   UNL     1      -0.882  11.418  18.668  0.00  0.00    +0.000 A 
ATOM     11  C   UNL     1      -1.070  12.730  19.131  0.00  0.00    +0.000 A 
ATOM     12  C   UNL     1       0.010  13.223  19.883  0.00  0.00    +0.000 A 
ATOM     13  S   UNL     1       0.573  14.841  20.081  0.00  0.00    +0.000 S 
ATOM     14  H   UNL     1       4.008  14.636  20.907  0.00  0.00    +0.000 HD
ENDROOT
BRANCH   1  21
ATOM     15  N   UNL     1       9.971  13.348  17.165  0.00  0.00    +0.000 NA
ATOM     16  C   UNL     1       8.717  13.573  17.341  0.00  0.00    +0.000 C 
ATOM     17  N   UNL     1       7.762  12.674  17.053  0.00  0.00    +0.000 N 
ATOM     18  N   UNL     1       8.318  14.779  17.824  0.00  0.00    +0.000 N 
ATOM     19  C   UNL     1       7.104  15.247  18.176  0.00  0.00    +0.000 A 
ATOM     20  N   UNL     1       5.975  14.559  18.202  0.00  0.00    +0.000 NA
ATOM     21  C   UNL     1       4.943  15.349  18.706  0.00  0.00    +0.000 A 
ATOM     22  C   UNL     1       5.300  16.657  18.977  0.00  0.00    +0.000 A 
ATOM     23  S   UNL     1       6.963  16.890  18.686  0.00  0.00    +0.000 S 
ATOM     24  H   UNL     1      10.077  12.416  16.756  0.00  0.00    +0.000 HD
ATOM     25  H   UNL     1       8.038  11.706  17.040  0.00  0.00    +0.000 HD
ATOM     26  H   UNL     1       6.884  12.823  17.541  0.00  0.00    +0.000 HD
ATOM     27  H   UNL     1       9.106  15.402  17.953  0.00  0.00    +0.000 HD
ENDBRANCH   1  21
BRANCH  10  28
ATOM     28  C   UNL     1      -1.641  10.856  17.524  0.00  0.00    +0.000 C 
ATOM     29  N   UNL     1      -2.080  11.715  16.557  0.00  0.00    +0.000 N 
ATOM     30  O   UNL     1      -1.863   9.655  17.435  0.00  0.00    +0.000 OA
ATOM     31  H   UNL     1      -1.753  12.665  16.466  0.00  0.00    +0.000 HD
ATOM     32  H   UNL     1      -2.457  11.274  15.726  0.00  0.00    +0.000 HD
ENDBRANCH  10  28
TORSDOF 2
ENDMDL
