MODEL 1
REMARK VINA RESULT:      -7.7      0.000      0.000
REMARK  Name = 
REMARK  13 active torsions:
REMARK  status: ('A' for Active; 'I' for Inactive)
REMARK    1  A    between atoms: C_1  and  C_2
REMARK    2  A    between atoms: N_4  and  C_5
REMARK    3  A    between atoms: C_5  and  C_6
REMARK    4  A    between atoms: C_6  and  C_7
REMARK    5  A    between atoms: C_7  and  N_8
REMARK    6  A    between atoms: C_18  and  C_19
REMARK    7  A    between atoms: C_19  and  C_21
REMARK    8  A    between atoms: C_21  and  C_22
REMARK    9  A    between atoms: C_22  and  C_23
REMARK   10  A    between atoms: C_23  and  N_24
REMARK   11  A    between atoms: N_24  and  C_25
REMARK   12  A    between atoms: N_24  and  C_26
REMARK   13  A    between atoms: C_30  and  C_31
REMARK                            x       y       z     vdW  Elec       q    Type
REMARK                         _______ _______ _______ _____ _____    ______ ____
ROOT
ATOM      1  N   UNL     1       2.930   5.556  19.371  0.00  0.00    +0.000 N 
ATOM      2  C   UNL     1       2.174   4.436  19.251  0.00  0.00    +0.000 A 
ATOM      3  C   UNL     1       0.963   4.142  19.878  0.00  0.00    +0.000 A 
ATOM      4  C   UNL     1       0.339   2.920  19.588  0.00  0.00    +0.000 A 
ATOM      5  C   UNL     1       0.937   2.007  18.694  0.00  0.00    +0.000 A 
ATOM      6  C   UNL     1       2.167   2.309  18.083  0.00  0.00    +0.000 A 
ATOM      7  C   UNL     1       2.760   3.534  18.385  0.00  0.00    +0.000 A 
ATOM      8  C   UNL     1       3.935   4.109  17.962  0.00  0.00    +0.000 A 
ATOM      9  C   UNL     1       4.919   3.644  17.095  0.00  0.00    +0.000 A 
ATOM     10  C   UNL     1       6.027   4.469  16.847  0.00  0.00    +0.000 A 
ATOM     11  C   UNL     1       6.149   5.736  17.484  0.00  0.00    +0.000 A 
ATOM     12  C   UNL     1       5.129   6.168  18.373  0.00  0.00    +0.000 A 
ATOM     13  C   UNL     1       4.025   5.336  18.586  0.00  0.00    +0.000 A 
ENDROOT
BRANCH  11  14
ATOM     14  C   UNL     1       7.322   6.622  17.216  0.00  0.00    +0.000 C 
ATOM     15  O   UNL     1       7.791   6.666  16.089  0.00  0.00    +0.000 OA
BRANCH  14  16
ATOM     16  C   UNL     1       8.030   7.392  18.313  0.00  0.00    +0.000 C 
BRANCH  16  17
ATOM     17  C   UNL     1       8.123   8.888  17.951  0.00  0.00    +0.000 C 
BRANCH  17  18
ATOM     18  C   UNL     1       9.188   9.617  18.805  0.00  0.00    +0.000 C 
BRANCH  18  19
ATOM     19  N   UNL     1       8.794  10.990  19.195  0.00  0.00    +0.000 NA
ATOM     20  C   UNL     1       9.417  11.404  20.467  0.00  0.00    +0.000 C 
ATOM     21  C   UNL     1       9.209  11.926  18.134  0.00  0.00    +0.000 C 
ENDBRANCH  18  19
ENDBRANCH  17  18
ENDBRANCH  16  17
ENDBRANCH  14  16
ENDBRANCH  11  14
BRANCH   1  22
ATOM     22  C   UNL     1       2.631   6.736  20.198  0.00  0.00    +0.000 C 
BRANCH  22  23
ATOM     23  C   UNL     1       2.001   7.890  19.389  0.00  0.00    +0.000 C 
BRANCH  23  24
ATOM     24  C   UNL     1       1.248   8.965  20.210  0.00  0.00    +0.000 C 
BRANCH  24  28
ATOM     25  C   UNL     1      -1.904  10.676  17.530  0.00  0.00    +0.000 C 
ATOM     26  C   UNL     1      -1.642  11.163  18.969  0.00  0.00    +0.000 C 
ATOM     27  C   UNL     1      -0.901  10.118  19.832  0.00  0.00    +0.000 C 
ATOM     28  N   UNL     1       0.503   9.960  19.396  0.00  0.00    +0.000 NA
ATOM     29  C   UNL     1       1.191  11.270  19.473  0.00  0.00    +0.000 C 
ATOM     30  C   UNL     1       0.488  12.304  18.574  0.00  0.00    +0.000 C 
ATOM     31  C   UNL     1       1.188  13.665  18.649  0.00  0.00    +0.000 C 
ATOM     32  N   UNL     1      -0.917  12.446  18.993  0.00  0.00    +0.000 NA
ATOM     33  H   UNL     1      -1.410  13.139  18.382  0.00  0.00    +0.000 HD
ENDBRANCH  24  28
ENDBRANCH  23  24
ENDBRANCH  22  23
ENDBRANCH   1  22
TORSDOF 9
ENDMDL
MODEL 2
REMARK VINA RESULT:      -7.7      1.137      1.867
REMARK  Name = 
REMARK  13 active torsions:
REMARK  status: ('A' for Active; 'I' for Inactive)
REMARK    1  A    between atoms: C_1  and  C_2
REMARK    2  A    between atoms: N_4  and  C_5
REMARK    3  A    between atoms: C_5  and  C_6
REMARK    4  A    between atoms: C_6  and  C_7
REMARK    5  A    between atoms: C_7  and  N_8
REMARK    6  A    between atoms: C_18  and  C_19
REMARK    7  A    between atoms: C_19  and  C_21
REMARK    8  A    between atoms: C_21  and  C_22
REMARK    9  A    between atoms: C_22  and  C_23
REMARK   10  A    between atoms: C_23  and  N_24
REMARK   11  A    between atoms: N_24  and  C_25
REMARK   12  A    between atoms: N_24  and  C_26
REMARK   13  A    between atoms: C_30  and  C_31
REMARK                            x       y       z     vdW  Elec       q    Type
REMARK                         _______ _______ _______ _____ _____    ______ ____
ROOT
ATOM      1  N   UNL     1       2.943   5.750  18.916  0.00  0.00    +0.000 N 
ATOM      2  C   UNL     1       2.359   4.525  18.924  0.00  0.00    +0.000 A 
ATOM      3  C   UNL     1       1.086   4.180  19.381  0.00  0.00    +0.000 A 
ATOM      4  C   UNL     1       0.677   2.843  19.272  0.00  0.00    +0.000 A 
ATOM      5  C   UNL     1       1.543   1.873  18.728  0.00  0.00    +0.000 A 
ATOM      6  C   UNL     1       2.831   2.231  18.289  0.00  0.00    +0.000 A 
ATOM      7  C   UNL     1       3.207   3.569  18.402  0.00  0.00    +0.000 A 
ATOM      8  C   UNL     1       4.371   4.221  18.072  0.00  0.00    +0.000 A 
ATOM      9  C   UNL     1       5.558   3.749  17.518  0.00  0.00    +0.000 A 
ATOM     10  C   UNL     1       6.592   4.668  17.286  0.00  0.00    +0.000 A 
ATOM     11  C   UNL     1       6.438   6.041  17.629  0.00  0.00    +0.000 A 
ATOM     12  C   UNL     1       5.216   6.480  18.204  0.00  0.00    +0.000 A 
ATOM     13  C   UNL     1       4.193   5.548  18.406  0.00  0.00    +0.000 A 
ENDROOT
BRANCH  11  14
ATOM     14  C   UNL     1       7.533   7.025  17.376  0.00  0.00    +0.000 C 
ATOM     15  O   UNL     1       7.922   7.203  16.231  0.00  0.00    +0.000 OA
BRANCH  14  16
ATOM     16  C   UNL     1       8.264   7.739  18.495  0.00  0.00    +0.000 C 
BRANCH  16  17
ATOM     17  C   UNL     1       8.394   9.244  18.184  0.00  0.00    +0.000 C 
BRANCH  17  18
ATOM     18  C   UNL     1       9.303   9.963  19.210  0.00  0.00    +0.000 C 
BRANCH  18  19
ATOM     19  N   UNL     1       9.196  11.438  19.161  0.00  0.00    +0.000 NA
ATOM     20  C   UNL     1       9.949  12.084  20.254  0.00  0.00    +0.000 C 
ATOM     21  C   UNL     1       9.729  11.913  17.871  0.00  0.00    +0.000 C 
ENDBRANCH  18  19
ENDBRANCH  17  18
ENDBRANCH  16  17
ENDBRANCH  14  16
ENDBRANCH  11  14
BRANCH   1  22
ATOM     22  C   UNL     1       2.350   7.012  19.387  0.00  0.00    +0.000 C 
BRANCH  22  23
ATOM     23  C   UNL     1       2.331   8.107  18.300  0.00  0.00    +0.000 C 
BRANCH  23  24
ATOM     24  C   UNL     1       1.095   9.040  18.296  0.00  0.00    +0.000 C 
BRANCH  24  28
ATOM     25  C   UNL     1       1.889  12.831  20.541  0.00  0.00    +0.000 C 
ATOM     26  C   UNL     1       0.480  12.347  20.142  0.00  0.00    +0.000 C 
ATOM     27  C   UNL     1       0.501  11.338  18.973  0.00  0.00    +0.000 C 
ATOM     28  N   UNL     1       1.067  10.038  19.396  0.00  0.00    +0.000 NA
ATOM     29  C   UNL     1       0.272   9.501  20.525  0.00  0.00    +0.000 C 
ATOM     30  C   UNL     1       0.289  10.479  21.714  0.00  0.00    +0.000 C 
ATOM     31  C   UNL     1      -0.535   9.936  22.886  0.00  0.00    +0.000 C 
ATOM     32  N   UNL     1      -0.253  11.781  21.288  0.00  0.00    +0.000 NA
ATOM     33  H   UNL     1      -0.237  12.460  22.085  0.00  0.00    +0.000 HD
ENDBRANCH  24  28
ENDBRANCH  23  24
ENDBRANCH  22  23
ENDBRANCH   1  22
TORSDOF 9
ENDMDL
MODEL 3
REMARK VINA RESULT:      -7.6      1.030      1.444
REMARK  Name = 
REMARK  13 active torsions:
REMARK  status: ('A' for Active; 'I' for Inactive)
REMARK    1  A    between atoms: C_1  and  C_2
REMARK    2  A    between atoms: N_4  and  C_5
REMARK    3  A    between atoms: C_5  and  C_6
REMARK    4  A    between atoms: C_6  and  C_7
REMARK    5  A    between atoms: C_7  and  N_8
REMARK    6  A    between atoms: C_18  and  C_19
REMARK    7  A    between atoms: C_19  and  C_21
REMARK    8  A    between atoms: C_21  and  C_22
REMARK    9  A    between atoms: C_22  and  C_23
REMARK   10  A    between atoms: C_23  and  N_24
REMARK   11  A    between atoms: N_24  and  C_25
REMARK   12  A    between atoms: N_24  and  C_26
REMARK   13  A    between atoms: C_30  and  C_31
REMARK                            x       y       z     vdW  Elec       q    Type
REMARK                         _______ _______ _______ _____ _____    ______ ____
ROOT
ATOM      1  N   UNL     1       2.950   5.700  18.922  0.00  0.00    +0.000 N 
ATOM      2  C   UNL     1       2.356   4.480  18.925  0.00  0.00    +0.000 A 
ATOM      3  C   UNL     1       1.089   4.140  19.401  0.00  0.00    +0.000 A 
ATOM      4  C   UNL     1       0.665   2.808  19.282  0.00  0.00    +0.000 A 
ATOM      5  C   UNL     1       1.513   1.838  18.709  0.00  0.00    +0.000 A 
ATOM      6  C   UNL     1       2.795   2.191  18.250  0.00  0.00    +0.000 A 
ATOM      7  C   UNL     1       3.185   3.524  18.374  0.00  0.00    +0.000 A 
ATOM      8  C   UNL     1       4.349   4.170  18.031  0.00  0.00    +0.000 A 
ATOM      9  C   UNL     1       5.520   3.695  17.449  0.00  0.00    +0.000 A 
ATOM     10  C   UNL     1       6.558   4.608  17.210  0.00  0.00    +0.000 A 
ATOM     11  C   UNL     1       6.423   5.977  17.574  0.00  0.00    +0.000 A 
ATOM     12  C   UNL     1       5.216   6.420  18.177  0.00  0.00    +0.000 A 
ATOM     13  C   UNL     1       4.189   5.494  18.386  0.00  0.00    +0.000 A 
ENDROOT
BRANCH  11  14
ATOM     14  C   UNL     1       7.522   6.955  17.312  0.00  0.00    +0.000 C 
ATOM     15  O   UNL     1       7.954   7.077  16.176  0.00  0.00    +0.000 OA
BRANCH  14  16
ATOM     16  C   UNL     1       8.205   7.731  18.421  0.00  0.00    +0.000 C 
BRANCH  16  17
ATOM     17  C   UNL     1       8.338   9.219  18.038  0.00  0.00    +0.000 C 
BRANCH  17  18
ATOM     18  C   UNL     1       9.161  10.007  19.086  0.00  0.00    +0.000 C 
BRANCH  18  19
ATOM     19  N   UNL     1       9.403  11.417  18.708  0.00  0.00    +0.000 NA
ATOM     20  C   UNL     1      10.758  11.617  18.159  0.00  0.00    +0.000 C 
ATOM     21  C   UNL     1       8.413  11.815  17.690  0.00  0.00    +0.000 C 
ENDBRANCH  18  19
ENDBRANCH  17  18
ENDBRANCH  16  17
ENDBRANCH  14  16
ENDBRANCH  11  14
BRANCH   1  22
ATOM     22  C   UNL     1       2.378   6.960  19.422  0.00  0.00    +0.000 C 
BRANCH  22  23
ATOM     23  C   UNL     1       1.734   7.809  18.305  0.00  0.00    +0.000 C 
BRANCH  23  24
ATOM     24  C   UNL     1       2.144   9.301  18.261  0.00  0.00    +0.000 C 
BRANCH  24  28
ATOM     25  C   UNL     1      -0.888  12.594  18.239  0.00  0.00    +0.000 C 
ATOM     26  C   UNL     1      -1.217  11.125  18.569  0.00  0.00    +0.000 C 
ATOM     27  C   UNL     1      -0.166  10.136  18.020  0.00  0.00    +0.000 C 
ATOM     28  N   UNL     1       1.111  10.245  18.759  0.00  0.00    +0.000 NA
ATOM     29  C   UNL     1       0.867   9.990  20.199  0.00  0.00    +0.000 C 
ATOM     30  C   UNL     1      -0.142  11.006  20.766  0.00  0.00    +0.000 C 
ATOM     31  C   UNL     1      -0.406  10.749  22.253  0.00  0.00    +0.000 C 
ATOM     32  N   UNL     1      -1.406  10.914  20.015  0.00  0.00    +0.000 NA
ATOM     33  H   UNL     1      -2.099  11.608  20.383  0.00  0.00    +0.000 HD
ENDBRANCH  24  28
ENDBRANCH  23  24
ENDBRANCH  22  23
ENDBRANCH   1  22
TORSDOF 9
ENDMDL
MODEL 4
REMARK VINA RESULT:      -7.6      0.730      1.589
REMARK  Name = 
REMARK  13 active torsions:
REMARK  status: ('A' for Active; 'I' for Inactive)
REMARK    1  A    between atoms: C_1  and  C_2
REMARK    2  A    between atoms: N_4  and  C_5
REMARK    3  A    between atoms: C_5  and  C_6
REMARK    4  A    between atoms: C_6  and  C_7
REMARK    5  A    between atoms: C_7  and  N_8
REMARK    6  A    between atoms: C_18  and  C_19
REMARK    7  A    between atoms: C_19  and  C_21
REMARK    8  A    between atoms: C_21  and  C_22
REMARK    9  A    between atoms: C_22  and  C_23
REMARK   10  A    between atoms: C_23  and  N_24
REMARK   11  A    between atoms: N_24  and  C_25
REMARK   12  A    between atoms: N_24  and  C_26
REMARK   13  A    between atoms: C_30  and  C_31
REMARK                            x       y       z     vdW  Elec       q    Type
REMARK                         _______ _______ _______ _____ _____    ______ ____
ROOT
ATOM      1  N   UNL     1       2.944   5.502  19.449  0.00  0.00    +0.000 N 
ATOM      2  C   UNL     1       2.145   4.413  19.328  0.00  0.00    +0.000 A 
ATOM      3  C   UNL     1       0.960   4.132  20.009  0.00  0.00    +0.000 A 
ATOM      4  C   UNL     1       0.280   2.943  19.706  0.00  0.00    +0.000 A 
ATOM      5  C   UNL     1       0.797   2.049  18.746  0.00  0.00    +0.000 A 
ATOM      6  C   UNL     1       2.003   2.336  18.080  0.00  0.00    +0.000 A 
ATOM      7  C   UNL     1       2.652   3.529  18.396  0.00  0.00    +0.000 A 
ATOM      8  C   UNL     1       3.822   4.082  17.932  0.00  0.00    +0.000 A 
ATOM      9  C   UNL     1       4.742   3.621  16.994  0.00  0.00    +0.000 A 
ATOM     10  C   UNL     1       5.862   4.420  16.719  0.00  0.00    +0.000 A 
ATOM     11  C   UNL     1       6.062   5.655  17.397  0.00  0.00    +0.000 A 
ATOM     12  C   UNL     1       5.106   6.083  18.356  0.00  0.00    +0.000 A 
ATOM     13  C   UNL     1       3.987   5.279  18.598  0.00  0.00    +0.000 A 
ENDROOT
BRANCH  11  14
ATOM     14  C   UNL     1       7.248   6.513  17.099  0.00  0.00    +0.000 C 
ATOM     15  O   UNL     1       7.817   6.393  16.024  0.00  0.00    +0.000 OA
BRANCH  14  16
ATOM     16  C   UNL     1       7.848   7.459  18.121  0.00  0.00    +0.000 C 
BRANCH  16  17
ATOM     17  C   UNL     1       8.291   8.774  17.448  0.00  0.00    +0.000 C 
BRANCH  17  18
ATOM     18  C   UNL     1       8.268   9.959  18.442  0.00  0.00    +0.000 C 
BRANCH  18  19
ATOM     19  N   UNL     1       9.617  10.399  18.867  0.00  0.00    +0.000 NA
ATOM     20  C   UNL     1      10.192  11.391  17.939  0.00  0.00    +0.000 C 
ATOM     21  C   UNL     1       9.521  11.001  20.210  0.00  0.00    +0.000 C 
ENDBRANCH  18  19
ENDBRANCH  17  18
ENDBRANCH  16  17
ENDBRANCH  14  16
ENDBRANCH  11  14
BRANCH   1  22
ATOM     22  C   UNL     1       2.730   6.657  20.337  0.00  0.00    +0.000 C 
BRANCH  22  23
ATOM     23  C   UNL     1       1.935   7.793  19.660  0.00  0.00    +0.000 C 
BRANCH  23  24
ATOM     24  C   UNL     1       1.057   8.660  20.595  0.00  0.00    +0.000 C 
BRANCH  24  28
ATOM     25  C   UNL     1       1.980  12.860  19.350  0.00  0.00    +0.000 C 
ATOM     26  C   UNL     1       1.326  11.814  18.426  0.00  0.00    +0.000 C 
ATOM     27  C   UNL     1       1.582  10.362  18.886  0.00  0.00    +0.000 C 
ATOM     28  N   UNL     1       0.839  10.053  20.126  0.00  0.00    +0.000 NA
ATOM     29  C   UNL     1      -0.609  10.272  19.898  0.00  0.00    +0.000 C 
ATOM     30  C   UNL     1      -0.878  11.732  19.488  0.00  0.00    +0.000 C 
ATOM     31  C   UNL     1      -2.372  11.969  19.243  0.00  0.00    +0.000 C 
ATOM     32  N   UNL     1      -0.120  12.048  18.266  0.00  0.00    +0.000 NA
ATOM     33  H   UNL     1      -0.285  13.042  17.982  0.00  0.00    +0.000 HD
ENDBRANCH  24  28
ENDBRANCH  23  24
ENDBRANCH  22  23
ENDBRANCH   1  22
TORSDOF 9
ENDMDL
MODEL 5
REMARK VINA RESULT:      -7.6      2.999      6.365
REMARK  Name = 
REMARK  13 active torsions:
REMARK  status: ('A' for Active; 'I' for Inactive)
REMARK    1  A    between atoms: C_1  and  C_2
REMARK    2  A    between atoms: N_4  and  C_5
REMARK    3  A    between atoms: C_5  and  C_6
REMARK    4  A    between atoms: C_6  and  C_7
REMARK    5  A    between atoms: C_7  and  N_8
REMARK    6  A    between atoms: C_18  and  C_19
REMARK    7  A    between atoms: C_19  and  C_21
REMARK    8  A    between atoms: C_21  and  C_22
REMARK    9  A    between atoms: C_22  and  C_23
REMARK   10  A    between atoms: C_23  and  N_24
REMARK   11  A    between atoms: N_24  and  C_25
REMARK   12  A    between atoms: N_24  and  C_26
REMARK   13  A    between atoms: C_30  and  C_31
REMARK                            x       y       z     vdW  Elec       q    Type
REMARK                         _______ _______ _______ _____ _____    ______ ____
ROOT
ATOM      1  N   UNL     1       0.794  10.497  19.570  0.00  0.00    +0.000 N 
ATOM      2  C   UNL     1       0.148  10.636  20.755  0.00  0.00    +0.000 A 
ATOM      3  C   UNL     1      -0.537  11.753  21.238  0.00  0.00    +0.000 A 
ATOM      4  C   UNL     1      -1.154  11.667  22.494  0.00  0.00    +0.000 A 
ATOM      5  C   UNL     1      -1.067  10.482  23.253  0.00  0.00    +0.000 A 
ATOM      6  C   UNL     1      -0.357   9.370  22.763  0.00  0.00    +0.000 A 
ATOM      7  C   UNL     1       0.239   9.482  21.507  0.00  0.00    +0.000 A 
ATOM      8  C   UNL     1       0.985   8.595  20.769  0.00  0.00    +0.000 A 
ATOM      9  C   UNL     1       1.391   7.292  21.043  0.00  0.00    +0.000 A 
ATOM     10  C   UNL     1       2.158   6.621  20.079  0.00  0.00    +0.000 A 
ATOM     11  C   UNL     1       2.529   7.265  18.865  0.00  0.00    +0.000 A 
ATOM     12  C   UNL     1       2.106   8.600  18.629  0.00  0.00    +0.000 A 
ATOM     13  C   UNL     1       1.324   9.239  19.597  0.00  0.00    +0.000 A 
ENDROOT
BRANCH  11  14
ATOM     14  C   UNL     1       3.338   6.551  17.831  0.00  0.00    +0.000 C 
ATOM     15  O   UNL     1       4.052   7.199  17.080  0.00  0.00    +0.000 OA
BRANCH  14  16
ATOM     16  C   UNL     1       3.230   5.057  17.599  0.00  0.00    +0.000 C 
BRANCH  16  17
ATOM     17  C   UNL     1       4.525   4.512  16.965  0.00  0.00    +0.000 C 
BRANCH  17  18
ATOM     18  C   UNL     1       5.625   4.275  18.027  0.00  0.00    +0.000 C 
BRANCH  18  19
ATOM     19  N   UNL     1       6.981   4.654  17.569  0.00  0.00    +0.000 NA
ATOM     20  C   UNL     1       7.081   4.675  16.097  0.00  0.00    +0.000 C 
ATOM     21  C   UNL     1       7.303   5.996  18.089  0.00  0.00    +0.000 C 
ENDBRANCH  18  19
ENDBRANCH  17  18
ENDBRANCH  16  17
ENDBRANCH  14  16
ENDBRANCH  11  14
BRANCH   1  22
ATOM     22  C   UNL     1       0.910  11.507  18.506  0.00  0.00    +0.000 C 
BRANCH  22  23
ATOM     23  C   UNL     1       2.175  12.380  18.646  0.00  0.00    +0.000 C 
BRANCH  23  24
ATOM     24  C   UNL     1       2.133  13.468  19.748  0.00  0.00    +0.000 C 
BRANCH  24  28
ATOM     25  C   UNL     1       5.038  16.803  19.060  0.00  0.00    +0.000 C 
ATOM     26  C   UNL     1       4.268  16.088  17.932  0.00  0.00    +0.000 C 
ATOM     27  C   UNL     1       3.755  14.692  18.346  0.00  0.00    +0.000 C 
ATOM     28  N   UNL     1       2.656  14.794  19.331  0.00  0.00    +0.000 NA
ATOM     29  C   UNL     1       1.552  15.596  18.752  0.00  0.00    +0.000 C 
ATOM     30  C   UNL     1       2.044  17.009  18.383  0.00  0.00    +0.000 C 
ATOM     31  C   UNL     1       0.912  17.846  17.778  0.00  0.00    +0.000 C 
ATOM     32  N   UNL     1       3.154  16.907  17.421  0.00  0.00    +0.000 NA
ATOM     33  H   UNL     1       3.506  17.861  17.169  0.00  0.00    +0.000 HD
ENDBRANCH  24  28
ENDBRANCH  23  24
ENDBRANCH  22  23
ENDBRANCH   1  22
TORSDOF 9
ENDMDL
MODEL 6
REMARK VINA RESULT:      -7.6      3.294      7.035
REMARK  Name = 
REMARK  13 active torsions:
REMARK  status: ('A' for Active; 'I' for Inactive)
REMARK    1  A    between atoms: C_1  and  C_2
REMARK    2  A    between atoms: N_4  and  C_5
REMARK    3  A    between atoms: C_5  and  C_6
REMARK    4  A    between atoms: C_6  and  C_7
REMARK    5  A    between atoms: C_7  and  N_8
REMARK    6  A    between atoms: C_18  and  C_19
REMARK    7  A    between atoms: C_19  and  C_21
REMARK    8  A    between atoms: C_21  and  C_22
REMARK    9  A    between atoms: C_22  and  C_23
REMARK   10  A    between atoms: C_23  and  N_24
REMARK   11  A    between atoms: N_24  and  C_25
REMARK   12  A    between atoms: N_24  and  C_26
REMARK   13  A    between atoms: C_30  and  C_31
REMARK                            x       y       z     vdW  Elec       q    Type
REMARK                         _______ _______ _______ _____ _____    ______ ____
ROOT
ATOM      1  N   UNL     1       0.745  10.511  19.563  0.00  0.00    +0.000 N 
ATOM      2  C   UNL     1       0.103  10.649  20.750  0.00  0.00    +0.000 A 
ATOM      3  C   UNL     1      -0.594  11.758  21.230  0.00  0.00    +0.000 A 
ATOM      4  C   UNL     1      -1.204  11.671  22.490  0.00  0.00    +0.000 A 
ATOM      5  C   UNL     1      -1.098  10.491  23.255  0.00  0.00    +0.000 A 
ATOM      6  C   UNL     1      -0.376   9.387  22.767  0.00  0.00    +0.000 A 
ATOM      7  C   UNL     1       0.213   9.500  21.508  0.00  0.00    +0.000 A 
ATOM      8  C   UNL     1       0.968   8.619  20.771  0.00  0.00    +0.000 A 
ATOM      9  C   UNL     1       1.392   7.323  21.050  0.00  0.00    +0.000 A 
ATOM     10  C   UNL     1       2.163   6.657  20.085  0.00  0.00    +0.000 A 
ATOM     11  C   UNL     1       2.520   7.299  18.866  0.00  0.00    +0.000 A 
ATOM     12  C   UNL     1       2.078   8.627  18.626  0.00  0.00    +0.000 A 
ATOM     13  C   UNL     1       1.292   9.261  19.594  0.00  0.00    +0.000 A 
ENDROOT
BRANCH  11  14
ATOM     14  C   UNL     1       3.333   6.590  17.833  0.00  0.00    +0.000 C 
ATOM     15  O   UNL     1       4.039   7.243  17.078  0.00  0.00    +0.000 OA
BRANCH  14  16
ATOM     16  C   UNL     1       3.238   5.095  17.604  0.00  0.00    +0.000 C 
BRANCH  16  17
ATOM     17  C   UNL     1       1.773   4.624  17.703  0.00  0.00    +0.000 C 
BRANCH  17  18
ATOM     18  C   UNL     1       1.652   3.299  18.493  0.00  0.00    +0.000 C 
BRANCH  18  19
ATOM     19  N   UNL     1       2.904   2.903  19.178  0.00  0.00    +0.000 NA
ATOM     20  C   UNL     1       2.722   2.788  20.638  0.00  0.00    +0.000 C 
ATOM     21  C   UNL     1       3.347   1.601  18.648  0.00  0.00    +0.000 C 
ENDBRANCH  18  19
ENDBRANCH  17  18
ENDBRANCH  16  17
ENDBRANCH  14  16
ENDBRANCH  11  14
BRANCH   1  22
ATOM     22  C   UNL     1       0.844  11.518  18.493  0.00  0.00    +0.000 C 
BRANCH  22  23
ATOM     23  C   UNL     1       2.120  12.379  18.598  0.00  0.00    +0.000 C 
BRANCH  23  24
ATOM     24  C   UNL     1       2.125  13.455  19.711  0.00  0.00    +0.000 C 
BRANCH  24  28
ATOM     25  C   UNL     1       5.025  16.770  18.904  0.00  0.00    +0.000 C 
ATOM     26  C   UNL     1       4.175  16.087  17.814  0.00  0.00    +0.000 C 
ATOM     27  C   UNL     1       3.671  14.688  18.233  0.00  0.00    +0.000 C 
ATOM     28  N   UNL     1       2.638  14.784  19.287  0.00  0.00    +0.000 NA
ATOM     29  C   UNL     1       1.511  15.610  18.795  0.00  0.00    +0.000 C 
ATOM     30  C   UNL     1       1.996  17.024  18.423  0.00  0.00    +0.000 C 
ATOM     31  C   UNL     1       0.840  17.886  17.908  0.00  0.00    +0.000 C 
ATOM     32  N   UNL     1       3.042  16.928  17.390  0.00  0.00    +0.000 NA
ATOM     33  H   UNL     1       3.390  17.883  17.136  0.00  0.00    +0.000 HD
ENDBRANCH  24  28
ENDBRANCH  23  24
ENDBRANCH  22  23
ENDBRANCH   1  22
TORSDOF 9
ENDMDL
MODEL 7
REMARK VINA RESULT:      -7.5      1.259      1.813
REMARK  Name = 
REMARK  13 active torsions:
REMARK  status: ('A' for Active; 'I' for Inactive)
REMARK    1  A    between atoms: C_1  and  C_2
REMARK    2  A    between atoms: N_4  and  C_5
REMARK    3  A    between atoms: C_5  and  C_6
REMARK    4  A    between atoms: C_6  and  C_7
REMARK    5  A    between atoms: C_7  and  N_8
REMARK    6  A    between atoms: C_18  and  C_19
REMARK    7  A    between atoms: C_19  and  C_21
REMARK    8  A    between atoms: C_21  and  C_22
REMARK    9  A    between atoms: C_22  and  C_23
REMARK   10  A    between atoms: C_23  and  N_24
REMARK   11  A    between atoms: N_24  and  C_25
REMARK   12  A    between atoms: N_24  and  C_26
REMARK   13  A    between atoms: C_30  and  C_31
REMARK                            x       y       z     vdW  Elec       q    Type
REMARK                         _______ _______ _______ _____ _____    ______ ____
ROOT
ATOM      1  N   UNL     1       2.850   5.665  18.603  0.00  0.00    +0.000 N 
ATOM      2  C   UNL     1       2.329   4.420  18.743  0.00  0.00    +0.000 A 
ATOM      3  C   UNL     1       1.030   4.065  19.109  0.00  0.00    +0.000 A 
ATOM      4  C   UNL     1       0.702   2.703  19.172  0.00  0.00    +0.000 A 
ATOM      5  C   UNL     1       1.672   1.721  18.885  0.00  0.00    +0.000 A 
ATOM      6  C   UNL     1       2.983   2.092  18.536  0.00  0.00    +0.000 A 
ATOM      7  C   UNL     1       3.278   3.454  18.474  0.00  0.00    +0.000 A 
ATOM      8  C   UNL     1       4.440   4.123  18.171  0.00  0.00    +0.000 A 
ATOM      9  C   UNL     1       5.704   3.652  17.831  0.00  0.00    +0.000 A 
ATOM     10  C   UNL     1       6.713   4.592  17.569  0.00  0.00    +0.000 A 
ATOM     11  C   UNL     1       6.453   5.987  17.670  0.00  0.00    +0.000 A 
ATOM     12  C   UNL     1       5.152   6.427  18.032  0.00  0.00    +0.000 A 
ATOM     13  C   UNL     1       4.159   5.471  18.268  0.00  0.00    +0.000 A 
ENDROOT
BRANCH  11  14
ATOM     14  C   UNL     1       7.521   6.991  17.382  0.00  0.00    +0.000 C 
ATOM     15  O   UNL     1       7.949   7.097  16.242  0.00  0.00    +0.000 OA
BRANCH  14  16
ATOM     16  C   UNL     1       8.180   7.817  18.469  0.00  0.00    +0.000 C 
BRANCH  16  17
ATOM     17  C   UNL     1       8.244   9.302  18.058  0.00  0.00    +0.000 C 
BRANCH  17  18
ATOM     18  C   UNL     1       9.248  10.093  18.930  0.00  0.00    +0.000 C 
BRANCH  18  19
ATOM     19  N   UNL     1       9.907  11.206  18.210  0.00  0.00    +0.000 NA
ATOM     20  C   UNL     1       8.974  12.313  17.929  0.00  0.00    +0.000 C 
ATOM     21  C   UNL     1      11.019  11.716  19.034  0.00  0.00    +0.000 C 
ENDBRANCH  18  19
ENDBRANCH  17  18
ENDBRANCH  16  17
ENDBRANCH  14  16
ENDBRANCH  11  14
BRANCH   1  22
ATOM     22  C   UNL     1       2.145   6.942  18.800  0.00  0.00    +0.000 C 
BRANCH  22  23
ATOM     23  C   UNL     1       2.234   7.456  20.252  0.00  0.00    +0.000 C 
BRANCH  23  24
ATOM     24  C   UNL     1       0.915   7.978  20.872  0.00  0.00    +0.000 C 
BRANCH  24  28
ATOM     25  C   UNL     1       1.458  12.222  19.555  0.00  0.00    +0.000 C 
ATOM     26  C   UNL     1       0.113  11.469  19.498  0.00  0.00    +0.000 C 
ATOM     27  C   UNL     1       0.283   9.934  19.507  0.00  0.00    +0.000 C 
ATOM     28  N   UNL     1       0.747   9.453  20.826  0.00  0.00    +0.000 NA
ATOM     29  C   UNL     1      -0.221   9.869  21.868  0.00  0.00    +0.000 C 
ATOM     30  C   UNL     1      -0.357  11.403  21.900  0.00  0.00    +0.000 C 
ATOM     31  C   UNL     1      -1.360  11.845  22.970  0.00  0.00    +0.000 C 
ATOM     32  N   UNL     1      -0.797  11.886  20.579  0.00  0.00    +0.000 NA
ATOM     33  H   UNL     1      -0.883  12.929  20.584  0.00  0.00    +0.000 HD
ENDBRANCH  24  28
ENDBRANCH  23  24
ENDBRANCH  22  23
ENDBRANCH   1  22
TORSDOF 9
ENDMDL
MODEL 8
REMARK VINA RESULT:      -7.5      1.240      1.813
REMARK  Name = 
REMARK  13 active torsions:
REMARK  status: ('A' for Active; 'I' for Inactive)
REMARK    1  A    between atoms: C_1  and  C_2
REMARK    2  A    between atoms: N_4  and  C_5
REMARK    3  A    between atoms: C_5  and  C_6
REMARK    4  A    between atoms: C_6  and  C_7
REMARK    5  A    between atoms: C_7  and  N_8
REMARK    6  A    between atoms: C_18  and  C_19
REMARK    7  A    between atoms: C_19  and  C_21
REMARK    8  A    between atoms: C_21  and  C_22
REMARK    9  A    between atoms: C_22  and  C_23
REMARK   10  A    between atoms: C_23  and  N_24
REMARK   11  A    between atoms: N_24  and  C_25
REMARK   12  A    between atoms: N_24  and  C_26
REMARK   13  A    between atoms: C_30  and  C_31
REMARK                            x       y       z     vdW  Elec       q    Type
REMARK                         _______ _______ _______ _____ _____    ______ ____
ROOT
ATOM      1  N   UNL     1       2.921   5.728  17.996  0.00  0.00    +0.000 N 
ATOM      2  C   UNL     1       2.456   4.509  18.368  0.00  0.00    +0.000 A 
ATOM      3  C   UNL     1       1.129   4.101  18.514  0.00  0.00    +0.000 A 
ATOM      4  C   UNL     1       0.876   2.774  18.892  0.00  0.00    +0.000 A 
ATOM      5  C   UNL     1       1.943   1.885  19.135  0.00  0.00    +0.000 A 
ATOM      6  C   UNL     1       3.276   2.315  19.003  0.00  0.00    +0.000 A 
ATOM      7  C   UNL     1       3.496   3.637  18.617  0.00  0.00    +0.000 A 
ATOM      8  C   UNL     1       4.656   4.345  18.408  0.00  0.00    +0.000 A 
ATOM      9  C   UNL     1       5.991   3.967  18.519  0.00  0.00    +0.000 A 
ATOM     10  C   UNL     1       6.976   4.925  18.233  0.00  0.00    +0.000 A 
ATOM     11  C   UNL     1       6.618   6.251  17.862  0.00  0.00    +0.000 A 
ATOM     12  C   UNL     1       5.244   6.600  17.773  0.00  0.00    +0.000 A 
ATOM     13  C   UNL     1       4.281   5.622  18.042  0.00  0.00    +0.000 A 
ENDROOT
BRANCH  11  14
ATOM     14  C   UNL     1       7.663   7.271  17.548  0.00  0.00    +0.000 C 
ATOM     15  O   UNL     1       8.027   7.415  16.390  0.00  0.00    +0.000 OA
BRANCH  14  16
ATOM     16  C   UNL     1       8.377   8.066  18.623  0.00  0.00    +0.000 C 
BRANCH  16  17
ATOM     17  C   UNL     1       8.487   9.550  18.216  0.00  0.00    +0.000 C 
BRANCH  17  18
ATOM     18  C   UNL     1       9.292  10.368  19.254  0.00  0.00    +0.000 C 
BRANCH  18  19
ATOM     19  N   UNL     1       9.604  11.744  18.807  0.00  0.00    +0.000 NA
ATOM     20  C   UNL     1      10.060  12.597  19.921  0.00  0.00    +0.000 C 
ATOM     21  C   UNL     1      10.667  11.685  17.786  0.00  0.00    +0.000 C 
ENDBRANCH  18  19
ENDBRANCH  17  18
ENDBRANCH  16  17
ENDBRANCH  14  16
ENDBRANCH  11  14
BRANCH   1  22
ATOM     22  C   UNL     1       2.116   6.909  17.646  0.00  0.00    +0.000 C 
BRANCH  22  23
ATOM     23  C   UNL     1       2.078   7.962  18.774  0.00  0.00    +0.000 C 
BRANCH  23  24
ATOM     24  C   UNL     1       1.705   9.403  18.347  0.00  0.00    +0.000 C 
BRANCH  24  28
ATOM     25  C   UNL     1      -0.396  10.987  21.969  0.00  0.00    +0.000 C 
ATOM     26  C   UNL     1       0.029  11.860  20.772  0.00  0.00    +0.000 C 
ATOM     27  C   UNL     1       1.150  11.216  19.927  0.00  0.00    +0.000 C 
ATOM     28  N   UNL     1       0.652  10.044  19.177  0.00  0.00    +0.000 NA
ATOM     29  C   UNL     1      -0.473  10.461  18.306  0.00  0.00    +0.000 C 
ATOM     30  C   UNL     1      -1.617  11.057  19.146  0.00  0.00    +0.000 C 
ATOM     31  C   UNL     1      -2.783  11.497  18.256  0.00  0.00    +0.000 C 
ATOM     32  N   UNL     1      -1.116  12.211  19.913  0.00  0.00    +0.000 NA
ATOM     33  H   UNL     1      -1.882  12.619  20.498  0.00  0.00    +0.000 HD
ENDBRANCH  24  28
ENDBRANCH  23  24
ENDBRANCH  22  23
ENDBRANCH   1  22
TORSDOF 9
ENDMDL
MODEL 9
REMARK VINA RESULT:      -7.4      0.937      1.766
REMARK  Name = 
REMARK  13 active torsions:
REMARK  status: ('A' for Active; 'I' for Inactive)
REMARK    1  A    between atoms: C_1  and  C_2
REMARK    2  A    between atoms: N_4  and  C_5
REMARK    3  A    between atoms: C_5  and  C_6
REMARK    4  A    between atoms: C_6  and  C_7
REMARK    5  A    between atoms: C_7  and  N_8
REMARK    6  A    between atoms: C_18  and  C_19
REMARK    7  A    between atoms: C_19  and  C_21
REMARK    8  A    between atoms: C_21  and  C_22
REMARK    9  A    between atoms: C_22  and  C_23
REMARK   10  A    between atoms: C_23  and  N_24
REMARK   11  A    between atoms: N_24  and  C_25
REMARK   12  A    between atoms: N_24  and  C_26
REMARK   13  A    between atoms: C_30  and  C_31
REMARK                            x       y       z     vdW  Elec       q    Type
REMARK                         _______ _______ _______ _____ _____    ______ ____
ROOT
ATOM      1  N   UNL     1       2.929   5.761  18.872  0.00  0.00    +0.000 N 
ATOM      2  C   UNL     1       2.384   4.519  18.894  0.00  0.00    +0.000 A 
ATOM      3  C   UNL     1       1.106   4.145  19.313  0.00  0.00    +0.000 A 
ATOM      4  C   UNL     1       0.743   2.793  19.229  0.00  0.00    +0.000 A 
ATOM      5  C   UNL     1       1.660   1.837  18.746  0.00  0.00    +0.000 A 
ATOM      6  C   UNL     1       2.951   2.224  18.344  0.00  0.00    +0.000 A 
ATOM      7  C   UNL     1       3.281   3.576  18.432  0.00  0.00    +0.000 A 
ATOM      8  C   UNL     1       4.436   4.256  18.126  0.00  0.00    +0.000 A 
ATOM      9  C   UNL     1       5.657   3.807  17.631  0.00  0.00    +0.000 A 
ATOM     10  C   UNL     1       6.670   4.753  17.411  0.00  0.00    +0.000 A 
ATOM     11  C   UNL     1       6.460   6.129  17.708  0.00  0.00    +0.000 A 
ATOM     12  C   UNL     1       5.204   6.544  18.224  0.00  0.00    +0.000 A 
ATOM     13  C   UNL     1       4.203   5.585  18.414  0.00  0.00    +0.000 A 
ENDROOT
BRANCH  11  14
ATOM     14  C   UNL     1       7.532   7.140  17.466  0.00  0.00    +0.000 C 
ATOM     15  O   UNL     1       7.956   7.301  16.331  0.00  0.00    +0.000 OA
BRANCH  14  16
ATOM     16  C   UNL     1       8.201   7.906  18.591  0.00  0.00    +0.000 C 
BRANCH  16  17
ATOM     17  C   UNL     1       8.394   9.385  18.199  0.00  0.00    +0.000 C 
BRANCH  17  18
ATOM     18  C   UNL     1       9.564  10.033  18.978  0.00  0.00    +0.000 C 
BRANCH  18  19
ATOM     19  N   UNL     1       9.606  11.508  18.862  0.00  0.00    +0.000 NA
ATOM     20  C   UNL     1       8.728  12.003  17.784  0.00  0.00    +0.000 C 
ATOM     21  C   UNL     1       9.171  12.100  20.140  0.00  0.00    +0.000 C 
ENDBRANCH  18  19
ENDBRANCH  17  18
ENDBRANCH  16  17
ENDBRANCH  14  16
ENDBRANCH  11  14
BRANCH   1  22
ATOM     22  C   UNL     1       2.279   7.016  19.284  0.00  0.00    +0.000 C 
BRANCH  22  23
ATOM     23  C   UNL     1       1.902   7.915  18.088  0.00  0.00    +0.000 C 
BRANCH  23  24
ATOM     24  C   UNL     1       2.172   9.429  18.263  0.00  0.00    +0.000 C 
BRANCH  24  28
ATOM     25  C   UNL     1      -0.358  12.528  20.272  0.00  0.00    +0.000 C 
ATOM     26  C   UNL     1      -0.086  12.492  18.755  0.00  0.00    +0.000 C 
ATOM     27  C   UNL     1       1.180  11.686  18.390  0.00  0.00    +0.000 C 
ATOM     28  N   UNL     1       0.975  10.238  18.610  0.00  0.00    +0.000 NA
ATOM     29  C   UNL     1      -0.178   9.778  17.801  0.00  0.00    +0.000 C 
ATOM     30  C   UNL     1      -1.456  10.542  18.194  0.00  0.00    +0.000 C 
ATOM     31  C   UNL     1      -2.654  10.079  17.360  0.00  0.00    +0.000 C 
ATOM     32  N   UNL     1      -1.245  11.987  17.998  0.00  0.00    +0.000 NA
ATOM     33  H   UNL     1      -2.103  12.520  18.273  0.00  0.00    +0.000 HD
ENDBRANCH  24  28
ENDBRANCH  23  24
ENDBRANCH  22  23
ENDBRANCH   1  22
TORSDOF 9
ENDMDL
