MODEL 1
REMARK VINA RESULT:      -7.0      0.000      0.000
REMARK  Name = 
REMARK  8 active torsions:
REMARK  status: ('A' for Active; 'I' for Inactive)
REMARK    1  A    between atoms: C_1  and  C_2
REMARK    2  A    between atoms: C_2  and  C_3
REMARK    3  A    between atoms: C_2  and  S_4
REMARK    4  A    between atoms: S_4  and  C_5
REMARK    5  A    between atoms: C_7  and  O_8
REMARK    6  A    between atoms: C_10  and  C_11
REMARK    7  A    between atoms: C_11  and  C_12
REMARK    8  A    between atoms: C_11  and  C_13
REMARK                            x       y       z     vdW  Elec       q    Type
REMARK                         _______ _______ _______ _____ _____    ______ ____
ROOT
ATOM      1  C   UNL     1       5.674   4.807  15.641  0.00  0.00    +0.000 A 
ATOM      2  N   UNL     1       6.883   4.388  16.043  0.00  0.00    +0.000 NA
ATOM      3  C   UNL     1       7.078   4.440  17.363  0.00  0.00    +0.000 A 
ATOM      4  C   UNL     1       6.175   4.869  18.305  0.00  0.00    +0.000 A 
ATOM      5  C   UNL     1       4.966   5.292  17.796  0.00  0.00    +0.000 A 
ATOM      6  N   UNL     1       4.713   5.276  16.463  0.00  0.00    +0.000 NA
ENDROOT
BRANCH   3   7
ATOM      7  O   UNL     1       8.326   4.071  17.763  0.00  0.00    +0.000 OA
ATOM      8  H   UNL     1       8.408   3.196  17.344  0.00  0.00    +0.000 HD
ENDBRANCH   3   7
BRANCH   5   9
ATOM      9  C   UNL     1       3.885   5.876  18.705  0.00  0.00    +0.000 C 
ATOM     10  C   UNL     1       3.238   7.080  17.995  0.00  0.00    +0.000 C 
BRANCH   9  11
ATOM     11  C   UNL     1       2.840   4.860  19.171  0.00  0.00    +0.000 A 
ATOM     12  C   UNL     1       2.479   4.756  20.527  0.00  0.00    +0.000 A 
ATOM     13  C   UNL     1       1.476   3.865  20.940  0.00  0.00    +0.000 A 
ATOM     14  C   UNL     1       0.811   3.072  20.007  0.00  0.00    +0.000 A 
ATOM     15  C   UNL     1       1.169   3.153  18.662  0.00  0.00    +0.000 A 
ATOM     16  C   UNL     1       2.178   4.029  18.253  0.00  0.00    +0.000 A 
ENDBRANCH   9  11
ENDBRANCH   5   9
BRANCH   1  17
ATOM     17  S   UNL     1       5.301   4.775  13.899  0.00  0.00    +0.000 S 
BRANCH  17  19
ATOM     18  C   UNL     1       6.543   3.115  12.086  0.00  0.00    +0.000 C 
ATOM     19  C   UNL     1       6.865   4.062  13.237  0.00  0.00    +0.000 C 
ATOM     20  C   UNL     1       7.788   5.178  12.728  0.00  0.00    +0.000 C 
ENDBRANCH  17  19
ENDBRANCH   1  17
TORSDOF 5
ENDMDL
MODEL 2
REMARK VINA RESULT:      -7.0      1.330      2.236
REMARK  Name = 
REMARK  8 active torsions:
REMARK  status: ('A' for Active; 'I' for Inactive)
REMARK    1  A    between atoms: C_1  and  C_2
REMARK    2  A    between atoms: C_2  and  C_3
REMARK    3  A    between atoms: C_2  and  S_4
REMARK    4  A    between atoms: S_4  and  C_5
REMARK    5  A    between atoms: C_7  and  O_8
REMARK    6  A    between atoms: C_10  and  C_11
REMARK    7  A    between atoms: C_11  and  C_12
REMARK    8  A    between atoms: C_11  and  C_13
REMARK                            x       y       z     vdW  Elec       q    Type
REMARK                         _______ _______ _______ _____ _____    ______ ____
ROOT
ATOM      1  C   UNL     1       6.443   4.557  15.228  0.00  0.00    +0.000 A 
ATOM      2  N   UNL     1       7.446   4.641  16.115  0.00  0.00    +0.000 NA
ATOM      3  C   UNL     1       7.079   4.458  17.387  0.00  0.00    +0.000 A 
ATOM      4  C   UNL     1       5.809   4.200  17.840  0.00  0.00    +0.000 A 
ATOM      5  C   UNL     1       4.844   4.145  16.857  0.00  0.00    +0.000 A 
ATOM      6  N   UNL     1       5.152   4.336  15.549  0.00  0.00    +0.000 NA
ENDROOT
BRANCH   3   7
ATOM      7  O   UNL     1       8.087   4.603  18.291  0.00  0.00    +0.000 OA
ATOM      8  H   UNL     1       8.419   5.490  18.063  0.00  0.00    +0.000 HD
ENDBRANCH   3   7
BRANCH   5   9
ATOM      9  C   UNL     1       3.369   3.948  17.205  0.00  0.00    +0.000 C 
ATOM     10  C   UNL     1       3.157   2.491  17.658  0.00  0.00    +0.000 C 
BRANCH   9  11
ATOM     11  C   UNL     1       2.826   4.948  18.229  0.00  0.00    +0.000 A 
ATOM     12  C   UNL     1       2.245   4.513  19.434  0.00  0.00    +0.000 A 
ATOM     13  C   UNL     1       1.805   5.435  20.396  0.00  0.00    +0.000 A 
ATOM     14  C   UNL     1       1.945   6.804  20.176  0.00  0.00    +0.000 A 
ATOM     15  C   UNL     1       2.505   7.249  18.980  0.00  0.00    +0.000 A 
ATOM     16  C   UNL     1       2.930   6.332  18.016  0.00  0.00    +0.000 A 
ENDBRANCH   9  11
ENDBRANCH   5   9
BRANCH   1  17
ATOM     17  S   UNL     1       6.820   4.778  13.500  0.00  0.00    +0.000 S 
BRANCH  17  19
ATOM     18  C   UNL     1       4.703   3.677  12.126  0.00  0.00    +0.000 C 
ATOM     19  C   UNL     1       6.016   3.281  12.791  0.00  0.00    +0.000 C 
ATOM     20  C   UNL     1       6.932   2.627  11.748  0.00  0.00    +0.000 C 
ENDBRANCH  17  19
ENDBRANCH   1  17
TORSDOF 5
ENDMDL
MODEL 3
REMARK VINA RESULT:      -6.9      1.374      2.332
REMARK  Name = 
REMARK  8 active torsions:
REMARK  status: ('A' for Active; 'I' for Inactive)
REMARK    1  A    between atoms: C_1  and  C_2
REMARK    2  A    between atoms: C_2  and  C_3
REMARK    3  A    between atoms: C_2  and  S_4
REMARK    4  A    between atoms: S_4  and  C_5
REMARK    5  A    between atoms: C_7  and  O_8
REMARK    6  A    between atoms: C_10  and  C_11
REMARK    7  A    between atoms: C_11  and  C_12
REMARK    8  A    between atoms: C_11  and  C_13
REMARK                            x       y       z     vdW  Elec       q    Type
REMARK                         _______ _______ _______ _____ _____    ______ ____
ROOT
ATOM      1  C   UNL     1       6.570   4.666  15.366  0.00  0.00    +0.000 A 
ATOM      2  N   UNL     1       7.550   4.672  16.281  0.00  0.00    +0.000 NA
ATOM      3  C   UNL     1       7.136   4.510  17.541  0.00  0.00    +0.000 A 
ATOM      4  C   UNL     1       5.837   4.344  17.956  0.00  0.00    +0.000 A 
ATOM      5  C   UNL     1       4.899   4.366  16.946  0.00  0.00    +0.000 A 
ATOM      6  N   UNL     1       5.258   4.539  15.649  0.00  0.00    +0.000 NA
ENDROOT
BRANCH   3   7
ATOM      7  O   UNL     1       8.125   4.576  18.473  0.00  0.00    +0.000 OA
ATOM      8  H   UNL     1       7.608   4.705  19.288  0.00  0.00    +0.000 HD
ENDBRANCH   3   7
BRANCH   5   9
ATOM      9  C   UNL     1       3.404   4.277  17.251  0.00  0.00    +0.000 C 
ATOM     10  C   UNL     1       3.064   2.825  17.642  0.00  0.00    +0.000 C 
BRANCH   9  11
ATOM     11  C   UNL     1       2.916   5.278  18.300  0.00  0.00    +0.000 A 
ATOM     12  C   UNL     1       2.882   6.658  18.028  0.00  0.00    +0.000 A 
ATOM     13  C   UNL     1       2.376   7.566  18.971  0.00  0.00    +0.000 A 
ATOM     14  C   UNL     1       1.888   7.112  20.195  0.00  0.00    +0.000 A 
ATOM     15  C   UNL     1       1.930   5.749  20.484  0.00  0.00    +0.000 A 
ATOM     16  C   UNL     1       2.447   4.847  19.550  0.00  0.00    +0.000 A 
ENDBRANCH   9  11
ENDBRANCH   5   9
BRANCH   1  17
ATOM     17  S   UNL     1       7.011   4.867  13.651  0.00  0.00    +0.000 S 
BRANCH  17  19
ATOM     18  C   UNL     1       4.843   3.714  12.405  0.00  0.00    +0.000 C 
ATOM     19  C   UNL     1       6.231   3.363  12.929  0.00  0.00    +0.000 C 
ATOM     20  C   UNL     1       7.083   2.821  11.773  0.00  0.00    +0.000 C 
ENDBRANCH  17  19
ENDBRANCH   1  17
TORSDOF 5
ENDMDL
MODEL 4
REMARK VINA RESULT:      -6.9      2.392      6.663
REMARK  Name = 
REMARK  8 active torsions:
REMARK  status: ('A' for Active; 'I' for Inactive)
REMARK    1  A    between atoms: C_1  and  C_2
REMARK    2  A    between atoms: C_2  and  C_3
REMARK    3  A    between atoms: C_2  and  S_4
REMARK    4  A    between atoms: S_4  and  C_5
REMARK    5  A    between atoms: C_7  and  O_8
REMARK    6  A    between atoms: C_10  and  C_11
REMARK    7  A    between atoms: C_11  and  C_12
REMARK    8  A    between atoms: C_11  and  C_13
REMARK                            x       y       z     vdW  Elec       q    Type
REMARK                         _______ _______ _______ _____ _____    ______ ____
ROOT
ATOM      1  C   UNL     1       3.830   4.306  18.385  0.00  0.00    +0.000 A 
ATOM      2  N   UNL     1       3.015   5.368  18.470  0.00  0.00    +0.000 NA
ATOM      3  C   UNL     1       3.431   6.444  17.796  0.00  0.00    +0.000 A 
ATOM      4  C   UNL     1       4.581   6.544  17.051  0.00  0.00    +0.000 A 
ATOM      5  C   UNL     1       5.360   5.408  17.034  0.00  0.00    +0.000 A 
ATOM      6  N   UNL     1       4.997   4.288  17.710  0.00  0.00    +0.000 NA
ENDROOT
BRANCH   3   7
ATOM      7  O   UNL     1       2.633   7.538  17.932  0.00  0.00    +0.000 OA
ATOM      8  H   UNL     1       1.752   7.126  17.970  0.00  0.00    +0.000 HD
ENDBRANCH   3   7
BRANCH   5   9
ATOM      9  C   UNL     1       6.711   5.384  16.320  0.00  0.00    +0.000 C 
ATOM     10  C   UNL     1       7.698   4.543  17.153  0.00  0.00    +0.000 C 
BRANCH   9  11
ATOM     11  C   UNL     1       6.645   4.909  14.866  0.00  0.00    +0.000 A 
ATOM     12  C   UNL     1       7.601   5.323  13.921  0.00  0.00    +0.000 A 
ATOM     13  C   UNL     1       7.571   4.835  12.605  0.00  0.00    +0.000 A 
ATOM     14  C   UNL     1       6.593   3.923  12.214  0.00  0.00    +0.000 A 
ATOM     15  C   UNL     1       5.630   3.517  13.136  0.00  0.00    +0.000 A 
ATOM     16  C   UNL     1       5.652   4.012  14.442  0.00  0.00    +0.000 A 
ENDBRANCH   9  11
ENDBRANCH   5   9
BRANCH   1  17
ATOM     17  S   UNL     1       3.368   2.813  19.242  0.00  0.00    +0.000 S 
BRANCH  17  19
ATOM     18  C   UNL     1       0.615   2.812  19.286  0.00  0.00    +0.000 C 
ATOM     19  C   UNL     1       1.811   3.364  20.055  0.00  0.00    +0.000 C 
ATOM     20  C   UNL     1       1.756   2.858  21.503  0.00  0.00    +0.000 C 
ENDBRANCH  17  19
ENDBRANCH   1  17
TORSDOF 5
ENDMDL
MODEL 5
REMARK VINA RESULT:      -6.9      0.673      1.288
REMARK  Name = 
REMARK  8 active torsions:
REMARK  status: ('A' for Active; 'I' for Inactive)
REMARK    1  A    between atoms: C_1  and  C_2
REMARK    2  A    between atoms: C_2  and  C_3
REMARK    3  A    between atoms: C_2  and  S_4
REMARK    4  A    between atoms: S_4  and  C_5
REMARK    5  A    between atoms: C_7  and  O_8
REMARK    6  A    between atoms: C_10  and  C_11
REMARK    7  A    between atoms: C_11  and  C_12
REMARK    8  A    between atoms: C_11  and  C_13
REMARK                            x       y       z     vdW  Elec       q    Type
REMARK                         _______ _______ _______ _____ _____    ______ ____
ROOT
ATOM      1  C   UNL     1       5.619   5.390  16.188  0.00  0.00    +0.000 A 
ATOM      2  N   UNL     1       6.794   4.959  16.668  0.00  0.00    +0.000 NA
ATOM      3  C   UNL     1       6.845   4.848  17.998  0.00  0.00    +0.000 A 
ATOM      4  C   UNL     1       5.829   5.128  18.879  0.00  0.00    +0.000 A 
ATOM      5  C   UNL     1       4.664   5.577  18.294  0.00  0.00    +0.000 A 
ATOM      6  N   UNL     1       4.556   5.723  16.949  0.00  0.00    +0.000 NA
ENDROOT
BRANCH   3   7
ATOM      7  O   UNL     1       8.058   4.467  18.487  0.00  0.00    +0.000 OA
ATOM      8  H   UNL     1       8.340   3.825  17.811  0.00  0.00    +0.000 HD
ENDBRANCH   3   7
BRANCH   5   9
ATOM      9  C   UNL     1       3.468   6.010  19.142  0.00  0.00    +0.000 C 
ATOM     10  C   UNL     1       2.725   7.143  18.408  0.00  0.00    +0.000 C 
BRANCH   9  11
ATOM     11  C   UNL     1       2.526   4.867  19.528  0.00  0.00    +0.000 A 
ATOM     12  C   UNL     1       1.871   4.100  18.548  0.00  0.00    +0.000 A 
ATOM     13  C   UNL     1       1.057   3.015  18.907  0.00  0.00    +0.000 A 
ATOM     14  C   UNL     1       0.891   2.672  20.247  0.00  0.00    +0.000 A 
ATOM     15  C   UNL     1       1.521   3.433  21.230  0.00  0.00    +0.000 A 
ATOM     16  C   UNL     1       2.320   4.522  20.873  0.00  0.00    +0.000 A 
ENDBRANCH   9  11
ENDBRANCH   5   9
BRANCH   1  17
ATOM     17  S   UNL     1       5.437   5.570  14.424  0.00  0.00    +0.000 S 
BRANCH  17  19
ATOM     18  C   UNL     1       6.157   3.439  12.836  0.00  0.00    +0.000 C 
ATOM     19  C   UNL     1       6.752   4.424  13.837  0.00  0.00    +0.000 C 
ATOM     20  C   UNL     1       7.882   5.210  13.158  0.00  0.00    +0.000 C 
ENDBRANCH  17  19
ENDBRANCH   1  17
TORSDOF 5
ENDMDL
MODEL 6
REMARK VINA RESULT:      -6.8      2.422      6.629
REMARK  Name = 
REMARK  8 active torsions:
REMARK  status: ('A' for Active; 'I' for Inactive)
REMARK    1  A    between atoms: C_1  and  C_2
REMARK    2  A    between atoms: C_2  and  C_3
REMARK    3  A    between atoms: C_2  and  S_4
REMARK    4  A    between atoms: S_4  and  C_5
REMARK    5  A    between atoms: C_7  and  O_8
REMARK    6  A    between atoms: C_10  and  C_11
REMARK    7  A    between atoms: C_11  and  C_12
REMARK    8  A    between atoms: C_11  and  C_13
REMARK                            x       y       z     vdW  Elec       q    Type
REMARK                         _______ _______ _______ _____ _____    ______ ____
ROOT
ATOM      1  C   UNL     1       3.783   4.259  18.457  0.00  0.00    +0.000 A 
ATOM      2  N   UNL     1       2.950   5.308  18.517  0.00  0.00    +0.000 NA
ATOM      3  C   UNL     1       3.374   6.393  17.862  0.00  0.00    +0.000 A 
ATOM      4  C   UNL     1       4.548   6.513  17.159  0.00  0.00    +0.000 A 
ATOM      5  C   UNL     1       5.344   5.388  17.166  0.00  0.00    +0.000 A 
ATOM      6  N   UNL     1       4.974   4.261  17.824  0.00  0.00    +0.000 NA
ENDROOT
BRANCH   3   7
ATOM      7  O   UNL     1       2.555   7.475  17.973  0.00  0.00    +0.000 OA
ATOM      8  H   UNL     1       2.381   7.482  18.931  0.00  0.00    +0.000 HD
ENDBRANCH   3   7
BRANCH   5   9
ATOM      9  C   UNL     1       6.720   5.388  16.499  0.00  0.00    +0.000 C 
ATOM     10  C   UNL     1       7.692   4.572  17.373  0.00  0.00    +0.000 C 
BRANCH   9  11
ATOM     11  C   UNL     1       6.714   4.904  15.048  0.00  0.00    +0.000 A 
ATOM     12  C   UNL     1       5.728   4.017  14.580  0.00  0.00    +0.000 A 
ATOM     13  C   UNL     1       5.692   3.625  13.232  0.00  0.00    +0.000 A 
ATOM     14  C   UNL     1       6.633   4.118  12.330  0.00  0.00    +0.000 A 
ATOM     15  C   UNL     1       7.625   4.985  12.783  0.00  0.00    +0.000 A 
ATOM     16  C   UNL     1       7.669   5.365  14.127  0.00  0.00    +0.000 A 
ENDBRANCH   9  11
ENDBRANCH   5   9
BRANCH   1  17
ATOM     17  S   UNL     1       3.314   2.755  19.291  0.00  0.00    +0.000 S 
BRANCH  17  19
ATOM     18  C   UNL     1       0.610   2.526  18.827  0.00  0.00    +0.000 C 
ATOM     19  C   UNL     1       1.593   3.177  19.793  0.00  0.00    +0.000 C 
ATOM     20  C   UNL     1       1.312   2.671  21.215  0.00  0.00    +0.000 C 
ENDBRANCH  17  19
ENDBRANCH   1  17
TORSDOF 5
ENDMDL
MODEL 7
REMARK VINA RESULT:      -6.8      3.751      5.050
REMARK  Name = 
REMARK  8 active torsions:
REMARK  status: ('A' for Active; 'I' for Inactive)
REMARK    1  A    between atoms: C_1  and  C_2
REMARK    2  A    between atoms: C_2  and  C_3
REMARK    3  A    between atoms: C_2  and  S_4
REMARK    4  A    between atoms: S_4  and  C_5
REMARK    5  A    between atoms: C_7  and  O_8
REMARK    6  A    between atoms: C_10  and  C_11
REMARK    7  A    between atoms: C_11  and  C_12
REMARK    8  A    between atoms: C_11  and  C_13
REMARK                            x       y       z     vdW  Elec       q    Type
REMARK                         _______ _______ _______ _____ _____    ______ ____
ROOT
ATOM      1  C   UNL     1       7.838   8.194  17.911  0.00  0.00    +0.000 A 
ATOM      2  N   UNL     1       8.422   7.499  18.898  0.00  0.00    +0.000 NA
ATOM      3  C   UNL     1       8.069   6.212  18.957  0.00  0.00    +0.000 A 
ATOM      4  C   UNL     1       7.190   5.570  18.119  0.00  0.00    +0.000 A 
ATOM      5  C   UNL     1       6.630   6.368  17.146  0.00  0.00    +0.000 A 
ATOM      6  N   UNL     1       6.940   7.685  17.043  0.00  0.00    +0.000 NA
ENDROOT
BRANCH   3   7
ATOM      7  O   UNL     1       8.617   5.524  19.995  0.00  0.00    +0.000 OA
ATOM      8  H   UNL     1       9.563   5.717  19.871  0.00  0.00    +0.000 HD
ENDBRANCH   3   7
BRANCH   5   9
ATOM      9  C   UNL     1       5.571   5.823  16.187  0.00  0.00    +0.000 C 
ATOM     10  C   UNL     1       6.238   4.807  15.239  0.00  0.00    +0.000 C 
BRANCH   9  11
ATOM     11  C   UNL     1       4.340   5.235  16.879  0.00  0.00    +0.000 A 
ATOM     12  C   UNL     1       3.453   6.051  17.604  0.00  0.00    +0.000 A 
ATOM     13  C   UNL     1       2.293   5.515  18.185  0.00  0.00    +0.000 A 
ATOM     14  C   UNL     1       1.995   4.162  18.044  0.00  0.00    +0.000 A 
ATOM     15  C   UNL     1       2.872   3.339  17.341  0.00  0.00    +0.000 A 
ATOM     16  C   UNL     1       4.035   3.868  16.775  0.00  0.00    +0.000 A 
ENDBRANCH   9  11
ENDBRANCH   5   9
BRANCH   1  17
ATOM     17  S   UNL     1       8.242   9.921  17.735  0.00  0.00    +0.000 S 
BRANCH  17  19
ATOM     18  C   UNL     1      10.678  11.000  18.434  0.00  0.00    +0.000 C 
ATOM     19  C   UNL     1       9.594  10.073  18.976  0.00  0.00    +0.000 C 
ATOM     20  C   UNL     1       9.051  10.650  20.291  0.00  0.00    +0.000 C 
ENDBRANCH  17  19
ENDBRANCH   1  17
TORSDOF 5
ENDMDL
MODEL 8
REMARK VINA RESULT:      -6.8      1.253      1.554
REMARK  Name = 
REMARK  8 active torsions:
REMARK  status: ('A' for Active; 'I' for Inactive)
REMARK    1  A    between atoms: C_1  and  C_2
REMARK    2  A    between atoms: C_2  and  C_3
REMARK    3  A    between atoms: C_2  and  S_4
REMARK    4  A    between atoms: S_4  and  C_5
REMARK    5  A    between atoms: C_7  and  O_8
REMARK    6  A    between atoms: C_10  and  C_11
REMARK    7  A    between atoms: C_11  and  C_12
REMARK    8  A    between atoms: C_11  and  C_13
REMARK                            x       y       z     vdW  Elec       q    Type
REMARK                         _______ _______ _______ _____ _____    ______ ____
ROOT
ATOM      1  C   UNL     1       6.618   5.521  16.737  0.00  0.00    +0.000 A 
ATOM      2  N   UNL     1       7.609   5.297  17.613  0.00  0.00    +0.000 NA
ATOM      3  C   UNL     1       7.247   5.383  18.896  0.00  0.00    +0.000 A 
ATOM      4  C   UNL     1       5.990   5.669  19.371  0.00  0.00    +0.000 A 
ATOM      5  C   UNL     1       5.042   5.898  18.397  0.00  0.00    +0.000 A 
ATOM      6  N   UNL     1       5.352   5.837  17.077  0.00  0.00    +0.000 NA
ENDROOT
BRANCH   3   7
ATOM      7  O   UNL     1       8.266   5.214  19.783  0.00  0.00    +0.000 OA
ATOM      8  H   UNL     1       7.816   4.730  20.498  0.00  0.00    +0.000 HD
ENDBRANCH   3   7
BRANCH   5   9
ATOM      9  C   UNL     1       3.616   6.310  18.760  0.00  0.00    +0.000 C 
ATOM     10  C   UNL     1       3.055   7.200  17.634  0.00  0.00    +0.000 C 
BRANCH   9  11
ATOM     11  C   UNL     1       2.685   5.137  19.077  0.00  0.00    +0.000 A 
ATOM     12  C   UNL     1       2.185   4.935  20.376  0.00  0.00    +0.000 A 
ATOM     13  C   UNL     1       1.282   3.894  20.647  0.00  0.00    +0.000 A 
ATOM     14  C   UNL     1       0.858   3.047  19.627  0.00  0.00    +0.000 A 
ATOM     15  C   UNL     1       1.357   3.226  18.338  0.00  0.00    +0.000 A 
ATOM     16  C   UNL     1       2.266   4.252  18.071  0.00  0.00    +0.000 A 
ENDBRANCH   9  11
ENDBRANCH   5   9
BRANCH   1  17
ATOM     17  S   UNL     1       6.988   5.425  14.997  0.00  0.00    +0.000 S 
BRANCH  17  19
ATOM     18  C   UNL     1       6.046   3.672  13.094  0.00  0.00    +0.000 C 
ATOM     19  C   UNL     1       5.658   4.282  14.437  0.00  0.00    +0.000 C 
ATOM     20  C   UNL     1       5.454   3.157  15.460  0.00  0.00    +0.000 C 
ENDBRANCH  17  19
ENDBRANCH   1  17
TORSDOF 5
ENDMDL
MODEL 9
REMARK VINA RESULT:      -6.7      3.768      5.159
REMARK  Name = 
REMARK  8 active torsions:
REMARK  status: ('A' for Active; 'I' for Inactive)
REMARK    1  A    between atoms: C_1  and  C_2
REMARK    2  A    between atoms: C_2  and  C_3
REMARK    3  A    between atoms: C_2  and  S_4
REMARK    4  A    between atoms: S_4  and  C_5
REMARK    5  A    between atoms: C_7  and  O_8
REMARK    6  A    between atoms: C_10  and  C_11
REMARK    7  A    between atoms: C_11  and  C_12
REMARK    8  A    between atoms: C_11  and  C_13
REMARK                            x       y       z     vdW  Elec       q    Type
REMARK                         _______ _______ _______ _____ _____    ______ ____
ROOT
ATOM      1  C   UNL     1       7.869   8.188  17.928  0.00  0.00    +0.000 A 
ATOM      2  N   UNL     1       8.435   7.505  18.934  0.00  0.00    +0.000 NA
ATOM      3  C   UNL     1       8.108   6.211  18.982  0.00  0.00    +0.000 A 
ATOM      4  C   UNL     1       7.271   5.550  18.116  0.00  0.00    +0.000 A 
ATOM      5  C   UNL     1       6.726   6.336  17.124  0.00  0.00    +0.000 A 
ATOM      6  N   UNL     1       7.011   7.660  17.032  0.00  0.00    +0.000 NA
ENDROOT
BRANCH   3   7
ATOM      7  O   UNL     1       8.637   5.534  20.037  0.00  0.00    +0.000 OA
ATOM      8  H   UNL     1       8.653   4.625  19.690  0.00  0.00    +0.000 HD
ENDBRANCH   3   7
BRANCH   5   9
ATOM      9  C   UNL     1       5.711   5.769  16.132  0.00  0.00    +0.000 C 
ATOM     10  C   UNL     1       6.408   4.700  15.267  0.00  0.00    +0.000 C 
BRANCH   9  11
ATOM     11  C   UNL     1       4.431   5.235  16.778  0.00  0.00    +0.000 A 
ATOM     12  C   UNL     1       4.089   3.873  16.697  0.00  0.00    +0.000 A 
ATOM     13  C   UNL     1       2.946   3.377  17.344  0.00  0.00    +0.000 A 
ATOM     14  C   UNL     1       2.133   4.230  18.088  0.00  0.00    +0.000 A 
ATOM     15  C   UNL     1       2.451   5.584  18.163  0.00  0.00    +0.000 A 
ATOM     16  C   UNL     1       3.581   6.080  17.508  0.00  0.00    +0.000 A 
ENDBRANCH   9  11
ENDBRANCH   5   9
BRANCH   1  17
ATOM     17  S   UNL     1       8.242   9.923  17.765  0.00  0.00    +0.000 S 
BRANCH  17  19
ATOM     18  C   UNL     1      10.690  11.002  18.414  0.00  0.00    +0.000 C 
ATOM     19  C   UNL     1       9.613  10.084  18.982  0.00  0.00    +0.000 C 
ATOM     20  C   UNL     1       9.093  10.674  20.300  0.00  0.00    +0.000 C 
ENDBRANCH  17  19
ENDBRANCH   1  17
TORSDOF 5
ENDMDL
