MODEL 1
REMARK VINA RESULT:      -7.1      0.000      0.000
REMARK  Name = 
REMARK  10 active torsions:
REMARK  status: ('A' for Active; 'I' for Inactive)
REMARK    1  A    between atoms: C_1  and  C_2
REMARK    2  A    between atoms: C_2  and  N_3
REMARK    3  A    between atoms: C_6  and  N_7
REMARK    4  A    between atoms: N_7  and  C_8
REMARK    5  A    between atoms: C_11  and  C_12
REMARK    6  A    between atoms: N_14  and  C_15
REMARK    7  A    between atoms: C_18  and  N_19
REMARK    8  A    between atoms: N_19  and  C_20
REMARK    9  A    between atoms: N_23  and  C_24
REMARK   10  A    between atoms: C_24  and  C_25
REMARK                            x       y       z     vdW  Elec       q    Type
REMARK                         _______ _______ _______ _____ _____    ______ ____
ROOT
ATOM      1  C   UNL     1       1.928   6.825  20.201  0.00  0.00    +0.000 C 
ATOM      2  O   UNL     1       1.241   6.414  21.151  0.00  0.00    +0.000 OA
ATOM      3  N   UNL     1       1.883   8.142  19.735  0.00  0.00    +0.000 N 
ATOM      4  H   UNL     1       2.393   8.320  18.875  0.00  0.00    +0.000 HD
ENDROOT
BRANCH   1   8
ATOM      5  C   UNL     1       4.273   3.979  17.770  0.00  0.00    +0.000 A 
ATOM      6  C   UNL     1       2.879   4.049  17.711  0.00  0.00    +0.000 A 
ATOM      7  C   UNL     1       2.159   4.944  18.524  0.00  0.00    +0.000 A 
ATOM      8  C   UNL     1       2.785   5.792  19.455  0.00  0.00    +0.000 A 
ATOM      9  C   UNL     1       4.178   5.637  19.594  0.00  0.00    +0.000 A 
ATOM     10  C   UNL     1       4.905   4.743  18.757  0.00  0.00    +0.000 A 
BRANCH   5  11
ATOM     11  N   UNL     1       5.002   3.214  16.818  0.00  0.00    +0.000 N 
ATOM     12  H   UNL     1       5.424   2.389  17.237  0.00  0.00    +0.000 HD
BRANCH  11  16
ATOM     13  N   UNL     1       7.086   4.756  13.503  0.00  0.00    +0.000 N 
ATOM     14  C   UNL     1       6.096   3.860  13.312  0.00  0.00    +0.000 A 
ATOM     15  C   UNL     1       5.405   3.322  14.392  0.00  0.00    +0.000 A 
ATOM     16  C   UNL     1       5.728   3.688  15.701  0.00  0.00    +0.000 A 
ATOM     17  C   UNL     1       6.821   4.544  15.867  0.00  0.00    +0.000 A 
ATOM     18  C   UNL     1       7.483   5.070  14.756  0.00  0.00    +0.000 A 
BRANCH  13  20
ATOM     19  C   UNL     1       8.998   6.088  12.732  0.00  0.00    +0.000 C 
ATOM     20  C   UNL     1       7.676   5.462  12.348  0.00  0.00    +0.000 C 
ENDBRANCH  13  20
ENDBRANCH  11  16
ENDBRANCH   5  11
ENDBRANCH   1   8
BRANCH   3  21
ATOM     21  C   UNL     1       1.043   9.233  20.188  0.00  0.00    +0.000 A 
ATOM     22  C   UNL     1       0.846   9.644  21.512  0.00  0.00    +0.000 A 
ATOM     23  C   UNL     1      -0.115  10.666  21.875  0.00  0.00    +0.000 A 
ATOM     24  C   UNL     1      -0.966  11.296  20.951  0.00  0.00    +0.000 A 
ATOM     25  C   UNL     1      -0.658  10.969  19.602  0.00  0.00    +0.000 A 
ATOM     26  C   UNL     1       0.324   9.967  19.239  0.00  0.00    +0.000 A 
BRANCH  24  27
ATOM     27  N   UNL     1      -2.084  12.134  21.332  0.00  0.00    +0.000 N 
ATOM     28  H   UNL     1      -1.484  12.567  22.050  0.00  0.00    +0.000 HD
BRANCH  27  29
ATOM     29  C   UNL     1      -3.147  13.026  21.750  0.00  0.00    +0.000 A 
ATOM     30  C   UNL     1      -2.663  14.070  22.530  0.00  0.00    +0.000 A 
ATOM     31  C   UNL     1      -3.376  15.254  22.454  0.00  0.00    +0.000 A 
ATOM     32  N   UNL     1      -4.673  15.116  22.759  0.00  0.00    +0.000 N 
ATOM     33  C   UNL     1      -5.393  14.157  22.116  0.00  0.00    +0.000 A 
ATOM     34  C   UNL     1      -6.809  14.332  22.087  0.00  0.00    +0.000 A 
ATOM     35  C   UNL     1      -7.604  13.585  21.257  0.00  0.00    +0.000 A 
ATOM     36  C   UNL     1      -6.969  12.639  20.467  0.00  0.00    +0.000 A 
ATOM     37  C   UNL     1      -5.553  12.380  20.564  0.00  0.00    +0.000 A 
ATOM     38  C   UNL     1      -4.641  13.109  21.425  0.00  0.00    +0.000 A 
BRANCH  32  39
ATOM     39  C   UNL     1      -5.160  15.797  23.978  0.00  0.00    +0.000 C 
ATOM     40  C   UNL     1      -5.458  17.254  23.696  0.00  0.00    +0.000 C 
ENDBRANCH  32  39
ENDBRANCH  27  29
ENDBRANCH  24  27
ENDBRANCH   3  21
TORSDOF 8
ENDMDL
MODEL 2
REMARK VINA RESULT:      -7.0      1.745      2.574
REMARK  Name = 
REMARK  10 active torsions:
REMARK  status: ('A' for Active; 'I' for Inactive)
REMARK    1  A    between atoms: C_1  and  C_2
REMARK    2  A    between atoms: C_2  and  N_3
REMARK    3  A    between atoms: C_6  and  N_7
REMARK    4  A    between atoms: N_7  and  C_8
REMARK    5  A    between atoms: C_11  and  C_12
REMARK    6  A    between atoms: N_14  and  C_15
REMARK    7  A    between atoms: C_18  and  N_19
REMARK    8  A    between atoms: N_19  and  C_20
REMARK    9  A    between atoms: N_23  and  C_24
REMARK   10  A    between atoms: C_24  and  C_25
REMARK                            x       y       z     vdW  Elec       q    Type
REMARK                         _______ _______ _______ _____ _____    ______ ____
ROOT
ATOM      1  C   UNL     1       1.430   8.415  20.159  0.00  0.00    +0.000 C 
ATOM      2  O   UNL     1       0.833   7.931  21.135  0.00  0.00    +0.000 OA
ATOM      3  N   UNL     1       1.167   9.692  19.654  0.00  0.00    +0.000 N 
ATOM      4  H   UNL     1       1.627   9.920  18.779  0.00  0.00    +0.000 HD
ENDROOT
BRANCH   1   8
ATOM      5  C   UNL     1       4.517   6.066  18.047  0.00  0.00    +0.000 A 
ATOM      6  C   UNL     1       3.978   7.244  17.524  0.00  0.00    +0.000 A 
ATOM      7  C   UNL     1       2.970   7.951  18.206  0.00  0.00    +0.000 A 
ATOM      8  C   UNL     1       2.430   7.509  19.427  0.00  0.00    +0.000 A 
ATOM      9  C   UNL     1       2.893   6.263  19.893  0.00  0.00    +0.000 A 
ATOM     10  C   UNL     1       3.925   5.560  19.208  0.00  0.00    +0.000 A 
BRANCH   5  11
ATOM     11  N   UNL     1       5.658   5.464  17.450  0.00  0.00    +0.000 N 
ATOM     12  H   UNL     1       6.525   5.833  17.831  0.00  0.00    +0.000 HD
BRANCH  11  16
ATOM     13  N   UNL     1       6.132   3.983  13.538  0.00  0.00    +0.000 N 
ATOM     14  C   UNL     1       7.044   4.838  14.044  0.00  0.00    +0.000 A 
ATOM     15  C   UNL     1       6.900   5.356  15.327  0.00  0.00    +0.000 A 
ATOM     16  C   UNL     1       5.801   5.011  16.117  0.00  0.00    +0.000 A 
ATOM     17  C   UNL     1       4.827   4.199  15.527  0.00  0.00    +0.000 A 
ATOM     18  C   UNL     1       5.013   3.693  14.240  0.00  0.00    +0.000 A 
BRANCH  13  20
ATOM     19  C   UNL     1       5.104   3.077  11.502  0.00  0.00    +0.000 C 
ATOM     20  C   UNL     1       6.396   3.293  12.259  0.00  0.00    +0.000 C 
ENDBRANCH  13  20
ENDBRANCH  11  16
ENDBRANCH   5  11
ENDBRANCH   1   8
BRANCH   3  21
ATOM     21  C   UNL     1       0.170  10.649  20.092  0.00  0.00    +0.000 A 
ATOM     22  C   UNL     1      -0.379  10.759  21.375  0.00  0.00    +0.000 A 
ATOM     23  C   UNL     1      -1.466  11.667  21.681  0.00  0.00    +0.000 A 
ATOM     24  C   UNL     1      -2.098  12.475  20.721  0.00  0.00    +0.000 A 
ATOM     25  C   UNL     1      -1.440  12.455  19.461  0.00  0.00    +0.000 A 
ATOM     26  C   UNL     1      -0.335  11.566  19.164  0.00  0.00    +0.000 A 
BRANCH  24  27
ATOM     27  N   UNL     1      -3.328  13.199  20.966  0.00  0.00    +0.000 N 
ATOM     28  H   UNL     1      -3.806  12.561  20.312  0.00  0.00    +0.000 HD
BRANCH  27  29
ATOM     29  C   UNL     1      -4.602  13.856  21.182  0.00  0.00    +0.000 A 
ATOM     30  C   UNL     1      -4.955  14.658  20.102  0.00  0.00    +0.000 A 
ATOM     31  C   UNL     1      -6.314  14.806  19.887  0.00  0.00    +0.000 A 
ATOM     32  N   UNL     1      -6.974  15.283  20.951  0.00  0.00    +0.000 N 
ATOM     33  C   UNL     1      -6.811  14.659  22.149  0.00  0.00    +0.000 A 
ATOM     34  C   UNL     1      -7.839  14.855  23.118  0.00  0.00    +0.000 A 
ATOM     35  C   UNL     1      -7.916  14.079  24.245  0.00  0.00    +0.000 A 
ATOM     36  C   UNL     1      -6.935  13.114  24.408  0.00  0.00    +0.000 A 
ATOM     37  C   UNL     1      -5.830  12.976  23.490  0.00  0.00    +0.000 A 
ATOM     38  C   UNL     1      -5.661  13.763  22.284  0.00  0.00    +0.000 A 
BRANCH  32  39
ATOM     39  C   UNL     1      -7.587  16.622  20.826  0.00  0.00    +0.000 C 
ATOM     40  C   UNL     1      -7.916  16.928  19.380  0.00  0.00    +0.000 C 
ENDBRANCH  32  39
ENDBRANCH  27  29
ENDBRANCH  24  27
ENDBRANCH   3  21
TORSDOF 8
ENDMDL
MODEL 3
REMARK VINA RESULT:      -6.9      1.788      3.144
REMARK  Name = 
REMARK  10 active torsions:
REMARK  status: ('A' for Active; 'I' for Inactive)
REMARK    1  A    between atoms: C_1  and  C_2
REMARK    2  A    between atoms: C_2  and  N_3
REMARK    3  A    between atoms: C_6  and  N_7
REMARK    4  A    between atoms: N_7  and  C_8
REMARK    5  A    between atoms: C_11  and  C_12
REMARK    6  A    between atoms: N_14  and  C_15
REMARK    7  A    between atoms: C_18  and  N_19
REMARK    8  A    between atoms: N_19  and  C_20
REMARK    9  A    between atoms: N_23  and  C_24
REMARK   10  A    between atoms: C_24  and  C_25
REMARK                            x       y       z     vdW  Elec       q    Type
REMARK                         _______ _______ _______ _____ _____    ______ ____
ROOT
ATOM      1  C   UNL     1       2.225   7.532  19.529  0.00  0.00    +0.000 C 
ATOM      2  O   UNL     1       1.850   6.884  20.521  0.00  0.00    +0.000 OA
ATOM      3  N   UNL     1       1.706   8.784  19.188  0.00  0.00    +0.000 N 
ATOM      4  H   UNL     1       2.000   9.151  18.289  0.00  0.00    +0.000 HD
ENDROOT
BRANCH   1   8
ATOM      5  C   UNL     1       5.325   5.871  16.856  0.00  0.00    +0.000 A 
ATOM      6  C   UNL     1       4.638   7.053  16.569  0.00  0.00    +0.000 A 
ATOM      7  C   UNL     1       3.631   7.538  17.425  0.00  0.00    +0.000 A 
ATOM      8  C   UNL     1       3.239   6.858  18.592  0.00  0.00    +0.000 A 
ATOM      9  C   UNL     1       3.852   5.611  18.817  0.00  0.00    +0.000 A 
ATOM     10  C   UNL     1       4.883   5.133  17.958  0.00  0.00    +0.000 A 
BRANCH   5  11
ATOM     11  N   UNL     1       6.462   5.490  16.092  0.00  0.00    +0.000 N 
ATOM     12  H   UNL     1       7.260   6.092  16.274  0.00  0.00    +0.000 HD
BRANCH  11  16
ATOM     13  N   UNL     1       6.576   3.713  12.278  0.00  0.00    +0.000 N 
ATOM     14  C   UNL     1       7.559   4.559  12.651  0.00  0.00    +0.000 A 
ATOM     15  C   UNL     1       7.534   5.173  13.899  0.00  0.00    +0.000 A 
ATOM     16  C   UNL     1       6.484   4.938  14.790  0.00  0.00    +0.000 A 
ATOM     17  C   UNL     1       5.436   4.132  14.335  0.00  0.00    +0.000 A 
ATOM     18  C   UNL     1       5.503   3.527  13.079  0.00  0.00    +0.000 A 
BRANCH  13  20
ATOM     19  C   UNL     1       7.218   1.532  11.354  0.00  0.00    +0.000 C 
ATOM     20  C   UNL     1       6.713   2.922  11.038  0.00  0.00    +0.000 C 
ENDBRANCH  13  20
ENDBRANCH  11  16
ENDBRANCH   5  11
ENDBRANCH   1   8
BRANCH   3  21
ATOM     21  C   UNL     1       0.647   9.530  19.839  0.00  0.00    +0.000 A 
ATOM     22  C   UNL     1      -0.251  10.414  19.229  0.00  0.00    +0.000 A 
ATOM     23  C   UNL     1      -1.194  11.212  19.987  0.00  0.00    +0.000 A 
ATOM     24  C   UNL     1      -1.260  11.213  21.391  0.00  0.00    +0.000 A 
ATOM     25  C   UNL     1      -0.442  10.212  21.983  0.00  0.00    +0.000 A 
ATOM     26  C   UNL     1       0.480   9.395  21.221  0.00  0.00    +0.000 A 
BRANCH  24  27
ATOM     27  N   UNL     1      -2.025  12.174  22.158  0.00  0.00    +0.000 N 
ATOM     28  H   UNL     1      -1.509  12.929  21.681  0.00  0.00    +0.000 HD
BRANCH  27  29
ATOM     29  C   UNL     1      -2.770  13.195  22.867  0.00  0.00    +0.000 A 
ATOM     30  C   UNL     1      -4.141  13.009  22.742  0.00  0.00    +0.000 A 
ATOM     31  C   UNL     1      -4.906  13.458  23.805  0.00  0.00    +0.000 A 
ATOM     32  N   UNL     1      -4.719  14.754  24.086  0.00  0.00    +0.000 N 
ATOM     33  C   UNL     1      -3.446  15.201  24.272  0.00  0.00    +0.000 A 
ATOM     34  C   UNL     1      -3.295  16.410  25.016  0.00  0.00    +0.000 A 
ATOM     35  C   UNL     1      -2.072  16.810  25.488  0.00  0.00    +0.000 A 
ATOM     36  C   UNL     1      -0.990  15.998  25.186  0.00  0.00    +0.000 A 
ATOM     37  C   UNL     1      -1.112  14.832  24.346  0.00  0.00    +0.000 A 
ATOM     38  C   UNL     1      -2.361  14.345  23.792  0.00  0.00    +0.000 A 
BRANCH  32  39
ATOM     39  C   UNL     1      -5.862  15.667  23.875  0.00  0.00    +0.000 C 
ATOM     40  C   UNL     1      -5.931  16.116  22.431  0.00  0.00    +0.000 C 
ENDBRANCH  32  39
ENDBRANCH  27  29
ENDBRANCH  24  27
ENDBRANCH   3  21
TORSDOF 8
ENDMDL
MODEL 4
REMARK VINA RESULT:      -6.9      1.744      2.221
REMARK  Name = 
REMARK  10 active torsions:
REMARK  status: ('A' for Active; 'I' for Inactive)
REMARK    1  A    between atoms: C_1  and  C_2
REMARK    2  A    between atoms: C_2  and  N_3
REMARK    3  A    between atoms: C_6  and  N_7
REMARK    4  A    between atoms: N_7  and  C_8
REMARK    5  A    between atoms: C_11  and  C_12
REMARK    6  A    between atoms: N_14  and  C_15
REMARK    7  A    between atoms: C_18  and  N_19
REMARK    8  A    between atoms: N_19  and  C_20
REMARK    9  A    between atoms: N_23  and  C_24
REMARK   10  A    between atoms: C_24  and  C_25
REMARK                            x       y       z     vdW  Elec       q    Type
REMARK                         _______ _______ _______ _____ _____    ______ ____
ROOT
ATOM      1  C   UNL     1       1.667   9.338  18.944  0.00  0.00    +0.000 C 
ATOM      2  O   UNL     1       1.864  10.352  18.254  0.00  0.00    +0.000 OA
ATOM      3  N   UNL     1       0.842   9.325  20.072  0.00  0.00    +0.000 N 
ATOM      4  H   UNL     1       0.865   8.472  20.622  0.00  0.00    +0.000 HD
ENDROOT
BRANCH   1   8
ATOM      5  C   UNL     1       4.208   5.903  17.823  0.00  0.00    +0.000 A 
ATOM      6  C   UNL     1       3.921   6.947  16.940  0.00  0.00    +0.000 A 
ATOM      7  C   UNL     1       3.080   8.011  17.317  0.00  0.00    +0.000 A 
ATOM      8  C   UNL     1       2.461   8.075  18.579  0.00  0.00    +0.000 A 
ATOM      9  C   UNL     1       2.659   6.965  19.422  0.00  0.00    +0.000 A 
ATOM     10  C   UNL     1       3.526   5.899  19.043  0.00  0.00    +0.000 A 
BRANCH   5  11
ATOM     11  N   UNL     1       5.202   4.937  17.504  0.00  0.00    +0.000 N 
ATOM     12  H   UNL     1       5.886   4.837  18.249  0.00  0.00    +0.000 HD
BRANCH  11  16
ATOM     13  N   UNL     1       6.750   4.176  13.664  0.00  0.00    +0.000 N 
ATOM     14  C   UNL     1       5.588   3.604  14.042  0.00  0.00    +0.000 A 
ATOM     15  C   UNL     1       5.065   3.825  15.312  0.00  0.00    +0.000 A 
ATOM     16  C   UNL     1       5.738   4.635  16.231  0.00  0.00    +0.000 A 
ATOM     17  C   UNL     1       6.985   5.134  15.840  0.00  0.00    +0.000 A 
ATOM     18  C   UNL     1       7.470   4.896  14.553  0.00  0.00    +0.000 A 
BRANCH  13  20
ATOM     19  C   UNL     1       6.676   2.821  11.619  0.00  0.00    +0.000 C 
ATOM     20  C   UNL     1       7.192   4.092  12.258  0.00  0.00    +0.000 C 
ENDBRANCH  13  20
ENDBRANCH  11  16
ENDBRANCH   5  11
ENDBRANCH   1   8
BRANCH   3  21
ATOM     21  C   UNL     1       0.123  10.428  20.679  0.00  0.00    +0.000 A 
ATOM     22  C   UNL     1      -0.174  10.587  22.037  0.00  0.00    +0.000 A 
ATOM     23  C   UNL     1      -1.010  11.663  22.530  0.00  0.00    +0.000 A 
ATOM     24  C   UNL     1      -1.637  12.605  21.696  0.00  0.00    +0.000 A 
ATOM     25  C   UNL     1      -1.214  12.513  20.342  0.00  0.00    +0.000 A 
ATOM     26  C   UNL     1      -0.355  11.453  19.855  0.00  0.00    +0.000 A 
BRANCH  24  27
ATOM     27  N   UNL     1      -2.656  13.527  22.152  0.00  0.00    +0.000 N 
ATOM     28  H   UNL     1      -3.352  12.986  21.618  0.00  0.00    +0.000 HD
BRANCH  27  29
ATOM     29  C   UNL     1      -3.735  14.391  22.589  0.00  0.00    +0.000 A 
ATOM     30  C   UNL     1      -3.436  15.732  22.377  0.00  0.00    +0.000 A 
ATOM     31  C   UNL     1      -4.522  16.557  22.143  0.00  0.00    +0.000 A 
ATOM     32  N   UNL     1      -5.441  16.519  23.117  0.00  0.00    +0.000 N 
ATOM     33  C   UNL     1      -5.919  15.307  23.511  0.00  0.00    +0.000 A 
ATOM     34  C   UNL     1      -7.186  15.301  24.167  0.00  0.00    +0.000 A 
ATOM     35  C   UNL     1      -7.880  14.137  24.369  0.00  0.00    +0.000 A 
ATOM     36  C   UNL     1      -7.282  12.967  23.928  0.00  0.00    +0.000 A 
ATOM     37  C   UNL     1      -5.956  12.947  23.360  0.00  0.00    +0.000 A 
ATOM     38  C   UNL     1      -5.145  14.126  23.125  0.00  0.00    +0.000 A 
BRANCH  32  39
ATOM     39  C   UNL     1      -5.649  17.752  23.904  0.00  0.00    +0.000 C 
ATOM     40  C   UNL     1      -5.019  17.626  25.275  0.00  0.00    +0.000 C 
ENDBRANCH  32  39
ENDBRANCH  27  29
ENDBRANCH  24  27
ENDBRANCH   3  21
TORSDOF 8
ENDMDL
MODEL 5
REMARK VINA RESULT:      -6.8      1.649      2.138
REMARK  Name = 
REMARK  10 active torsions:
REMARK  status: ('A' for Active; 'I' for Inactive)
REMARK    1  A    between atoms: C_1  and  C_2
REMARK    2  A    between atoms: C_2  and  N_3
REMARK    3  A    between atoms: C_6  and  N_7
REMARK    4  A    between atoms: N_7  and  C_8
REMARK    5  A    between atoms: C_11  and  C_12
REMARK    6  A    between atoms: N_14  and  C_15
REMARK    7  A    between atoms: C_18  and  N_19
REMARK    8  A    between atoms: N_19  and  C_20
REMARK    9  A    between atoms: N_23  and  C_24
REMARK   10  A    between atoms: C_24  and  C_25
REMARK                            x       y       z     vdW  Elec       q    Type
REMARK                         _______ _______ _______ _____ _____    ______ ____
ROOT
ATOM      1  C   UNL     1       1.529   8.784  19.284  0.00  0.00    +0.000 C 
ATOM      2  O   UNL     1       1.304   8.749  20.506  0.00  0.00    +0.000 OA
ATOM      3  N   UNL     1       0.988   9.751  18.432  0.00  0.00    +0.000 N 
ATOM      4  H   UNL     1       1.142   9.597  17.441  0.00  0.00    +0.000 HD
ENDROOT
BRANCH   1   8
ATOM      5  C   UNL     1       4.203   5.664  17.665  0.00  0.00    +0.000 A 
ATOM      6  C   UNL     1       4.239   6.989  17.225  0.00  0.00    +0.000 A 
ATOM      7  C   UNL     1       3.350   7.953  17.737  0.00  0.00    +0.000 A 
ATOM      8  C   UNL     1       2.364   7.641  18.690  0.00  0.00    +0.000 A 
ATOM      9  C   UNL     1       2.255   6.282  19.045  0.00  0.00    +0.000 A 
ATOM     10  C   UNL     1       3.168   5.314  18.538  0.00  0.00    +0.000 A 
BRANCH   5  11
ATOM     11  N   UNL     1       5.221   4.746  17.286  0.00  0.00    +0.000 N 
ATOM     12  H   UNL     1       5.929   4.644  18.008  0.00  0.00    +0.000 HD
BRANCH  11  16
ATOM     13  N   UNL     1       6.687   4.176  13.381  0.00  0.00    +0.000 N 
ATOM     14  C   UNL     1       5.568   3.533  13.776  0.00  0.00    +0.000 A 
ATOM     15  C   UNL     1       5.075   3.691  15.067  0.00  0.00    +0.000 A 
ATOM     16  C   UNL     1       5.732   4.509  15.988  0.00  0.00    +0.000 A 
ATOM     17  C   UNL     1       6.939   5.083  15.576  0.00  0.00    +0.000 A 
ATOM     18  C   UNL     1       7.396   4.908  14.269  0.00  0.00    +0.000 A 
BRANCH  13  20
ATOM     19  C   UNL     1       6.936   2.761  11.391  0.00  0.00    +0.000 C 
ATOM     20  C   UNL     1       7.088   4.154  11.960  0.00  0.00    +0.000 C 
ENDBRANCH  13  20
ENDBRANCH  11  16
ENDBRANCH   5  11
ENDBRANCH   1   8
BRANCH   3  21
ATOM     21  C   UNL     1       0.063  10.821  18.751  0.00  0.00    +0.000 A 
ATOM     22  C   UNL     1       0.393  12.134  19.106  0.00  0.00    +0.000 A 
ATOM     23  C   UNL     1      -0.601  13.099  19.531  0.00  0.00    +0.000 A 
ATOM     24  C   UNL     1      -1.965  12.796  19.677  0.00  0.00    +0.000 A 
ATOM     25  C   UNL     1      -2.302  11.506  19.181  0.00  0.00    +0.000 A 
ATOM     26  C   UNL     1      -1.309  10.553  18.729  0.00  0.00    +0.000 A 
BRANCH  24  27
ATOM     27  N   UNL     1      -2.918  13.674  20.325  0.00  0.00    +0.000 N 
ATOM     28  H   UNL     1      -3.232  13.983  19.393  0.00  0.00    +0.000 HD
BRANCH  27  29
ATOM     29  C   UNL     1      -3.914  14.555  20.900  0.00  0.00    +0.000 A 
ATOM     30  C   UNL     1      -3.568  15.892  20.744  0.00  0.00    +0.000 A 
ATOM     31  C   UNL     1      -4.627  16.778  20.650  0.00  0.00    +0.000 A 
ATOM     32  N   UNL     1      -5.466  16.718  21.693  0.00  0.00    +0.000 N 
ATOM     33  C   UNL     1      -5.971  15.506  22.051  0.00  0.00    +0.000 A 
ATOM     34  C   UNL     1      -7.180  15.515  22.808  0.00  0.00    +0.000 A 
ATOM     35  C   UNL     1      -7.913  14.372  22.997  0.00  0.00    +0.000 A 
ATOM     36  C   UNL     1      -7.410  13.207  22.439  0.00  0.00    +0.000 A 
ATOM     37  C   UNL     1      -6.136  13.165  21.764  0.00  0.00    +0.000 A 
ATOM     38  C   UNL     1      -5.288  14.319  21.533  0.00  0.00    +0.000 A 
BRANCH  32  39
ATOM     39  C   UNL     1      -5.550  17.907  22.566  0.00  0.00    +0.000 C 
ATOM     40  C   UNL     1      -4.598  17.781  23.736  0.00  0.00    +0.000 C 
ENDBRANCH  32  39
ENDBRANCH  27  29
ENDBRANCH  24  27
ENDBRANCH   3  21
TORSDOF 8
ENDMDL
MODEL 6
REMARK VINA RESULT:      -6.8      0.979      1.372
REMARK  Name = 
REMARK  10 active torsions:
REMARK  status: ('A' for Active; 'I' for Inactive)
REMARK    1  A    between atoms: C_1  and  C_2
REMARK    2  A    between atoms: C_2  and  N_3
REMARK    3  A    between atoms: C_6  and  N_7
REMARK    4  A    between atoms: N_7  and  C_8
REMARK    5  A    between atoms: C_11  and  C_12
REMARK    6  A    between atoms: N_14  and  C_15
REMARK    7  A    between atoms: C_18  and  N_19
REMARK    8  A    between atoms: N_19  and  C_20
REMARK    9  A    between atoms: N_23  and  C_24
REMARK   10  A    between atoms: C_24  and  C_25
REMARK                            x       y       z     vdW  Elec       q    Type
REMARK                         _______ _______ _______ _____ _____    ______ ____
ROOT
ATOM      1  C   UNL     1       1.434   7.619  20.448  0.00  0.00    +0.000 C 
ATOM      2  O   UNL     1       0.817   7.316  21.482  0.00  0.00    +0.000 OA
ATOM      3  N   UNL     1       1.350   8.876  19.844  0.00  0.00    +0.000 N 
ATOM      4  H   UNL     1       1.798   8.958  18.937  0.00  0.00    +0.000 HD
ENDROOT
BRANCH   1   8
ATOM      5  C   UNL     1       3.937   4.664  18.321  0.00  0.00    +0.000 A 
ATOM      6  C   UNL     1       3.157   5.611  17.653  0.00  0.00    +0.000 A 
ATOM      7  C   UNL     1       2.344   6.517  18.359  0.00  0.00    +0.000 A 
ATOM      8  C   UNL     1       2.244   6.508  19.762  0.00  0.00    +0.000 A 
ATOM      9  C   UNL     1       2.940   5.480  20.425  0.00  0.00    +0.000 A 
ATOM     10  C   UNL     1       3.776   4.576  19.708  0.00  0.00    +0.000 A 
BRANCH   5  11
ATOM     11  N   UNL     1       4.893   3.884  17.616  0.00  0.00    +0.000 N 
ATOM     12  H   UNL     1       5.457   3.316  18.243  0.00  0.00    +0.000 HD
BRANCH  11  16
ATOM     13  N   UNL     1       7.005   4.758  14.081  0.00  0.00    +0.000 N 
ATOM     14  C   UNL     1       7.397   5.311  15.248  0.00  0.00    +0.000 A 
ATOM     15  C   UNL     1       6.704   5.051  16.426  0.00  0.00    +0.000 A 
ATOM     16  C   UNL     1       5.579   4.223  16.426  0.00  0.00    +0.000 A 
ATOM     17  C   UNL     1       5.145   3.745  15.186  0.00  0.00    +0.000 A 
ATOM     18  C   UNL     1       5.873   4.020  14.027  0.00  0.00    +0.000 A 
BRANCH  13  20
ATOM     19  C   UNL     1       7.215   4.184  11.704  0.00  0.00    +0.000 C 
ATOM     20  C   UNL     1       7.857   4.883  12.881  0.00  0.00    +0.000 C 
ENDBRANCH  13  20
ENDBRANCH  11  16
ENDBRANCH   5  11
ENDBRANCH   1   8
BRANCH   3  21
ATOM     21  C   UNL     1       0.538  10.013  20.232  0.00  0.00    +0.000 A 
ATOM     22  C   UNL     1       0.734  10.842  21.342  0.00  0.00    +0.000 A 
ATOM     23  C   UNL     1      -0.209  11.876  21.717  0.00  0.00    +0.000 A 
ATOM     24  C   UNL     1      -1.420  12.106  21.042  0.00  0.00    +0.000 A 
ATOM     25  C   UNL     1      -1.536  11.353  19.842  0.00  0.00    +0.000 A 
ATOM     26  C   UNL     1      -0.578  10.338  19.453  0.00  0.00    +0.000 A 
BRANCH  24  27
ATOM     27  N   UNL     1      -2.470  12.967  21.547  0.00  0.00    +0.000 N 
ATOM     28  H   UNL     1      -2.028  13.756  21.054  0.00  0.00    +0.000 HD
BRANCH  27  29
ATOM     29  C   UNL     1      -3.501  13.883  21.991  0.00  0.00    +0.000 A 
ATOM     30  C   UNL     1      -2.989  14.860  22.838  0.00  0.00    +0.000 A 
ATOM     31  C   UNL     1      -3.647  16.078  22.812  0.00  0.00    +0.000 A 
ATOM     32  N   UNL     1      -4.955  15.983  23.082  0.00  0.00    +0.000 N 
ATOM     33  C   UNL     1      -5.702  15.095  22.371  0.00  0.00    +0.000 A 
ATOM     34  C   UNL     1      -7.108  15.336  22.322  0.00  0.00    +0.000 A 
ATOM     35  C   UNL     1      -7.915  14.673  21.435  0.00  0.00    +0.000 A 
ATOM     36  C   UNL     1      -7.305  13.743  20.608  0.00  0.00    +0.000 A 
ATOM     37  C   UNL     1      -5.905  13.414  20.721  0.00  0.00    +0.000 A 
ATOM     38  C   UNL     1      -4.982  14.052  21.640  0.00  0.00    +0.000 A 
BRANCH  32  39
ATOM     39  C   UNL     1      -5.440  16.618  24.325  0.00  0.00    +0.000 C 
ATOM     40  C   UNL     1      -5.388  18.127  24.213  0.00  0.00    +0.000 C 
ENDBRANCH  32  39
ENDBRANCH  27  29
ENDBRANCH  24  27
ENDBRANCH   3  21
TORSDOF 8
ENDMDL
MODEL 7
REMARK VINA RESULT:      -6.8      1.524      2.216
REMARK  Name = 
REMARK  10 active torsions:
REMARK  status: ('A' for Active; 'I' for Inactive)
REMARK    1  A    between atoms: C_1  and  C_2
REMARK    2  A    between atoms: C_2  and  N_3
REMARK    3  A    between atoms: C_6  and  N_7
REMARK    4  A    between atoms: N_7  and  C_8
REMARK    5  A    between atoms: C_11  and  C_12
REMARK    6  A    between atoms: N_14  and  C_15
REMARK    7  A    between atoms: C_18  and  N_19
REMARK    8  A    between atoms: N_19  and  C_20
REMARK    9  A    between atoms: N_23  and  C_24
REMARK   10  A    between atoms: C_24  and  C_25
REMARK                            x       y       z     vdW  Elec       q    Type
REMARK                         _______ _______ _______ _____ _____    ______ ____
ROOT
ATOM      1  C   UNL     1       2.084   7.472  19.771  0.00  0.00    +0.000 C 
ATOM      2  O   UNL     1       1.583   6.815  20.698  0.00  0.00    +0.000 OA
ATOM      3  N   UNL     1       1.711   8.786  19.472  0.00  0.00    +0.000 N 
ATOM      4  H   UNL     1       2.098   9.167  18.615  0.00  0.00    +0.000 HD
ENDROOT
BRANCH   1   8
ATOM      5  C   UNL     1       5.159   5.671  17.161  0.00  0.00    +0.000 A 
ATOM      6  C   UNL     1       4.486   6.848  16.829  0.00  0.00    +0.000 A 
ATOM      7  C   UNL     1       3.486   7.378  17.666  0.00  0.00    +0.000 A 
ATOM      8  C   UNL     1       3.088   6.750  18.860  0.00  0.00    +0.000 A 
ATOM      9  C   UNL     1       3.687   5.506  19.133  0.00  0.00    +0.000 A 
ATOM     10  C   UNL     1       4.710   4.982  18.293  0.00  0.00    +0.000 A 
BRANCH   5  11
ATOM     11  N   UNL     1       6.291   5.246  16.412  0.00  0.00    +0.000 N 
ATOM     12  H   UNL     1       7.131   5.757  16.671  0.00  0.00    +0.000 HD
BRANCH  11  16
ATOM     13  N   UNL     1       6.422   3.767  12.473  0.00  0.00    +0.000 N 
ATOM     14  C   UNL     1       7.430   4.537  12.932  0.00  0.00    +0.000 A 
ATOM     15  C   UNL     1       7.401   5.053  14.223  0.00  0.00    +0.000 A 
ATOM     16  C   UNL     1       6.321   4.796  15.071  0.00  0.00    +0.000 A 
ATOM     17  C   UNL     1       5.251   4.075  14.532  0.00  0.00    +0.000 A 
ATOM     18  C   UNL     1       5.323   3.566  13.234  0.00  0.00    +0.000 A 
BRANCH  13  20
ATOM     19  C   UNL     1       7.415   1.834  11.332  0.00  0.00    +0.000 C 
ATOM     20  C   UNL     1       6.556   3.069  11.179  0.00  0.00    +0.000 C 
ENDBRANCH  13  20
ENDBRANCH  11  16
ENDBRANCH   5  11
ENDBRANCH   1   8
BRANCH   3  21
ATOM     21  C   UNL     1       0.688   9.599  20.099  0.00  0.00    +0.000 A 
ATOM     22  C   UNL     1      -0.380  10.241  19.460  0.00  0.00    +0.000 A 
ATOM     23  C   UNL     1      -1.278  11.139  20.157  0.00  0.00    +0.000 A 
ATOM     24  C   UNL     1      -1.133  11.486  21.511  0.00  0.00    +0.000 A 
ATOM     25  C   UNL     1      -0.135  10.722  22.175  0.00  0.00    +0.000 A 
ATOM     26  C   UNL     1       0.745   9.803  21.481  0.00  0.00    +0.000 A 
BRANCH  24  27
ATOM     27  N   UNL     1      -1.873  12.556  22.149  0.00  0.00    +0.000 N 
ATOM     28  H   UNL     1      -0.980  13.043  22.315  0.00  0.00    +0.000 HD
BRANCH  27  29
ATOM     29  C   UNL     1      -2.545  13.678  22.774  0.00  0.00    +0.000 A 
ATOM     30  C   UNL     1      -1.639  14.612  23.262  0.00  0.00    +0.000 A 
ATOM     31  C   UNL     1      -2.084  15.922  23.284  0.00  0.00    +0.000 A 
ATOM     32  N   UNL     1      -3.218  16.089  23.977  0.00  0.00    +0.000 N 
ATOM     33  C   UNL     1      -4.283  15.295  23.680  0.00  0.00    +0.000 A 
ATOM     34  C   UNL     1      -5.570  15.781  24.061  0.00  0.00    +0.000 A 
ATOM     35  C   UNL     1      -6.720  15.205  23.587  0.00  0.00    +0.000 A 
ATOM     36  C   UNL     1      -6.572  14.115  22.744  0.00  0.00    +0.000 A 
ATOM     37  C   UNL     1      -5.281  13.548  22.437  0.00  0.00    +0.000 A 
ATOM     38  C   UNL     1      -4.016  14.082  22.906  0.00  0.00    +0.000 A 
BRANCH  32  39
ATOM     39  C   UNL     1      -3.148  16.901  25.210  0.00  0.00    +0.000 C 
ATOM     40  C   UNL     1      -2.672  18.304  24.901  0.00  0.00    +0.000 C 
ENDBRANCH  32  39
ENDBRANCH  27  29
ENDBRANCH  24  27
ENDBRANCH   3  21
TORSDOF 8
ENDMDL
MODEL 8
REMARK VINA RESULT:      -6.7      1.859      2.794
REMARK  Name = 
REMARK  10 active torsions:
REMARK  status: ('A' for Active; 'I' for Inactive)
REMARK    1  A    between atoms: C_1  and  C_2
REMARK    2  A    between atoms: C_2  and  N_3
REMARK    3  A    between atoms: C_6  and  N_7
REMARK    4  A    between atoms: N_7  and  C_8
REMARK    5  A    between atoms: C_11  and  C_12
REMARK    6  A    between atoms: N_14  and  C_15
REMARK    7  A    between atoms: C_18  and  N_19
REMARK    8  A    between atoms: N_19  and  C_20
REMARK    9  A    between atoms: N_23  and  C_24
REMARK   10  A    between atoms: C_24  and  C_25
REMARK                            x       y       z     vdW  Elec       q    Type
REMARK                         _______ _______ _______ _____ _____    ______ ____
ROOT
ATOM      1  C   UNL     1       1.443   7.409  20.597  0.00  0.00    +0.000 C 
ATOM      2  O   UNL     1       0.750   7.032  21.557  0.00  0.00    +0.000 OA
ATOM      3  N   UNL     1       1.458   8.726  20.130  0.00  0.00    +0.000 N 
ATOM      4  H   UNL     1       1.964   8.878  19.264  0.00  0.00    +0.000 HD
ENDROOT
BRANCH   1   8
ATOM      5  C   UNL     1       3.932   4.560  18.315  0.00  0.00    +0.000 A 
ATOM      6  C   UNL     1       3.282   5.641  17.715  0.00  0.00    +0.000 A 
ATOM      7  C   UNL     1       2.468   6.511  18.464  0.00  0.00    +0.000 A 
ATOM      8  C   UNL     1       2.238   6.334  19.841  0.00  0.00    +0.000 A 
ATOM      9  C   UNL     1       2.801   5.180  20.418  0.00  0.00    +0.000 A 
ATOM     10  C   UNL     1       3.638   4.312  19.660  0.00  0.00    +0.000 A 
BRANCH   5  11
ATOM     11  N   UNL     1       4.896   3.803  17.595  0.00  0.00    +0.000 N 
ATOM     12  H   UNL     1       5.446   3.207  18.208  0.00  0.00    +0.000 HD
BRANCH  11  16
ATOM     13  N   UNL     1       7.071   4.807  14.133  0.00  0.00    +0.000 N 
ATOM     14  C   UNL     1       7.473   5.273  15.334  0.00  0.00    +0.000 A 
ATOM     15  C   UNL     1       6.761   4.970  16.490  0.00  0.00    +0.000 A 
ATOM     16  C   UNL     1       5.605   4.187  16.433  0.00  0.00    +0.000 A 
ATOM     17  C   UNL     1       5.164   3.802  15.163  0.00  0.00    +0.000 A 
ATOM     18  C   UNL     1       5.913   4.118  14.028  0.00  0.00    +0.000 A 
BRANCH  13  20
ATOM     19  C   UNL     1       7.278   4.372  11.727  0.00  0.00    +0.000 C 
ATOM     20  C   UNL     1       7.938   4.971  12.949  0.00  0.00    +0.000 C 
ENDBRANCH  13  20
ENDBRANCH  11  16
ENDBRANCH   5  11
ENDBRANCH   1   8
BRANCH   3  21
ATOM     21  C   UNL     1       0.679   9.858  20.594  0.00  0.00    +0.000 A 
ATOM     22  C   UNL     1       0.522  11.088  19.945  0.00  0.00    +0.000 A 
ATOM     23  C   UNL     1      -0.173  12.204  20.552  0.00  0.00    +0.000 A 
ATOM     24  C   UNL     1      -0.704  12.176  21.853  0.00  0.00    +0.000 A 
ATOM     25  C   UNL     1      -0.659  10.882  22.441  0.00  0.00    +0.000 A 
ATOM     26  C   UNL     1       0.013   9.758  21.820  0.00  0.00    +0.000 A 
BRANCH  24  27
ATOM     27  N   UNL     1      -1.183  13.352  22.550  0.00  0.00    +0.000 N 
ATOM     28  H   UNL     1      -0.284  13.391  23.053  0.00  0.00    +0.000 HD
BRANCH  27  29
ATOM     29  C   UNL     1      -1.581  14.547  23.266  0.00  0.00    +0.000 A 
ATOM     30  C   UNL     1      -0.484  15.328  23.611  0.00  0.00    +0.000 A 
ATOM     31  C   UNL     1      -0.722  16.689  23.695  0.00  0.00    +0.000 A 
ATOM     32  N   UNL     1      -1.703  17.007  24.550  0.00  0.00    +0.000 N 
ATOM     33  C   UNL     1      -2.906  16.384  24.419  0.00  0.00    +0.000 A 
ATOM     34  C   UNL     1      -4.035  17.047  24.986  0.00  0.00    +0.000 A 
ATOM     35  C   UNL     1      -5.315  16.655  24.693  0.00  0.00    +0.000 A 
ATOM     36  C   UNL     1      -5.458  15.572  23.839  0.00  0.00    +0.000 A 
ATOM     37  C   UNL     1      -4.325  14.828  23.344  0.00  0.00    +0.000 A 
ATOM     38  C   UNL     1      -2.940  15.161  23.616  0.00  0.00    +0.000 A 
BRANCH  32  39
ATOM     39  C   UNL     1      -1.330  17.776  25.756  0.00  0.00    +0.000 C 
ATOM     40  C   UNL     1      -0.754  16.863  26.817  0.00  0.00    +0.000 C 
ENDBRANCH  32  39
ENDBRANCH  27  29
ENDBRANCH  24  27
ENDBRANCH   3  21
TORSDOF 8
ENDMDL
MODEL 9
REMARK VINA RESULT:      -6.7      1.462      1.878
REMARK  Name = 
REMARK  10 active torsions:
REMARK  status: ('A' for Active; 'I' for Inactive)
REMARK    1  A    between atoms: C_1  and  C_2
REMARK    2  A    between atoms: C_2  and  N_3
REMARK    3  A    between atoms: C_6  and  N_7
REMARK    4  A    between atoms: N_7  and  C_8
REMARK    5  A    between atoms: C_11  and  C_12
REMARK    6  A    between atoms: N_14  and  C_15
REMARK    7  A    between atoms: C_18  and  N_19
REMARK    8  A    between atoms: N_19  and  C_20
REMARK    9  A    between atoms: N_23  and  C_24
REMARK   10  A    between atoms: C_24  and  C_25
REMARK                            x       y       z     vdW  Elec       q    Type
REMARK                         _______ _______ _______ _____ _____    ______ ____
ROOT
ATOM      1  C   UNL     1       1.214   8.146  20.670  0.00  0.00    +0.000 C 
ATOM      2  O   UNL     1       0.707   7.993  21.794  0.00  0.00    +0.000 OA
ATOM      3  N   UNL     1       1.068   9.312  19.913  0.00  0.00    +0.000 N 
ATOM      4  H   UNL     1       1.420   9.264  18.962  0.00  0.00    +0.000 HD
ENDROOT
BRANCH   1   8
ATOM      5  C   UNL     1       3.579   4.889  18.848  0.00  0.00    +0.000 A 
ATOM      6  C   UNL     1       3.208   6.037  18.142  0.00  0.00    +0.000 A 
ATOM      7  C   UNL     1       2.425   7.041  18.741  0.00  0.00    +0.000 A 
ATOM      8  C   UNL     1       1.949   6.942  20.061  0.00  0.00    +0.000 A 
ATOM      9  C   UNL     1       2.227   5.734  20.730  0.00  0.00    +0.000 A 
ATOM     10  C   UNL     1       3.035   4.728  20.126  0.00  0.00    +0.000 A 
BRANCH   5  11
ATOM     11  N   UNL     1       4.521   3.975  18.301  0.00  0.00    +0.000 N 
ATOM     12  H   UNL     1       4.927   3.377  19.016  0.00  0.00    +0.000 HD
BRANCH  11  16
ATOM     13  N   UNL     1       7.022   4.703  14.995  0.00  0.00    +0.000 N 
ATOM     14  C   UNL     1       6.192   3.639  14.984  0.00  0.00    +0.000 A 
ATOM     15  C   UNL     1       5.370   3.367  16.072  0.00  0.00    +0.000 A 
ATOM     16  C   UNL     1       5.392   4.182  17.207  0.00  0.00    +0.000 A 
ATOM     17  C   UNL     1       6.331   5.218  17.223  0.00  0.00    +0.000 A 
ATOM     18  C   UNL     1       7.133   5.464  16.106  0.00  0.00    +0.000 A 
BRANCH  13  20
ATOM     19  C   UNL     1       7.189   4.342  12.573  0.00  0.00    +0.000 C 
ATOM     20  C   UNL     1       7.742   5.091  13.765  0.00  0.00    +0.000 C 
ENDBRANCH  13  20
ENDBRANCH  11  16
ENDBRANCH   5  11
ENDBRANCH   1   8
BRANCH   3  21
ATOM     21  C   UNL     1       0.300  10.501  20.225  0.00  0.00    +0.000 A 
ATOM     22  C   UNL     1       0.330  11.228  21.420  0.00  0.00    +0.000 A 
ATOM     23  C   UNL     1      -0.571  12.331  21.684  0.00  0.00    +0.000 A 
ATOM     24  C   UNL     1      -1.584  12.736  20.798  0.00  0.00    +0.000 A 
ATOM     25  C   UNL     1      -1.510  12.082  19.537  0.00  0.00    +0.000 A 
ATOM     26  C   UNL     1      -0.589  10.998  19.265  0.00  0.00    +0.000 A 
BRANCH  24  27
ATOM     27  N   UNL     1      -2.633  13.670  21.151  0.00  0.00    +0.000 N 
ATOM     28  H   UNL     1      -3.008  12.965  21.803  0.00  0.00    +0.000 HD
BRANCH  27  29
ATOM     29  C   UNL     1      -3.696  14.559  21.576  0.00  0.00    +0.000 A 
ATOM     30  C   UNL     1      -3.454  15.870  21.183  0.00  0.00    +0.000 A 
ATOM     31  C   UNL     1      -4.580  16.642  20.949  0.00  0.00    +0.000 A 
ATOM     32  N   UNL     1      -5.412  16.702  21.997  0.00  0.00    +0.000 N 
ATOM     33  C   UNL     1      -5.820  15.537  22.570  0.00  0.00    +0.000 A 
ATOM     34  C   UNL     1      -7.026  15.587  23.331  0.00  0.00    +0.000 A 
ATOM     35  C   UNL     1      -7.667  14.442  23.728  0.00  0.00    +0.000 A 
ATOM     36  C   UNL     1      -7.075  13.239  23.377  0.00  0.00    +0.000 A 
ATOM     37  C   UNL     1      -5.802  13.176  22.701  0.00  0.00    +0.000 A 
ATOM     38  C   UNL     1      -5.047  14.334  22.260  0.00  0.00    +0.000 A 
BRANCH  32  39
ATOM     39  C   UNL     1      -5.588  18.017  22.649  0.00  0.00    +0.000 C 
ATOM     40  C   UNL     1      -4.546  18.225  23.727  0.00  0.00    +0.000 C 
ENDBRANCH  32  39
ENDBRANCH  27  29
ENDBRANCH  24  27
ENDBRANCH   3  21
TORSDOF 8
ENDMDL
