MODEL 1
REMARK VINA RESULT:      -8.0      0.000      0.000
REMARK  Name = 
REMARK  10 active torsions:
REMARK  status: ('A' for Active; 'I' for Inactive)
REMARK    1  A    between atoms: C_1  and  C_2
REMARK    2  A    between atoms: C_2  and  C_3
REMARK    3  A    between atoms: C_3  and  C_4
REMARK    4  A    between atoms: C_4  and  C_5
REMARK    5  A    between atoms: C_5  and  C_6
REMARK    6  A    between atoms: C_6  and  C_7
REMARK    7  A    between atoms: C_7  and  C_8
REMARK    8  A    between atoms: C_8  and  N_9
REMARK    9  A    between atoms: C_23  and  O_24
REMARK   10  A    between atoms: O_24  and  C_25
REMARK                            x       y       z     vdW  Elec       q    Type
REMARK                         _______ _______ _______ _____ _____    ______ ____
ROOT
ATOM      1  N   UNL     1       6.320   5.236  16.943  0.00  0.00    +0.000 N 
ATOM      2  C   UNL     1       6.603   5.071  15.571  0.00  0.00    +0.000 A 
ATOM      3  N   UNL     1       7.657   5.612  15.032  0.00  0.00    +0.000 NA
ATOM      4  C   UNL     1       7.969   5.434  13.715  0.00  0.00    +0.000 A 
ATOM      5  O   UNL     1       8.978   5.918  13.214  0.00  0.00    +0.000 OA
ATOM      6  N   UNL     1       7.150   4.678  12.929  0.00  0.00    +0.000 N 
ATOM      7  C   UNL     1       6.015   4.034  13.326  0.00  0.00    +0.000 A 
ATOM      8  O   UNL     1       5.343   3.343  12.573  0.00  0.00    +0.000 OA
ATOM      9  C   UNL     1       5.689   4.249  14.741  0.00  0.00    +0.000 A 
ATOM     10  C   UNL     1       4.604   3.718  15.325  0.00  0.00    +0.000 A 
ATOM     11  C   UNL     1       4.293   3.946  16.734  0.00  0.00    +0.000 A 
ATOM     12  C   UNL     1       5.125   4.689  17.496  0.00  0.00    +0.000 A 
ATOM     13  C   UNL     1       4.746   4.941  18.939  0.00  0.00    +0.000 C 
ATOM     14  O   UNL     1       5.394   5.695  19.664  0.00  0.00    +0.000 OA
ATOM     15  C   UNL     1       3.533   4.268  19.506  0.00  0.00    +0.000 C 
ATOM     16  C   UNL     1       2.756   3.527  18.712  0.00  0.00    +0.000 C 
ATOM     17  C   UNL     1       3.054   3.335  17.287  0.00  0.00    +0.000 C 
ATOM     18  O   UNL     1       2.289   2.668  16.598  0.00  0.00    +0.000 OA
ATOM     19  H   UNL     1       7.442   4.562  11.971  0.00  0.00    +0.000 HD
ENDROOT
BRANCH  15  20
ATOM     20  O   UNL     1       3.318   4.501  20.851  0.00  0.00    +0.000 OA
ATOM     21  C   UNL     1       2.246   3.842  21.511  0.00  0.00    +0.000 C 
ENDBRANCH  15  20
BRANCH   1  22
ATOM     22  C   UNL     1       7.345   5.928  17.746  0.00  0.00    +0.000 C 
BRANCH  22  23
ATOM     23  C   UNL     1       7.305   7.433  17.498  0.00  0.00    +0.000 C 
BRANCH  23  24
ATOM     24  C   UNL     1       8.323   8.133  18.391  0.00  0.00    +0.000 C 
BRANCH  24  25
ATOM     25  C   UNL     1       8.379   9.627  18.100  0.00  0.00    +0.000 C 
BRANCH  25  26
ATOM     26  C   UNL     1       9.429  10.302  18.976  0.00  0.00    +0.000 C 
BRANCH  26  27
ATOM     27  C   UNL     1       9.758  11.694  18.447  0.00  0.00    +0.000 C 
BRANCH  27  29
ATOM     28  C   UNL     1      11.376  13.053  17.100  0.00  0.00    +0.000 C 
ATOM     29  C   UNL     1      11.116  11.708  17.754  0.00  0.00    +0.000 C 
ENDBRANCH  27  29
ENDBRANCH  26  27
ENDBRANCH  25  26
ENDBRANCH  24  25
ENDBRANCH  23  24
ENDBRANCH  22  23
ENDBRANCH   1  22
TORSDOF 8
ENDMDL
MODEL 2
REMARK VINA RESULT:      -7.9      4.381      7.257
REMARK  Name = 
REMARK  10 active torsions:
REMARK  status: ('A' for Active; 'I' for Inactive)
REMARK    1  A    between atoms: C_1  and  C_2
REMARK    2  A    between atoms: C_2  and  C_3
REMARK    3  A    between atoms: C_3  and  C_4
REMARK    4  A    between atoms: C_4  and  C_5
REMARK    5  A    between atoms: C_5  and  C_6
REMARK    6  A    between atoms: C_6  and  C_7
REMARK    7  A    between atoms: C_7  and  C_8
REMARK    8  A    between atoms: C_8  and  N_9
REMARK    9  A    between atoms: C_23  and  O_24
REMARK   10  A    between atoms: O_24  and  C_25
REMARK                            x       y       z     vdW  Elec       q    Type
REMARK                         _______ _______ _______ _____ _____    ______ ____
ROOT
ATOM      1  N   UNL     1       2.986   5.977  18.414  0.00  0.00    +0.000 N 
ATOM      2  C   UNL     1       2.996   4.751  19.111  0.00  0.00    +0.000 A 
ATOM      3  N   UNL     1       3.550   3.690  18.599  0.00  0.00    +0.000 NA
ATOM      4  C   UNL     1       3.604   2.504  19.273  0.00  0.00    +0.000 A 
ATOM      5  O   UNL     1       4.153   1.513  18.804  0.00  0.00    +0.000 OA
ATOM      6  N   UNL     1       3.050   2.416  20.516  0.00  0.00    +0.000 N 
ATOM      7  C   UNL     1       2.438   3.421  21.205  0.00  0.00    +0.000 A 
ATOM      8  O   UNL     1       1.991   3.280  22.334  0.00  0.00    +0.000 OA
ATOM      9  C   UNL     1       2.380   4.684  20.458  0.00  0.00    +0.000 A 
ATOM     10  C   UNL     1       1.804   5.792  20.950  0.00  0.00    +0.000 A 
ATOM     11  C   UNL     1       1.750   7.039  20.192  0.00  0.00    +0.000 A 
ATOM     12  C   UNL     1       2.316   7.108  18.966  0.00  0.00    +0.000 A 
ATOM     13  C   UNL     1       2.201   8.402  18.192  0.00  0.00    +0.000 C 
ATOM     14  O   UNL     1       2.592   8.508  17.030  0.00  0.00    +0.000 OA
ATOM     15  C   UNL     1       1.573   9.594  18.848  0.00  0.00    +0.000 C 
ATOM     16  C   UNL     1       1.047   9.476  20.070  0.00  0.00    +0.000 C 
ATOM     17  C   UNL     1       1.070   8.209  20.811  0.00  0.00    +0.000 C 
ATOM     18  O   UNL     1       0.545   8.150  21.918  0.00  0.00    +0.000 OA
ATOM     19  H   UNL     1       3.139   1.522  20.975  0.00  0.00    +0.000 HD
ENDROOT
BRANCH  15  20
ATOM     20  O   UNL     1       1.586  10.748  18.087  0.00  0.00    +0.000 OA
ATOM     21  C   UNL     1       2.166  11.930  18.619  0.00  0.00    +0.000 C 
ENDBRANCH  15  20
BRANCH   1  22
ATOM     22  C   UNL     1       3.751   6.021  17.153  0.00  0.00    +0.000 C 
BRANCH  22  23
ATOM     23  C   UNL     1       5.229   6.288  17.423  0.00  0.00    +0.000 C 
BRANCH  23  24
ATOM     24  C   UNL     1       6.087   5.353  16.579  0.00  0.00    +0.000 C 
BRANCH  24  25
ATOM     25  C   UNL     1       5.715   5.441  15.105  0.00  0.00    +0.000 C 
BRANCH  25  26
ATOM     26  C   UNL     1       5.761   4.060  14.459  0.00  0.00    +0.000 C 
BRANCH  26  27
ATOM     27  C   UNL     1       6.553   4.100  13.157  0.00  0.00    +0.000 C 
BRANCH  27  29
ATOM     28  C   UNL     1       4.588   3.378  11.779  0.00  0.00    +0.000 C 
ATOM     29  C   UNL     1       6.024   3.071  12.164  0.00  0.00    +0.000 C 
ENDBRANCH  27  29
ENDBRANCH  26  27
ENDBRANCH  25  26
ENDBRANCH  24  25
ENDBRANCH  23  24
ENDBRANCH  22  23
ENDBRANCH   1  22
TORSDOF 8
ENDMDL
MODEL 3
REMARK VINA RESULT:      -7.9      3.466      5.881
REMARK  Name = 
REMARK  10 active torsions:
REMARK  status: ('A' for Active; 'I' for Inactive)
REMARK    1  A    between atoms: C_1  and  C_2
REMARK    2  A    between atoms: C_2  and  C_3
REMARK    3  A    between atoms: C_3  and  C_4
REMARK    4  A    between atoms: C_4  and  C_5
REMARK    5  A    between atoms: C_5  and  C_6
REMARK    6  A    between atoms: C_6  and  C_7
REMARK    7  A    between atoms: C_7  and  C_8
REMARK    8  A    between atoms: C_8  and  N_9
REMARK    9  A    between atoms: C_23  and  O_24
REMARK   10  A    between atoms: O_24  and  C_25
REMARK                            x       y       z     vdW  Elec       q    Type
REMARK                         _______ _______ _______ _____ _____    ______ ____
ROOT
ATOM      1  N   UNL     1       3.359   5.833  18.592  0.00  0.00    +0.000 N 
ATOM      2  C   UNL     1       3.290   4.625  19.315  0.00  0.00    +0.000 A 
ATOM      3  N   UNL     1       3.945   3.569  18.927  0.00  0.00    +0.000 NA
ATOM      4  C   UNL     1       3.922   2.401  19.633  0.00  0.00    +0.000 A 
ATOM      5  O   UNL     1       4.564   1.417  19.285  0.00  0.00    +0.000 OA
ATOM      6  N   UNL     1       3.179   2.325  20.775  0.00  0.00    +0.000 N 
ATOM      7  C   UNL     1       2.440   3.328  21.330  0.00  0.00    +0.000 A 
ATOM      8  O   UNL     1       1.823   3.199  22.377  0.00  0.00    +0.000 OA
ATOM      9  C   UNL     1       2.468   4.570  20.549  0.00  0.00    +0.000 A 
ATOM     10  C   UNL     1       1.794   5.671  20.912  0.00  0.00    +0.000 A 
ATOM     11  C   UNL     1       1.829   6.899  20.121  0.00  0.00    +0.000 A 
ATOM     12  C   UNL     1       2.580   6.956  18.999  0.00  0.00    +0.000 A 
ATOM     13  C   UNL     1       2.557   8.228  18.181  0.00  0.00    +0.000 C 
ATOM     14  O   UNL     1       3.125   8.318  17.093  0.00  0.00    +0.000 OA
ATOM     15  C   UNL     1       1.802   9.416  18.696  0.00  0.00    +0.000 C 
ATOM     16  C   UNL     1       1.091   9.310  19.823  0.00  0.00    +0.000 C 
ATOM     17  C   UNL     1       1.028   8.061  20.592  0.00  0.00    +0.000 C 
ATOM     18  O   UNL     1       0.336   8.013  21.603  0.00  0.00    +0.000 OA
ATOM     19  H   UNL     1       3.217   1.445  21.267  0.00  0.00    +0.000 HD
ENDROOT
BRANCH  15  20
ATOM     20  O   UNL     1       1.906  10.551  17.915  0.00  0.00    +0.000 OA
ATOM     21  C   UNL     1       1.925  11.828  18.537  0.00  0.00    +0.000 C 
ENDBRANCH  15  20
BRANCH   1  22
ATOM     22  C   UNL     1       4.314   5.871  17.467  0.00  0.00    +0.000 C 
BRANCH  22  23
ATOM     23  C   UNL     1       5.751   5.940  17.976  0.00  0.00    +0.000 C 
BRANCH  23  24
ATOM     24  C   UNL     1       6.568   6.878  17.096  0.00  0.00    +0.000 C 
BRANCH  24  25
ATOM     25  C   UNL     1       7.765   7.442  17.850  0.00  0.00    +0.000 C 
BRANCH  25  26
ATOM     26  C   UNL     1       7.805   8.962  17.729  0.00  0.00    +0.000 C 
BRANCH  26  27
ATOM     27  C   UNL     1       8.825   9.553  18.696  0.00  0.00    +0.000 C 
BRANCH  27  29
ATOM     28  C   UNL     1      10.617  11.304  18.746  0.00  0.00    +0.000 C 
ATOM     29  C   UNL     1       9.209  10.970  18.285  0.00  0.00    +0.000 C 
ENDBRANCH  27  29
ENDBRANCH  26  27
ENDBRANCH  25  26
ENDBRANCH  24  25
ENDBRANCH  23  24
ENDBRANCH  22  23
ENDBRANCH   1  22
TORSDOF 8
ENDMDL
MODEL 4
REMARK VINA RESULT:      -7.8      3.742      6.305
REMARK  Name = 
REMARK  10 active torsions:
REMARK  status: ('A' for Active; 'I' for Inactive)
REMARK    1  A    between atoms: C_1  and  C_2
REMARK    2  A    between atoms: C_2  and  C_3
REMARK    3  A    between atoms: C_3  and  C_4
REMARK    4  A    between atoms: C_4  and  C_5
REMARK    5  A    between atoms: C_5  and  C_6
REMARK    6  A    between atoms: C_6  and  C_7
REMARK    7  A    between atoms: C_7  and  C_8
REMARK    8  A    between atoms: C_8  and  N_9
REMARK    9  A    between atoms: C_23  and  O_24
REMARK   10  A    between atoms: O_24  and  C_25
REMARK                            x       y       z     vdW  Elec       q    Type
REMARK                         _______ _______ _______ _____ _____    ______ ____
ROOT
ATOM      1  N   UNL     1       2.690   6.237  18.437  0.00  0.00    +0.000 N 
ATOM      2  C   UNL     1       2.725   4.968  19.051  0.00  0.00    +0.000 A 
ATOM      3  N   UNL     1       3.214   3.934  18.430  0.00  0.00    +0.000 NA
ATOM      4  C   UNL     1       3.291   2.705  19.020  0.00  0.00    +0.000 A 
ATOM      5  O   UNL     1       3.780   1.737  18.448  0.00  0.00    +0.000 OA
ATOM      6  N   UNL     1       2.831   2.545  20.294  0.00  0.00    +0.000 N 
ATOM      7  C   UNL     1       2.297   3.513  21.091  0.00  0.00    +0.000 A 
ATOM      8  O   UNL     1       1.934   3.306  22.240  0.00  0.00    +0.000 OA
ATOM      9  C   UNL     1       2.211   4.823  20.435  0.00  0.00    +0.000 A 
ATOM     10  C   UNL     1       1.700   5.906  21.039  0.00  0.00    +0.000 A 
ATOM     11  C   UNL     1       1.617   7.202  20.370  0.00  0.00    +0.000 A 
ATOM     12  C   UNL     1       2.090   7.341  19.111  0.00  0.00    +0.000 A 
ATOM     13  C   UNL     1       1.946   8.686  18.433  0.00  0.00    +0.000 C 
ATOM     14  O   UNL     1       2.251   8.861  17.254  0.00  0.00    +0.000 OA
ATOM     15  C   UNL     1       1.397   9.843  19.211  0.00  0.00    +0.000 C 
ATOM     16  C   UNL     1       0.963   9.654  20.460  0.00  0.00    +0.000 C 
ATOM     17  C   UNL     1       1.013   8.340  21.113  0.00  0.00    +0.000 C 
ATOM     18  O   UNL     1       0.573   8.218  22.252  0.00  0.00    +0.000 OA
ATOM     19  H   UNL     1       2.934   1.621  20.687  0.00  0.00    +0.000 HD
ENDROOT
BRANCH  15  20
ATOM     20  O   UNL     1       1.379  11.044  18.527  0.00  0.00    +0.000 OA
ATOM     21  C   UNL     1       1.270  12.260  19.253  0.00  0.00    +0.000 C 
ENDBRANCH  15  20
BRANCH   1  22
ATOM     22  C   UNL     1       3.358   6.351  17.127  0.00  0.00    +0.000 C 
BRANCH  22  23
ATOM     23  C   UNL     1       4.824   6.741  17.296  0.00  0.00    +0.000 C 
BRANCH  23  24
ATOM     24  C   UNL     1       5.708   5.794  16.494  0.00  0.00    +0.000 C 
BRANCH  24  25
ATOM     25  C   UNL     1       7.184   6.111  16.695  0.00  0.00    +0.000 C 
BRANCH  25  26
ATOM     26  C   UNL     1       7.580   5.907  18.154  0.00  0.00    +0.000 C 
BRANCH  26  27
ATOM     27  C   UNL     1       8.218   7.170  18.721  0.00  0.00    +0.000 C 
BRANCH  27  29
ATOM     28  C   UNL     1       8.619   9.618  18.363  0.00  0.00    +0.000 C 
ATOM     29  C   UNL     1       8.042   8.347  17.767  0.00  0.00    +0.000 C 
ENDBRANCH  27  29
ENDBRANCH  26  27
ENDBRANCH  25  26
ENDBRANCH  24  25
ENDBRANCH  23  24
ENDBRANCH  22  23
ENDBRANCH   1  22
TORSDOF 8
ENDMDL
MODEL 5
REMARK VINA RESULT:      -7.5      4.189      7.415
REMARK  Name = 
REMARK  10 active torsions:
REMARK  status: ('A' for Active; 'I' for Inactive)
REMARK    1  A    between atoms: C_1  and  C_2
REMARK    2  A    between atoms: C_2  and  C_3
REMARK    3  A    between atoms: C_3  and  C_4
REMARK    4  A    between atoms: C_4  and  C_5
REMARK    5  A    between atoms: C_5  and  C_6
REMARK    6  A    between atoms: C_6  and  C_7
REMARK    7  A    between atoms: C_7  and  C_8
REMARK    8  A    between atoms: C_8  and  N_9
REMARK    9  A    between atoms: C_23  and  O_24
REMARK   10  A    between atoms: O_24  and  C_25
REMARK                            x       y       z     vdW  Elec       q    Type
REMARK                         _______ _______ _______ _____ _____    ______ ____
ROOT
ATOM      1  N   UNL     1       2.697   6.530  19.966  0.00  0.00    +0.000 N 
ATOM      2  C   UNL     1       3.697   6.076  19.082  0.00  0.00    +0.000 A 
ATOM      3  N   UNL     1       4.361   4.982  19.321  0.00  0.00    +0.000 NA
ATOM      4  C   UNL     1       5.306   4.505  18.459  0.00  0.00    +0.000 A 
ATOM      5  O   UNL     1       5.910   3.459  18.668  0.00  0.00    +0.000 OA
ATOM      6  N   UNL     1       5.579   5.198  17.316  0.00  0.00    +0.000 N 
ATOM      7  C   UNL     1       4.980   6.352  16.905  0.00  0.00    +0.000 A 
ATOM      8  O   UNL     1       5.252   6.904  15.848  0.00  0.00    +0.000 OA
ATOM      9  C   UNL     1       3.977   6.854  17.850  0.00  0.00    +0.000 A 
ATOM     10  C   UNL     1       3.285   7.985  17.643  0.00  0.00    +0.000 A 
ATOM     11  C   UNL     1       2.292   8.474  18.597  0.00  0.00    +0.000 A 
ATOM     12  C   UNL     1       2.029   7.765  19.717  0.00  0.00    +0.000 A 
ATOM     13  C   UNL     1       1.029   8.325  20.704  0.00  0.00    +0.000 C 
ATOM     14  O   UNL     1       0.818   7.795  21.795  0.00  0.00    +0.000 OA
ATOM     15  C   UNL     1       0.280   9.576  20.358  0.00  0.00    +0.000 C 
ATOM     16  C   UNL     1       0.566  10.226  19.226  0.00  0.00    +0.000 C 
ATOM     17  C   UNL     1       1.592   9.750  18.291  0.00  0.00    +0.000 C 
ATOM     18  O   UNL     1       1.834  10.403  17.281  0.00  0.00    +0.000 OA
ATOM     19  H   UNL     1       6.270   4.787  16.707  0.00  0.00    +0.000 HD
ENDROOT
BRANCH  15  20
ATOM     20  O   UNL     1      -0.665   9.961  21.290  0.00  0.00    +0.000 OA
ATOM     21  C   UNL     1      -0.452  11.138  22.055  0.00  0.00    +0.000 C 
ENDBRANCH  15  20
BRANCH   1  22
ATOM     22  C   UNL     1       2.355   5.633  21.087  0.00  0.00    +0.000 C 
BRANCH  22  23
ATOM     23  C   UNL     1       1.238   4.671  20.692  0.00  0.00    +0.000 C 
BRANCH  23  24
ATOM     24  C   UNL     1       1.444   3.327  21.381  0.00  0.00    +0.000 C 
BRANCH  24  25
ATOM     25  C   UNL     1       2.368   2.426  20.572  0.00  0.00    +0.000 C 
BRANCH  25  26
ATOM     26  C   UNL     1       1.725   2.065  19.236  0.00  0.00    +0.000 C 
BRANCH  26  27
ATOM     27  C   UNL     1       2.787   1.902  18.154  0.00  0.00    +0.000 C 
BRANCH  27  29
ATOM     28  C   UNL     1       1.617   3.977  17.375  0.00  0.00    +0.000 C 
ATOM     29  C   UNL     1       2.497   2.810  16.964  0.00  0.00    +0.000 C 
ENDBRANCH  27  29
ENDBRANCH  26  27
ENDBRANCH  25  26
ENDBRANCH  24  25
ENDBRANCH  23  24
ENDBRANCH  22  23
ENDBRANCH   1  22
TORSDOF 8
ENDMDL
MODEL 6
REMARK VINA RESULT:      -7.5      3.974      6.694
REMARK  Name = 
REMARK  10 active torsions:
REMARK  status: ('A' for Active; 'I' for Inactive)
REMARK    1  A    between atoms: C_1  and  C_2
REMARK    2  A    between atoms: C_2  and  C_3
REMARK    3  A    between atoms: C_3  and  C_4
REMARK    4  A    between atoms: C_4  and  C_5
REMARK    5  A    between atoms: C_5  and  C_6
REMARK    6  A    between atoms: C_6  and  C_7
REMARK    7  A    between atoms: C_7  and  C_8
REMARK    8  A    between atoms: C_8  and  N_9
REMARK    9  A    between atoms: C_23  and  O_24
REMARK   10  A    between atoms: O_24  and  C_25
REMARK                            x       y       z     vdW  Elec       q    Type
REMARK                         _______ _______ _______ _____ _____    ______ ____
ROOT
ATOM      1  N   UNL     1       2.547   6.681  18.380  0.00  0.00    +0.000 N 
ATOM      2  C   UNL     1       2.657   5.392  18.942  0.00  0.00    +0.000 A 
ATOM      3  N   UNL     1       3.145   4.398  18.257  0.00  0.00    +0.000 NA
ATOM      4  C   UNL     1       3.295   3.152  18.795  0.00  0.00    +0.000 A 
ATOM      5  O   UNL     1       3.783   2.224  18.160  0.00  0.00    +0.000 OA
ATOM      6  N   UNL     1       2.913   2.930  20.085  0.00  0.00    +0.000 N 
ATOM      7  C   UNL     1       2.392   3.850  20.946  0.00  0.00    +0.000 A 
ATOM      8  O   UNL     1       2.100   3.589  22.105  0.00  0.00    +0.000 OA
ATOM      9  C   UNL     1       2.226   5.179  20.346  0.00  0.00    +0.000 A 
ATOM     10  C   UNL     1       1.714   6.221  21.018  0.00  0.00    +0.000 A 
ATOM     11  C   UNL     1       1.552   7.536  20.404  0.00  0.00    +0.000 A 
ATOM     12  C   UNL     1       1.948   7.737  19.128  0.00  0.00    +0.000 A 
ATOM     13  C   UNL     1       1.723   9.100  18.510  0.00  0.00    +0.000 C 
ATOM     14  O   UNL     1       1.955   9.328  17.323  0.00  0.00    +0.000 OA
ATOM     15  C   UNL     1       1.180  10.208  19.360  0.00  0.00    +0.000 C 
ATOM     16  C   UNL     1       0.823   9.959  20.623  0.00  0.00    +0.000 C 
ATOM     17  C   UNL     1       0.952   8.625  21.222  0.00  0.00    +0.000 C 
ATOM     18  O   UNL     1       0.581   8.446  22.377  0.00  0.00    +0.000 OA
ATOM     19  H   UNL     1       3.068   1.997  20.436  0.00  0.00    +0.000 HD
ENDROOT
BRANCH  15  20
ATOM     20  O   UNL     1       1.084  11.432  18.724  0.00  0.00    +0.000 OA
ATOM     21  C   UNL     1       0.908  12.609  19.499  0.00  0.00    +0.000 C 
ENDBRANCH  15  20
BRANCH   1  22
ATOM     22  C   UNL     1       3.136   6.865  17.041  0.00  0.00    +0.000 C 
BRANCH  22  23
ATOM     23  C   UNL     1       4.646   7.067  17.134  0.00  0.00    +0.000 C 
BRANCH  23  24
ATOM     24  C   UNL     1       5.319   6.534  15.875  0.00  0.00    +0.000 C 
BRANCH  24  25
ATOM     25  C   UNL     1       5.871   5.132  16.095  0.00  0.00    +0.000 C 
BRANCH  25  26
ATOM     26  C   UNL     1       7.268   5.198  16.704  0.00  0.00    +0.000 C 
BRANCH  26  27
ATOM     27  C   UNL     1       7.249   4.712  18.149  0.00  0.00    +0.000 C 
BRANCH  27  29
ATOM     28  C   UNL     1       8.015   7.089  18.359  0.00  0.00    +0.000 C 
ATOM     29  C   UNL     1       7.810   5.773  19.089  0.00  0.00    +0.000 C 
ENDBRANCH  27  29
ENDBRANCH  26  27
ENDBRANCH  25  26
ENDBRANCH  24  25
ENDBRANCH  23  24
ENDBRANCH  22  23
ENDBRANCH   1  22
TORSDOF 8
ENDMDL
MODEL 7
REMARK VINA RESULT:      -7.0      4.491      6.930
REMARK  Name = 
REMARK  10 active torsions:
REMARK  status: ('A' for Active; 'I' for Inactive)
REMARK    1  A    between atoms: C_1  and  C_2
REMARK    2  A    between atoms: C_2  and  C_3
REMARK    3  A    between atoms: C_3  and  C_4
REMARK    4  A    between atoms: C_4  and  C_5
REMARK    5  A    between atoms: C_5  and  C_6
REMARK    6  A    between atoms: C_6  and  C_7
REMARK    7  A    between atoms: C_7  and  C_8
REMARK    8  A    between atoms: C_8  and  N_9
REMARK    9  A    between atoms: C_23  and  O_24
REMARK   10  A    between atoms: O_24  and  C_25
REMARK                            x       y       z     vdW  Elec       q    Type
REMARK                         _______ _______ _______ _____ _____    ______ ____
ROOT
ATOM      1  N   UNL     1       3.752   5.637  18.696  0.00  0.00    +0.000 N 
ATOM      2  C   UNL     1       3.640   4.467  19.474  0.00  0.00    +0.000 A 
ATOM      3  N   UNL     1       4.374   3.421  19.227  0.00  0.00    +0.000 NA
ATOM      4  C   UNL     1       4.307   2.292  19.992  0.00  0.00    +0.000 A 
ATOM      5  O   UNL     1       5.021   1.318  19.780  0.00  0.00    +0.000 OA
ATOM      6  N   UNL     1       3.436   2.245  21.041  0.00  0.00    +0.000 N 
ATOM      7  C   UNL     1       2.601   3.244  21.447  0.00  0.00    +0.000 A 
ATOM      8  O   UNL     1       1.868   3.146  22.420  0.00  0.00    +0.000 OA
ATOM      9  C   UNL     1       2.679   4.443  20.604  0.00  0.00    +0.000 A 
ATOM     10  C   UNL     1       1.927   5.533  20.822  0.00  0.00    +0.000 A 
ATOM     11  C   UNL     1       2.013   6.717  19.970  0.00  0.00    +0.000 A 
ATOM     12  C   UNL     1       2.891   6.746  18.944  0.00  0.00    +0.000 A 
ATOM     13  C   UNL     1       2.920   7.971  18.056  0.00  0.00    +0.000 C 
ATOM     14  O   UNL     1       3.612   8.027  17.040  0.00  0.00    +0.000 OA
ATOM     15  C   UNL     1       2.068   9.151  18.409  0.00  0.00    +0.000 C 
ATOM     16  C   UNL     1       1.231   9.076  19.449  0.00  0.00    +0.000 C 
ATOM     17  C   UNL     1       1.121   7.868  20.276  0.00  0.00    +0.000 C 
ATOM     18  O   UNL     1       0.315   7.845  21.200  0.00  0.00    +0.000 OA
ATOM     19  H   UNL     1       3.446   1.395  21.584  0.00  0.00    +0.000 HD
ENDROOT
BRANCH  15  20
ATOM     20  O   UNL     1       2.224  10.247  17.582  0.00  0.00    +0.000 OA
ATOM     21  C   UNL     1       2.146  11.555  18.131  0.00  0.00    +0.000 C 
ENDBRANCH  15  20
BRANCH   1  22
ATOM     22  C   UNL     1       4.833   5.655  17.691  0.00  0.00    +0.000 C 
BRANCH  22  23
ATOM     23  C   UNL     1       4.453   4.823  16.470  0.00  0.00    +0.000 C 
BRANCH  23  24
ATOM     24  C   UNL     1       5.704   4.205  15.855  0.00  0.00    +0.000 C 
BRANCH  24  25
ATOM     25  C   UNL     1       5.974   4.770  14.467  0.00  0.00    +0.000 C 
BRANCH  25  26
ATOM     26  C   UNL     1       6.046   3.647  13.438  0.00  0.00    +0.000 C 
BRANCH  26  27
ATOM     27  C   UNL     1       6.968   4.030  12.286  0.00  0.00    +0.000 C 
BRANCH  27  29
ATOM     28  C   UNL     1       7.905   6.241  11.567  0.00  0.00    +0.000 C 
ATOM     29  C   UNL     1       7.867   5.199  12.672  0.00  0.00    +0.000 C 
ENDBRANCH  27  29
ENDBRANCH  26  27
ENDBRANCH  25  26
ENDBRANCH  24  25
ENDBRANCH  23  24
ENDBRANCH  22  23
ENDBRANCH   1  22
TORSDOF 8
ENDMDL
MODEL 8
REMARK VINA RESULT:      -7.0      9.418     12.413
REMARK  Name = 
REMARK  10 active torsions:
REMARK  status: ('A' for Active; 'I' for Inactive)
REMARK    1  A    between atoms: C_1  and  C_2
REMARK    2  A    between atoms: C_2  and  C_3
REMARK    3  A    between atoms: C_3  and  C_4
REMARK    4  A    between atoms: C_4  and  C_5
REMARK    5  A    between atoms: C_5  and  C_6
REMARK    6  A    between atoms: C_6  and  C_7
REMARK    7  A    between atoms: C_7  and  C_8
REMARK    8  A    between atoms: C_8  and  N_9
REMARK    9  A    between atoms: C_23  and  O_24
REMARK   10  A    between atoms: O_24  and  C_25
REMARK                            x       y       z     vdW  Elec       q    Type
REMARK                         _______ _______ _______ _____ _____    ______ ____
ROOT
ATOM      1  N   UNL     1      -1.444  11.728  20.076  0.00  0.00    +0.000 N 
ATOM      2  C   UNL     1      -2.271  12.546  20.872  0.00  0.00    +0.000 A 
ATOM      3  N   UNL     1      -3.033  13.457  20.338  0.00  0.00    +0.000 NA
ATOM      4  C   UNL     1      -3.868  14.233  21.089  0.00  0.00    +0.000 A 
ATOM      5  O   UNL     1      -4.610  15.069  20.583  0.00  0.00    +0.000 OA
ATOM      6  N   UNL     1      -3.901  14.067  22.442  0.00  0.00    +0.000 N 
ATOM      7  C   UNL     1      -3.181  13.163  23.165  0.00  0.00    +0.000 A 
ATOM      8  O   UNL     1      -3.284  13.045  24.378  0.00  0.00    +0.000 OA
ATOM      9  C   UNL     1      -2.280  12.347  22.342  0.00  0.00    +0.000 A 
ATOM     10  C   UNL     1      -1.471  11.411  22.861  0.00  0.00    +0.000 A 
ATOM     11  C   UNL     1      -0.577  10.610  22.028  0.00  0.00    +0.000 A 
ATOM     12  C   UNL     1      -0.569  10.783  20.689  0.00  0.00    +0.000 A 
ATOM     13  C   UNL     1       0.402   9.969  19.863  0.00  0.00    +0.000 C 
ATOM     14  O   UNL     1       0.546  10.149  18.654  0.00  0.00    +0.000 OA
ATOM     15  C   UNL     1       1.235   8.920  20.535  0.00  0.00    +0.000 C 
ATOM     16  C   UNL     1       1.173   8.777  21.862  0.00  0.00    +0.000 C 
ATOM     17  C   UNL     1       0.301   9.612  22.698  0.00  0.00    +0.000 C 
ATOM     18  O   UNL     1       0.306   9.457  23.914  0.00  0.00    +0.000 OA
ATOM     19  H   UNL     1      -4.553  14.652  22.942  0.00  0.00    +0.000 HD
ENDROOT
BRANCH  15  20
ATOM     20  O   UNL     1       2.032   8.179  19.684  0.00  0.00    +0.000 OA
ATOM     21  C   UNL     1       2.227   6.795  19.937  0.00  0.00    +0.000 C 
ENDBRANCH  15  20
BRANCH   1  22
ATOM     22  C   UNL     1      -1.597  11.866  18.615  0.00  0.00    +0.000 C 
BRANCH  22  23
ATOM     23  C   UNL     1      -2.648  10.896  18.084  0.00  0.00    +0.000 C 
BRANCH  23  24
ATOM     24  C   UNL     1      -2.842  11.109  16.587  0.00  0.00    +0.000 C 
BRANCH  24  25
ATOM     25  C   UNL     1      -2.963   9.782  15.851  0.00  0.00    +0.000 C 
BRANCH  25  26
ATOM     26  C   UNL     1      -2.860   9.996  14.344  0.00  0.00    +0.000 C 
BRANCH  26  27
ATOM     27  C   UNL     1      -4.240   9.954  13.698  0.00  0.00    +0.000 C 
BRANCH  27  29
ATOM     28  C   UNL     1      -5.501   9.566  11.567  0.00  0.00    +0.000 C 
ATOM     29  C   UNL     1      -4.130   9.771  12.188  0.00  0.00    +0.000 C 
ENDBRANCH  27  29
ENDBRANCH  26  27
ENDBRANCH  25  26
ENDBRANCH  24  25
ENDBRANCH  23  24
ENDBRANCH  22  23
ENDBRANCH   1  22
TORSDOF 8
ENDMDL
MODEL 9
REMARK VINA RESULT:      -6.9      4.170      7.367
REMARK  Name = 
REMARK  10 active torsions:
REMARK  status: ('A' for Active; 'I' for Inactive)
REMARK    1  A    between atoms: C_1  and  C_2
REMARK    2  A    between atoms: C_2  and  C_3
REMARK    3  A    between atoms: C_3  and  C_4
REMARK    4  A    between atoms: C_4  and  C_5
REMARK    5  A    between atoms: C_5  and  C_6
REMARK    6  A    between atoms: C_6  and  C_7
REMARK    7  A    between atoms: C_7  and  C_8
REMARK    8  A    between atoms: C_8  and  N_9
REMARK    9  A    between atoms: C_23  and  O_24
REMARK   10  A    between atoms: O_24  and  C_25
REMARK                            x       y       z     vdW  Elec       q    Type
REMARK                         _______ _______ _______ _____ _____    ______ ____
ROOT
ATOM      1  N   UNL     1       2.796   6.523  20.002  0.00  0.00    +0.000 N 
ATOM      2  C   UNL     1       3.801   6.094  19.111  0.00  0.00    +0.000 A 
ATOM      3  N   UNL     1       4.521   5.039  19.365  0.00  0.00    +0.000 NA
ATOM      4  C   UNL     1       5.473   4.586  18.498  0.00  0.00    +0.000 A 
ATOM      5  O   UNL     1       6.130   3.575  18.723  0.00  0.00    +0.000 OA
ATOM      6  N   UNL     1       5.693   5.261  17.334  0.00  0.00    +0.000 N 
ATOM      7  C   UNL     1       5.032   6.373  16.904  0.00  0.00    +0.000 A 
ATOM      8  O   UNL     1       5.259   6.910  15.829  0.00  0.00    +0.000 OA
ATOM      9  C   UNL     1       4.022   6.852  17.855  0.00  0.00    +0.000 A 
ATOM     10  C   UNL     1       3.273   7.943  17.632  0.00  0.00    +0.000 A 
ATOM     11  C   UNL     1       2.275   8.409  18.592  0.00  0.00    +0.000 A 
ATOM     12  C   UNL     1       2.066   7.718  19.734  0.00  0.00    +0.000 A 
ATOM     13  C   UNL     1       1.057   8.255  20.725  0.00  0.00    +0.000 C 
ATOM     14  O   UNL     1       0.891   7.745  21.833  0.00  0.00    +0.000 OA
ATOM     15  C   UNL     1       0.243   9.460  20.361  0.00  0.00    +0.000 C 
ATOM     16  C   UNL     1       0.477  10.093  19.208  0.00  0.00    +0.000 C 
ATOM     17  C   UNL     1       1.509   9.642  18.266  0.00  0.00    +0.000 C 
ATOM     18  O   UNL     1       1.702  10.279  17.236  0.00  0.00    +0.000 OA
ATOM     19  H   UNL     1       6.392   4.867  16.722  0.00  0.00    +0.000 HD
ENDROOT
BRANCH  15  20
ATOM     20  O   UNL     1      -0.704   9.824  21.300  0.00  0.00    +0.000 OA
ATOM     21  C   UNL     1      -0.527  11.023  22.041  0.00  0.00    +0.000 C 
ENDBRANCH  15  20
BRANCH   1  22
ATOM     22  C   UNL     1       2.517   5.640  21.151  0.00  0.00    +0.000 C 
BRANCH  22  23
ATOM     23  C   UNL     1       2.255   4.210  20.687  0.00  0.00    +0.000 C 
BRANCH  23  24
ATOM     24  C   UNL     1       0.793   4.056  20.283  0.00  0.00    +0.000 C 
BRANCH  24  25
ATOM     25  C   UNL     1       0.661   3.326  18.953  0.00  0.00    +0.000 C 
BRANCH  25  26
ATOM     26  C   UNL     1       1.422   4.069  17.859  0.00  0.00    +0.000 C 
BRANCH  26  27
ATOM     27  C   UNL     1       2.466   3.161  17.218  0.00  0.00    +0.000 C 
BRANCH  27  29
ATOM     28  C   UNL     1       3.699   1.373  18.469  0.00  0.00    +0.000 C 
ATOM     29  C   UNL     1       2.392   1.751  17.795  0.00  0.00    +0.000 C 
ENDBRANCH  27  29
ENDBRANCH  26  27
ENDBRANCH  25  26
ENDBRANCH  24  25
ENDBRANCH  23  24
ENDBRANCH  22  23
ENDBRANCH   1  22
TORSDOF 8
ENDMDL
