MODEL 1
REMARK VINA RESULT:      -9.5      0.000      0.000
REMARK  Name = 
REMARK  1 active torsions:
REMARK  status: ('A' for Active; 'I' for Inactive)
REMARK    1  A    between atoms: N_5  and  C_6
REMARK                            x       y       z     vdW  Elec       q    Type
REMARK                         _______ _______ _______ _____ _____    ______ ____
ROOT
ATOM      1  O   UNL     1       7.244   8.533  17.128  0.00  0.00    +0.000 OA
ATOM      2  C   UNL     1       6.750   7.416  17.230  0.00  0.00    +0.000 A 
ATOM      3  N   UNL     1       5.456   7.229  17.627  0.00  0.00    +0.000 NA
ATOM      4  C   UNL     1       4.871   6.060  17.665  0.00  0.00    +0.000 A 
ATOM      5  N   UNL     1       3.496   5.914  18.035  0.00  0.00    +0.000 N 
ATOM      6  C   UNL     1       2.954   4.568  18.090  0.00  0.00    +0.000 A 
ATOM      7  C   UNL     1       1.601   4.289  18.364  0.00  0.00    +0.000 A 
ATOM      8  C   UNL     1       1.124   2.977  18.485  0.00  0.00    +0.000 A 
ATOM      9  C   UNL     1       1.972   1.902  18.264  0.00  0.00    +0.000 A 
ATOM     10  C   UNL     1       3.296   2.140  17.913  0.00  0.00    +0.000 A 
ATOM     11  C   UNL     1       3.787   3.456  17.826  0.00  0.00    +0.000 A 
ATOM     12  C   UNL     1       5.176   3.643  17.419  0.00  0.00    +0.000 A 
ATOM     13  C   UNL     1       5.698   4.868  17.326  0.00  0.00    +0.000 A 
ATOM     14  C   UNL     1       7.094   5.042  16.908  0.00  0.00    +0.000 A 
ATOM     15  O   UNL     1       7.828   4.118  16.581  0.00  0.00    +0.000 OA
ATOM     16  N   UNL     1       7.511   6.334  16.909  0.00  0.00    +0.000 N 
ATOM     17  H   UNL     1       8.450   6.530  16.609  0.00  0.00    +0.000 HD
ENDROOT
BRANCH   5  18
ATOM     18  C   UNL     1       2.753   7.103  18.401  0.00  0.00    +0.000 A 
ATOM     19  C   UNL     1       2.449   8.098  17.450  0.00  0.00    +0.000 A 
ATOM     20  C   UNL     1       1.790   9.282  17.799  0.00  0.00    +0.000 A 
ATOM     21  C   UNL     1       1.352   9.472  19.102  0.00  0.00    +0.000 A 
ATOM     22  C   UNL     1       1.605   8.490  20.053  0.00  0.00    +0.000 A 
ATOM     23 BR   UNL     1       0.954   8.708  21.815  0.00  0.00    +0.000 Br
ATOM     24  C   UNL     1       2.328   7.339  19.721  0.00  0.00    +0.000 A 
ENDBRANCH   5  18
TORSDOF 1
ENDMDL
MODEL 2
REMARK VINA RESULT:      -9.3      3.524      5.985
REMARK  Name = 
REMARK  1 active torsions:
REMARK  status: ('A' for Active; 'I' for Inactive)
REMARK    1  A    between atoms: N_5  and  C_6
REMARK                            x       y       z     vdW  Elec       q    Type
REMARK                         _______ _______ _______ _____ _____    ______ ____
ROOT
ATOM      1  O   UNL     1       5.115   1.247  20.077  0.00  0.00    +0.000 OA
ATOM      2  C   UNL     1       4.419   2.247  20.207  0.00  0.00    +0.000 A 
ATOM      3  N   UNL     1       4.572   3.346  19.411  0.00  0.00    +0.000 NA
ATOM      4  C   UNL     1       3.793   4.395  19.464  0.00  0.00    +0.000 A 
ATOM      5  N   UNL     1       3.955   5.504  18.573  0.00  0.00    +0.000 N 
ATOM      6  C   UNL     1       3.066   6.639  18.745  0.00  0.00    +0.000 A 
ATOM      7  C   UNL     1       3.067   7.760  17.890  0.00  0.00    +0.000 A 
ATOM      8  C   UNL     1       2.250   8.873  18.126  0.00  0.00    +0.000 A 
ATOM      9  C   UNL     1       1.353   8.870  19.184  0.00  0.00    +0.000 A 
ATOM     10  C   UNL     1       1.268   7.748  20.002  0.00  0.00    +0.000 A 
ATOM     11  C   UNL     1       2.113   6.643  19.790  0.00  0.00    +0.000 A 
ATOM     12  C   UNL     1       1.952   5.482  20.659  0.00  0.00    +0.000 A 
ATOM     13  C   UNL     1       2.730   4.408  20.508  0.00  0.00    +0.000 A 
ATOM     14  C   UNL     1       2.552   3.243  21.384  0.00  0.00    +0.000 A 
ATOM     15  O   UNL     1       1.683   3.162  22.242  0.00  0.00    +0.000 OA
ATOM     16  N   UNL     1       3.445   2.245  21.158  0.00  0.00    +0.000 N 
ATOM     17  H   UNL     1       3.365   1.406  21.706  0.00  0.00    +0.000 HD
ENDROOT
BRANCH   5  18
ATOM     18  C   UNL     1       5.035   5.458  17.608  0.00  0.00    +0.000 A 
ATOM     19  C   UNL     1       6.295   6.024  17.893  0.00  0.00    +0.000 A 
ATOM     20  C   UNL     1       7.328   6.047  16.949  0.00  0.00    +0.000 A 
ATOM     21  C   UNL     1       7.152   5.438  15.714  0.00  0.00    +0.000 A 
ATOM     22  C   UNL     1       5.931   4.838  15.422  0.00  0.00    +0.000 A 
ATOM     23 BR   UNL     1       5.703   3.946  13.770  0.00  0.00    +0.000 Br
ATOM     24  C   UNL     1       4.874   4.880  16.337  0.00  0.00    +0.000 A 
ENDBRANCH   5  18
TORSDOF 1
ENDMDL
MODEL 3
REMARK VINA RESULT:      -8.3      2.396      4.426
REMARK  Name = 
REMARK  1 active torsions:
REMARK  status: ('A' for Active; 'I' for Inactive)
REMARK    1  A    between atoms: N_5  and  C_6
REMARK                            x       y       z     vdW  Elec       q    Type
REMARK                         _______ _______ _______ _____ _____    ______ ____
ROOT
ATOM      1  O   UNL     1      -0.033   3.034  19.587  0.00  0.00    +0.000 OA
ATOM      2  C   UNL     1       1.099   3.158  19.136  0.00  0.00    +0.000 A 
ATOM      3  N   UNL     1       1.667   4.382  18.928  0.00  0.00    +0.000 NA
ATOM      4  C   UNL     1       2.902   4.551  18.530  0.00  0.00    +0.000 A 
ATOM      5  N   UNL     1       3.476   5.853  18.377  0.00  0.00    +0.000 N 
ATOM      6  C   UNL     1       4.840   5.933  17.886  0.00  0.00    +0.000 A 
ATOM      7  C   UNL     1       5.549   7.145  17.762  0.00  0.00    +0.000 A 
ATOM      8  C   UNL     1       6.836   7.198  17.215  0.00  0.00    +0.000 A 
ATOM      9  C   UNL     1       7.485   6.030  16.839  0.00  0.00    +0.000 A 
ATOM     10  C   UNL     1       6.846   4.808  17.020  0.00  0.00    +0.000 A 
ATOM     11  C   UNL     1       5.539   4.755  17.537  0.00  0.00    +0.000 A 
ATOM     12  C   UNL     1       4.935   3.442  17.736  0.00  0.00    +0.000 A 
ATOM     13  C   UNL     1       3.695   3.329  18.218  0.00  0.00    +0.000 A 
ATOM     14  C   UNL     1       3.103   2.002  18.422  0.00  0.00    +0.000 A 
ATOM     15  O   UNL     1       3.699   0.951  18.221  0.00  0.00    +0.000 OA
ATOM     16  N   UNL     1       1.818   2.035  18.862  0.00  0.00    +0.000 N 
ATOM     17  H   UNL     1       1.359   1.160  19.048  0.00  0.00    +0.000 HD
ENDROOT
BRANCH   5  18
ATOM     18  C   UNL     1       2.643   7.008  18.650  0.00  0.00    +0.000 A 
ATOM     19  C   UNL     1       2.215   7.864  17.614  0.00  0.00    +0.000 A 
ATOM     20  C   UNL     1       1.466   9.018  17.866  0.00  0.00    +0.000 A 
ATOM     21  C   UNL     1       1.062   9.311  19.162  0.00  0.00    +0.000 A 
ATOM     22  C   UNL     1       1.437   8.464  20.198  0.00  0.00    +0.000 A 
ATOM     23 BR   UNL     1       0.835   8.816  21.956  0.00  0.00    +0.000 Br
ATOM     24  C   UNL     1       2.248   7.350  19.955  0.00  0.00    +0.000 A 
ENDBRANCH   5  18
TORSDOF 1
ENDMDL
MODEL 4
REMARK VINA RESULT:      -8.2      1.047      1.452
REMARK  Name = 
REMARK  1 active torsions:
REMARK  status: ('A' for Active; 'I' for Inactive)
REMARK    1  A    between atoms: N_5  and  C_6
REMARK                            x       y       z     vdW  Elec       q    Type
REMARK                         _______ _______ _______ _____ _____    ______ ____
ROOT
ATOM      1  O   UNL     1       7.102   8.515  17.261  0.00  0.00    +0.000 OA
ATOM      2  C   UNL     1       6.618   7.389  17.266  0.00  0.00    +0.000 A 
ATOM      3  N   UNL     1       5.378   7.136  17.780  0.00  0.00    +0.000 NA
ATOM      4  C   UNL     1       4.795   5.966  17.726  0.00  0.00    +0.000 A 
ATOM      5  N   UNL     1       3.472   5.756  18.228  0.00  0.00    +0.000 N 
ATOM      6  C   UNL     1       2.934   4.409  18.161  0.00  0.00    +0.000 A 
ATOM      7  C   UNL     1       1.620   4.080  18.549  0.00  0.00    +0.000 A 
ATOM      8  C   UNL     1       1.153   2.760  18.544  0.00  0.00    +0.000 A 
ATOM      9  C   UNL     1       1.965   1.734  18.082  0.00  0.00    +0.000 A 
ATOM     10  C   UNL     1       3.241   2.032  17.617  0.00  0.00    +0.000 A 
ATOM     11  C   UNL     1       3.725   3.352  17.654  0.00  0.00    +0.000 A 
ATOM     12  C   UNL     1       5.058   3.608  17.120  0.00  0.00    +0.000 A 
ATOM     13  C   UNL     1       5.572   4.840  17.134  0.00  0.00    +0.000 A 
ATOM     14  C   UNL     1       6.911   5.084  16.586  0.00  0.00    +0.000 A 
ATOM     15  O   UNL     1       7.598   4.221  16.054  0.00  0.00    +0.000 OA
ATOM     16  N   UNL     1       7.332   6.369  16.715  0.00  0.00    +0.000 N 
ATOM     17  H   UNL     1       8.231   6.614  16.338  0.00  0.00    +0.000 HD
ENDROOT
BRANCH   5  18
ATOM     18  C   UNL     1       2.782   6.876  18.836  0.00  0.00    +0.000 A 
ATOM     19  C   UNL     1       2.266   6.796  20.146  0.00  0.00    +0.000 A 
ATOM     20  C   UNL     1       1.541   7.843  20.724  0.00  0.00    +0.000 A 
ATOM     21  C   UNL     1       1.372   9.033  20.029  0.00  0.00    +0.000 A 
ATOM     22  C   UNL     1       1.902   9.154  18.750  0.00  0.00    +0.000 A 
ATOM     23 BR   UNL     1       1.737  10.794  17.822  0.00  0.00    +0.000 Br
ATOM     24  C   UNL     1       2.564   8.081  18.144  0.00  0.00    +0.000 A 
ENDBRANCH   5  18
TORSDOF 1
ENDMDL
MODEL 5
REMARK VINA RESULT:      -7.8      3.303      5.751
REMARK  Name = 
REMARK  1 active torsions:
REMARK  status: ('A' for Active; 'I' for Inactive)
REMARK    1  A    between atoms: N_5  and  C_6
REMARK                            x       y       z     vdW  Elec       q    Type
REMARK                         _______ _______ _______ _____ _____    ______ ____
ROOT
ATOM      1  O   UNL     1       4.911   1.407  19.834  0.00  0.00    +0.000 OA
ATOM      2  C   UNL     1       4.177   2.345  20.123  0.00  0.00    +0.000 A 
ATOM      3  N   UNL     1       4.247   3.547  19.479  0.00  0.00    +0.000 NA
ATOM      4  C   UNL     1       3.425   4.539  19.702  0.00  0.00    +0.000 A 
ATOM      5  N   UNL     1       3.499   5.764  18.966  0.00  0.00    +0.000 N 
ATOM      6  C   UNL     1       2.568   6.820  19.322  0.00  0.00    +0.000 A 
ATOM      7  C   UNL     1       2.483   8.043  18.628  0.00  0.00    +0.000 A 
ATOM      8  C   UNL     1       1.628   9.073  19.042  0.00  0.00    +0.000 A 
ATOM      9  C   UNL     1       0.779   8.883  20.123  0.00  0.00    +0.000 A 
ATOM     10  C   UNL     1       0.779   7.659  20.783  0.00  0.00    +0.000 A 
ATOM     11  C   UNL     1       1.662   6.636  20.392  0.00  0.00    +0.000 A 
ATOM     12  C   UNL     1       1.591   5.363  21.100  0.00  0.00    +0.000 A 
ATOM     13  C   UNL     1       2.408   4.358  20.777  0.00  0.00    +0.000 A 
ATOM     14  C   UNL     1       2.320   3.079  21.492  0.00  0.00    +0.000 A 
ATOM     15  O   UNL     1       1.493   2.841  22.362  0.00  0.00    +0.000 OA
ATOM     16  N   UNL     1       3.246   2.166  21.100  0.00  0.00    +0.000 N 
ATOM     17  H   UNL     1       3.227   1.258  21.531  0.00  0.00    +0.000 HD
ENDROOT
BRANCH   5  18
ATOM     18  C   UNL     1       4.538   5.902  17.964  0.00  0.00    +0.000 A 
ATOM     19  C   UNL     1       4.470   5.208  16.738  0.00  0.00    +0.000 A 
ATOM     20  C   UNL     1       5.495   5.278  15.789  0.00  0.00    +0.000 A 
ATOM     21  C   UNL     1       6.589   6.104  16.010  0.00  0.00    +0.000 A 
ATOM     22  C   UNL     1       6.664   6.829  17.195  0.00  0.00    +0.000 A 
ATOM     23 BR   UNL     1       8.115   8.008  17.477  0.00  0.00    +0.000 Br
ATOM     24  C   UNL     1       5.675   6.702  18.176  0.00  0.00    +0.000 A 
ENDBRANCH   5  18
TORSDOF 1
ENDMDL
MODEL 6
REMARK VINA RESULT:      -7.7      2.614      4.318
REMARK  Name = 
REMARK  1 active torsions:
REMARK  status: ('A' for Active; 'I' for Inactive)
REMARK    1  A    between atoms: N_5  and  C_6
REMARK                            x       y       z     vdW  Elec       q    Type
REMARK                         _______ _______ _______ _____ _____    ______ ____
ROOT
ATOM      1  O   UNL     1       0.744   3.300  21.180  0.00  0.00    +0.000 OA
ATOM      2  C   UNL     1       1.564   3.292  20.269  0.00  0.00    +0.000 A 
ATOM      3  N   UNL     1       1.928   4.433  19.612  0.00  0.00    +0.000 NA
ATOM      4  C   UNL     1       2.860   4.476  18.695  0.00  0.00    +0.000 A 
ATOM      5  N   UNL     1       3.249   5.702  18.068  0.00  0.00    +0.000 N 
ATOM      6  C   UNL     1       4.262   5.635  17.030  0.00  0.00    +0.000 A 
ATOM      7  C   UNL     1       4.790   6.773  16.389  0.00  0.00    +0.000 A 
ATOM      8  C   UNL     1       5.711   6.672  15.338  0.00  0.00    +0.000 A 
ATOM      9  C   UNL     1       6.187   5.430  14.944  0.00  0.00    +0.000 A 
ATOM     10  C   UNL     1       5.748   4.290  15.608  0.00  0.00    +0.000 A 
ATOM     11  C   UNL     1       4.796   4.386  16.640  0.00  0.00    +0.000 A 
ATOM     12  C   UNL     1       4.401   3.158  17.322  0.00  0.00    +0.000 A 
ATOM     13  C   UNL     1       3.497   3.187  18.304  0.00  0.00    +0.000 A 
ATOM     14  C   UNL     1       3.114   1.946  18.988  0.00  0.00    +0.000 A 
ATOM     15  O   UNL     1       3.614   0.854  18.748  0.00  0.00    +0.000 OA
ATOM     16  N   UNL     1       2.146   2.111  19.926  0.00  0.00    +0.000 N 
ATOM     17  H   UNL     1       1.854   1.306  20.452  0.00  0.00    +0.000 HD
ENDROOT
BRANCH   5  18
ATOM     18  C   UNL     1       2.562   6.919  18.454  0.00  0.00    +0.000 A 
ATOM     19  C   UNL     1       2.149   7.864  17.492  0.00  0.00    +0.000 A 
ATOM     20  C   UNL     1       1.544   9.073  17.851  0.00  0.00    +0.000 A 
ATOM     21  C   UNL     1       1.269   9.340  19.185  0.00  0.00    +0.000 A 
ATOM     22  C   UNL     1       1.631   8.409  20.152  0.00  0.00    +0.000 A 
ATOM     23 BR   UNL     1       1.201   8.732  21.965  0.00  0.00    +0.000 Br
ATOM     24  C   UNL     1       2.303   7.233  19.800  0.00  0.00    +0.000 A 
ENDBRANCH   5  18
TORSDOF 1
ENDMDL
MODEL 7
REMARK VINA RESULT:      -7.7      3.407      5.374
REMARK  Name = 
REMARK  1 active torsions:
REMARK  status: ('A' for Active; 'I' for Inactive)
REMARK    1  A    between atoms: N_5  and  C_6
REMARK                            x       y       z     vdW  Elec       q    Type
REMARK                         _______ _______ _______ _____ _____    ______ ____
ROOT
ATOM      1  O   UNL     1       2.672   9.892  17.453  0.00  0.00    +0.000 OA
ATOM      2  C   UNL     1       2.450   8.922  18.169  0.00  0.00    +0.000 A 
ATOM      3  N   UNL     1       3.183   7.773  18.082  0.00  0.00    +0.000 NA
ATOM      4  C   UNL     1       3.030   6.753  18.886  0.00  0.00    +0.000 A 
ATOM      5  N   UNL     1       3.857   5.588  18.796  0.00  0.00    +0.000 N 
ATOM      6  C   UNL     1       3.576   4.492  19.706  0.00  0.00    +0.000 A 
ATOM      7  C   UNL     1       4.359   3.323  19.775  0.00  0.00    +0.000 A 
ATOM      8  C   UNL     1       4.019   2.250  20.609  0.00  0.00    +0.000 A 
ATOM      9  C   UNL     1       2.923   2.343  21.454  0.00  0.00    +0.000 A 
ATOM     10  C   UNL     1       2.173   3.514  21.470  0.00  0.00    +0.000 A 
ATOM     11  C   UNL     1       2.491   4.579  20.608  0.00  0.00    +0.000 A 
ATOM     12  C   UNL     1       1.688   5.794  20.696  0.00  0.00    +0.000 A 
ATOM     13  C   UNL     1       1.940   6.835  19.898  0.00  0.00    +0.000 A 
ATOM     14  C   UNL     1       1.130   8.054  20.003  0.00  0.00    +0.000 A 
ATOM     15  O   UNL     1       0.240   8.212  20.829  0.00  0.00    +0.000 OA
ATOM     16  N   UNL     1       1.457   9.011  19.096  0.00  0.00    +0.000 N 
ATOM     17  H   UNL     1       0.959   9.883  19.128  0.00  0.00    +0.000 HD
ENDROOT
BRANCH   5  18
ATOM     18  C   UNL     1       4.872   5.544  17.761  0.00  0.00    +0.000 A 
ATOM     19  C   UNL     1       6.134   6.145  17.947  0.00  0.00    +0.000 A 
ATOM     20  C   UNL     1       7.100   6.169  16.936  0.00  0.00    +0.000 A 
ATOM     21  C   UNL     1       6.856   5.527  15.729  0.00  0.00    +0.000 A 
ATOM     22  C   UNL     1       5.633   4.894  15.532  0.00  0.00    +0.000 A 
ATOM     23 BR   UNL     1       5.316   3.960  13.919  0.00  0.00    +0.000 Br
ATOM     24  C   UNL     1       4.639   4.933  16.516  0.00  0.00    +0.000 A 
ENDBRANCH   5  18
TORSDOF 1
ENDMDL
MODEL 8
REMARK VINA RESULT:      -7.5      1.802      1.879
REMARK  Name = 
REMARK  1 active torsions:
REMARK  status: ('A' for Active; 'I' for Inactive)
REMARK    1  A    between atoms: N_5  and  C_6
REMARK                            x       y       z     vdW  Elec       q    Type
REMARK                         _______ _______ _______ _____ _____    ______ ____
ROOT
ATOM      1  O   UNL     1       5.066   7.425  14.972  0.00  0.00    +0.000 OA
ATOM      2  C   UNL     1       4.923   6.516  15.781  0.00  0.00    +0.000 A 
ATOM      3  N   UNL     1       4.108   6.636  16.871  0.00  0.00    +0.000 NA
ATOM      4  C   UNL     1       3.866   5.660  17.707  0.00  0.00    +0.000 A 
ATOM      5  N   UNL     1       2.962   5.812  18.806  0.00  0.00    +0.000 N 
ATOM      6  C   UNL     1       2.797   4.681  19.702  0.00  0.00    +0.000 A 
ATOM      7  C   UNL     1       1.884   4.670  20.775  0.00  0.00    +0.000 A 
ATOM      8  C   UNL     1       1.801   3.594  21.668  0.00  0.00    +0.000 A 
ATOM      9  C   UNL     1       2.581   2.463  21.473  0.00  0.00    +0.000 A 
ATOM     10  C   UNL     1       3.436   2.407  20.378  0.00  0.00    +0.000 A 
ATOM     11  C   UNL     1       3.548   3.500  19.500  0.00  0.00    +0.000 A 
ATOM     12  C   UNL     1       4.436   3.367  18.350  0.00  0.00    +0.000 A 
ATOM     13  C   UNL     1       4.586   4.374  17.487  0.00  0.00    +0.000 A 
ATOM     14  C   UNL     1       5.477   4.224  16.330  0.00  0.00    +0.000 A 
ATOM     15  O   UNL     1       6.077   3.191  16.062  0.00  0.00    +0.000 OA
ATOM     16  N   UNL     1       5.579   5.343  15.566  0.00  0.00    +0.000 N 
ATOM     17  H   UNL     1       6.153   5.303  14.742  0.00  0.00    +0.000 HD
ENDROOT
BRANCH   5  18
ATOM     18  C   UNL     1       2.325   7.100  18.999  0.00  0.00    +0.000 A 
ATOM     19  C   UNL     1       2.089   7.970  17.914  0.00  0.00    +0.000 A 
ATOM     20  C   UNL     1       1.536   9.243  18.091  0.00  0.00    +0.000 A 
ATOM     21  C   UNL     1       1.136   9.654  19.355  0.00  0.00    +0.000 A 
ATOM     22  C   UNL     1       1.322   8.801  20.437  0.00  0.00    +0.000 A 
ATOM     23 BR   UNL     1       0.718   9.324  22.152  0.00  0.00    +0.000 Br
ATOM     24  C   UNL     1       1.942   7.558  20.272  0.00  0.00    +0.000 A 
ENDBRANCH   5  18
TORSDOF 1
ENDMDL
MODEL 9
REMARK VINA RESULT:      -7.1      7.068     10.148
REMARK  Name = 
REMARK  1 active torsions:
REMARK  status: ('A' for Active; 'I' for Inactive)
REMARK    1  A    between atoms: N_5  and  C_6
REMARK                            x       y       z     vdW  Elec       q    Type
REMARK                         _______ _______ _______ _____ _____    ______ ____
ROOT
ATOM      1  O   UNL     1      -3.081  10.722  14.891  0.00  0.00    +0.000 OA
ATOM      2  C   UNL     1      -3.414  11.043  16.026  0.00  0.00    +0.000 A 
ATOM      3  N   UNL     1      -2.498  11.268  17.014  0.00  0.00    +0.000 NA
ATOM      4  C   UNL     1      -2.812  11.693  18.211  0.00  0.00    +0.000 A 
ATOM      5  N   UNL     1      -1.816  11.968  19.201  0.00  0.00    +0.000 N 
ATOM      6  C   UNL     1      -2.272  12.394  20.513  0.00  0.00    +0.000 A 
ATOM      7  C   UNL     1      -1.398  12.769  21.552  0.00  0.00    +0.000 A 
ATOM      8  C   UNL     1      -1.864  13.102  22.830  0.00  0.00    +0.000 A 
ATOM      9  C   UNL     1      -3.227  13.139  23.088  0.00  0.00    +0.000 A 
ATOM     10  C   UNL     1      -4.122  12.851  22.064  0.00  0.00    +0.000 A 
ATOM     11  C   UNL     1      -3.655  12.482  20.789  0.00  0.00    +0.000 A 
ATOM     12  C   UNL     1      -4.643  12.226  19.746  0.00  0.00    +0.000 A 
ATOM     13  C   UNL     1      -4.259  11.866  18.520  0.00  0.00    +0.000 A 
ATOM     14  C   UNL     1      -5.264  11.619  17.478  0.00  0.00    +0.000 A 
ATOM     15  O   UNL     1      -6.467  11.771  17.642  0.00  0.00    +0.000 OA
ATOM     16  N   UNL     1      -4.738  11.206  16.295  0.00  0.00    +0.000 N 
ATOM     17  H   UNL     1      -5.368  11.044  15.529  0.00  0.00    +0.000 HD
ENDROOT
BRANCH   5  18
ATOM     18  C   UNL     1      -0.426  11.738  18.860  0.00  0.00    +0.000 A 
ATOM     19  C   UNL     1       0.475  12.810  18.697  0.00  0.00    +0.000 A 
ATOM     20  C   UNL     1       1.803  12.609  18.304  0.00  0.00    +0.000 A 
ATOM     21  C   UNL     1       2.287  11.320  18.133  0.00  0.00    +0.000 A 
ATOM     22  C   UNL     1       1.430  10.242  18.324  0.00  0.00    +0.000 A 
ATOM     23 BR   UNL     1       2.096   8.479  18.160  0.00  0.00    +0.000 Br
ATOM     24  C   UNL     1       0.083  10.445  18.645  0.00  0.00    +0.000 A 
ENDBRANCH   5  18
TORSDOF 1
ENDMDL
