MODEL 1
REMARK VINA RESULT:      -7.3      0.000      0.000
REMARK  Name = 
REMARK  13 active torsions:
REMARK  status: ('A' for Active; 'I' for Inactive)
REMARK    1  A    between atoms: C_1  and  C_2
REMARK    2  A    between atoms: C_2  and  C_3
REMARK    3  A    between atoms: C_2  and  C_4
REMARK    4  A    between atoms: C_4  and  N_5
REMARK    5  A    between atoms: C_6  and  C_8
REMARK    6  A    between atoms: C_9  and  C_10
REMARK    7  A    between atoms: C_10  and  C_11
REMARK    8  A    between atoms: C_11  and  C_12
REMARK    9  A    between atoms: C_12  and  C_13
REMARK   10  A    between atoms: C_13  and  C_14
REMARK   11  A    between atoms: C_14  and  C_15
REMARK   12  A    between atoms: C_15  and  C_16
REMARK   13  A    between atoms: C_17  and  C_18
REMARK                            x       y       z     vdW  Elec       q    Type
REMARK                         _______ _______ _______ _____ _____    ______ ____
ROOT
ATOM      1  C   UNL     1       0.963   3.155  19.084  0.00  0.00    +0.000 C 
ENDROOT
BRANCH   1   2
ATOM      2  C   UNL     1       1.634   3.388  17.730  0.00  0.00    +0.000 C 
BRANCH   2   3
ATOM      3  C   UNL     1       3.128   3.072  17.792  0.00  0.00    +0.000 C 
BRANCH   3   4
ATOM      4  C   UNL     1       3.968   4.330  17.569  0.00  0.00    +0.000 C 
BRANCH   4   6
ATOM      5  C   UNL     1       5.928   4.867  16.085  0.00  0.00    +0.000 C 
ATOM      6  C   UNL     1       4.760   4.239  16.298  0.00  0.00    +0.000 C 
BRANCH   5   8
ATOM      7  N   UNL     1       6.018   3.807  13.947  0.00  0.00    +0.000 N 
ATOM      8  C   UNL     1       6.627   4.710  14.783  0.00  0.00    +0.000 C 
ATOM      9  O   UNL     1       7.643   5.333  14.501  0.00  0.00    +0.000 OA
ATOM     10  H   UNL     1       5.209   3.290  14.262  0.00  0.00    +0.000 HD
BRANCH   7  11
ATOM     11  C   UNL     1       6.562   3.499  12.637  0.00  0.00    +0.000 C 
BRANCH  11  13
ATOM     12  C   UNL     1       4.478   3.019  11.273  0.00  0.00    +0.000 C 
ATOM     13  C   UNL     1       5.748   2.430  11.891  0.00  0.00    +0.000 C 
ATOM     14  C   UNL     1       6.601   1.785  10.797  0.00  0.00    +0.000 C 
ENDBRANCH  11  13
ENDBRANCH   7  11
ENDBRANCH   5   8
ENDBRANCH   4   6
ENDBRANCH   3   4
ENDBRANCH   2   3
ENDBRANCH   1   2
BRANCH   1  15
ATOM     15  C   UNL     1       1.934   2.521  20.079  0.00  0.00    +0.000 C 
BRANCH  15  16
ATOM     16  C   UNL     1       2.159   3.437  21.281  0.00  0.00    +0.000 C 
BRANCH  16  17
ATOM     17  C   UNL     1       1.676   4.826  20.989  0.00  0.00    +0.000 C 
ATOM     18  C   UNL     1       2.438   5.785  20.436  0.00  0.00    +0.000 C 
BRANCH  18  19
ATOM     19  C   UNL     1       1.960   7.148  20.164  0.00  0.00    +0.000 A 
ATOM     20  C   UNL     1       1.228   7.881  21.127  0.00  0.00    +0.000 A 
ATOM     21  C   UNL     1       0.785   9.181  20.867  0.00  0.00    +0.000 A 
ATOM     22  C   UNL     1       1.098   9.727  19.644  0.00  0.00    +0.000 A 
ATOM     23  C   UNL     1       1.828   9.034  18.708  0.00  0.00    +0.000 A 
ATOM     24  C   UNL     1       2.280   7.750  18.939  0.00  0.00    +0.000 A 
ATOM     25  O   UNL     1       2.029   9.755  17.572  0.00  0.00    +0.000 OA
ATOM     26  C   UNL     1       1.294  10.959  17.882  0.00  0.00    +0.000 C 
ATOM     27  O   UNL     1       0.747  10.968  19.217  0.00  0.00    +0.000 OA
ENDBRANCH  18  19
ENDBRANCH  16  17
ENDBRANCH  15  16
ENDBRANCH   1  15
TORSDOF 11
ENDMDL
MODEL 2
REMARK VINA RESULT:      -7.0      2.571      8.000
REMARK  Name = 
REMARK  13 active torsions:
REMARK  status: ('A' for Active; 'I' for Inactive)
REMARK    1  A    between atoms: C_1  and  C_2
REMARK    2  A    between atoms: C_2  and  C_3
REMARK    3  A    between atoms: C_2  and  C_4
REMARK    4  A    between atoms: C_4  and  N_5
REMARK    5  A    between atoms: C_6  and  C_8
REMARK    6  A    between atoms: C_9  and  C_10
REMARK    7  A    between atoms: C_10  and  C_11
REMARK    8  A    between atoms: C_11  and  C_12
REMARK    9  A    between atoms: C_12  and  C_13
REMARK   10  A    between atoms: C_13  and  C_14
REMARK   11  A    between atoms: C_14  and  C_15
REMARK   12  A    between atoms: C_15  and  C_16
REMARK   13  A    between atoms: C_17  and  C_18
REMARK                            x       y       z     vdW  Elec       q    Type
REMARK                         _______ _______ _______ _____ _____    ______ ____
ROOT
ATOM      1  C   UNL     1       1.310   2.971  20.864  0.00  0.00    +0.000 C 
ENDROOT
BRANCH   1   2
ATOM      2  C   UNL     1       0.871   4.298  20.247  0.00  0.00    +0.000 C 
BRANCH   2   3
ATOM      3  C   UNL     1       1.687   5.464  20.803  0.00  0.00    +0.000 C 
BRANCH   3   4
ATOM      4  C   UNL     1       2.525   6.122  19.706  0.00  0.00    +0.000 C 
BRANCH   4   6
ATOM      5  C   UNL     1       2.211   8.190  18.307  0.00  0.00    +0.000 C 
ATOM      6  C   UNL     1       2.107   7.545  19.480  0.00  0.00    +0.000 C 
BRANCH   5   8
ATOM      7  N   UNL     1       0.679   9.894  18.978  0.00  0.00    +0.000 N 
ATOM      8  C   UNL     1       1.770   9.605  18.197  0.00  0.00    +0.000 C 
ATOM      9  O   UNL     1       2.336  10.418  17.477  0.00  0.00    +0.000 OA
ATOM     10  H   UNL     1       0.229   9.163  19.511  0.00  0.00    +0.000 HD
BRANCH   7  11
ATOM     11  C   UNL     1       0.084  11.218  18.993  0.00  0.00    +0.000 C 
BRANCH  11  13
ATOM     12  C   UNL     1       0.247  10.754  21.480  0.00  0.00    +0.000 C 
ATOM     13  C   UNL     1      -0.006  11.814  20.406  0.00  0.00    +0.000 C 
ATOM     14  C   UNL     1       0.999  12.956  20.563  0.00  0.00    +0.000 C 
ENDBRANCH  11  13
ENDBRANCH   7  11
ENDBRANCH   5   8
ENDBRANCH   4   6
ENDBRANCH   3   4
ENDBRANCH   2   3
ENDBRANCH   1   2
BRANCH   1  15
ATOM     15  C   UNL     1       2.331   2.260  19.976  0.00  0.00    +0.000 C 
BRANCH  15  16
ATOM     16  C   UNL     1       3.741   2.395  20.550  0.00  0.00    +0.000 C 
BRANCH  16  17
ATOM     17  C   UNL     1       4.671   2.996  19.539  0.00  0.00    +0.000 C 
ATOM     18  C   UNL     1       4.265   3.574  18.396  0.00  0.00    +0.000 C 
BRANCH  18  19
ATOM     19  C   UNL     1       5.184   4.150  17.405  0.00  0.00    +0.000 A 
ATOM     20  C   UNL     1       6.076   5.196  17.740  0.00  0.00    +0.000 A 
ATOM     21  C   UNL     1       6.956   5.731  16.796  0.00  0.00    +0.000 A 
ATOM     22  C   UNL     1       6.932   5.197  15.529  0.00  0.00    +0.000 A 
ATOM     23  C   UNL     1       6.087   4.166  15.195  0.00  0.00    +0.000 A 
ATOM     24  C   UNL     1       5.210   3.615  16.109  0.00  0.00    +0.000 A 
ATOM     25  O   UNL     1       6.225   3.785  13.897  0.00  0.00    +0.000 OA
ATOM     26  C   UNL     1       7.215   4.732  13.441  0.00  0.00    +0.000 C 
ATOM     27  O   UNL     1       7.707   5.595  14.486  0.00  0.00    +0.000 OA
ENDBRANCH  18  19
ENDBRANCH  16  17
ENDBRANCH  15  16
ENDBRANCH   1  15
TORSDOF 11
ENDMDL
MODEL 3
REMARK VINA RESULT:      -7.0      1.146      2.026
REMARK  Name = 
REMARK  13 active torsions:
REMARK  status: ('A' for Active; 'I' for Inactive)
REMARK    1  A    between atoms: C_1  and  C_2
REMARK    2  A    between atoms: C_2  and  C_3
REMARK    3  A    between atoms: C_2  and  C_4
REMARK    4  A    between atoms: C_4  and  N_5
REMARK    5  A    between atoms: C_6  and  C_8
REMARK    6  A    between atoms: C_9  and  C_10
REMARK    7  A    between atoms: C_10  and  C_11
REMARK    8  A    between atoms: C_11  and  C_12
REMARK    9  A    between atoms: C_12  and  C_13
REMARK   10  A    between atoms: C_13  and  C_14
REMARK   11  A    between atoms: C_14  and  C_15
REMARK   12  A    between atoms: C_15  and  C_16
REMARK   13  A    between atoms: C_17  and  C_18
REMARK                            x       y       z     vdW  Elec       q    Type
REMARK                         _______ _______ _______ _____ _____    ______ ____
ROOT
ATOM      1  C   UNL     1       3.727   2.701  18.639  0.00  0.00    +0.000 C 
ENDROOT
BRANCH   1   2
ATOM      2  C   UNL     1       4.483   3.591  19.625  0.00  0.00    +0.000 C 
BRANCH   2   3
ATOM      3  C   UNL     1       5.341   4.622  18.893  0.00  0.00    +0.000 C 
BRANCH   3   4
ATOM      4  C   UNL     1       4.550   5.305  17.777  0.00  0.00    +0.000 C 
BRANCH   4   6
ATOM      5  C   UNL     1       5.757   4.213  15.858  0.00  0.00    +0.000 C 
ATOM      6  C   UNL     1       5.320   5.315  16.489  0.00  0.00    +0.000 C 
BRANCH   5   8
ATOM      7  N   UNL     1       6.050   3.516  13.593  0.00  0.00    +0.000 N 
ATOM      8  C   UNL     1       6.517   4.339  14.587  0.00  0.00    +0.000 C 
ATOM      9  O   UNL     1       7.462   5.107  14.458  0.00  0.00    +0.000 OA
ATOM     10  H   UNL     1       5.296   2.870  13.782  0.00  0.00    +0.000 HD
BRANCH   7  11
ATOM     11  C   UNL     1       6.674   3.478  12.283  0.00  0.00    +0.000 C 
BRANCH  11  13
ATOM     12  C   UNL     1       5.981   1.252  11.285  0.00  0.00    +0.000 C 
ATOM     13  C   UNL     1       5.805   2.771  11.231  0.00  0.00    +0.000 C 
ATOM     14  C   UNL     1       4.331   3.126  11.439  0.00  0.00    +0.000 C 
ENDBRANCH  11  13
ENDBRANCH   7  11
ENDBRANCH   5   8
ENDBRANCH   4   6
ENDBRANCH   3   4
ENDBRANCH   2   3
ENDBRANCH   1   2
BRANCH   1  15
ATOM     15  C   UNL     1       2.218   2.789  18.861  0.00  0.00    +0.000 C 
BRANCH  15  16
ATOM     16  C   UNL     1       1.898   3.577  20.130  0.00  0.00    +0.000 C 
BRANCH  16  17
ATOM     17  C   UNL     1       1.626   5.016  19.807  0.00  0.00    +0.000 C 
ATOM     18  C   UNL     1       1.952   6.041  20.613  0.00  0.00    +0.000 C 
BRANCH  18  19
ATOM     19  C   UNL     1       1.670   7.447  20.294  0.00  0.00    +0.000 A 
ATOM     20  C   UNL     1       1.779   7.944  18.974  0.00  0.00    +0.000 A 
ATOM     21  C   UNL     1       1.499   9.280  18.675  0.00  0.00    +0.000 A 
ATOM     22  C   UNL     1       1.103  10.094  19.710  0.00  0.00    +0.000 A 
ATOM     23  C   UNL     1       0.972   9.620  20.994  0.00  0.00    +0.000 A 
ATOM     24  C   UNL     1       1.239   8.304  21.317  0.00  0.00    +0.000 A 
ATOM     25  O   UNL     1       0.567  10.585  21.862  0.00  0.00    +0.000 OA
ATOM     26  C   UNL     1       0.512  11.732  20.986  0.00  0.00    +0.000 C 
ATOM     27  O   UNL     1       0.798  11.414  19.608  0.00  0.00    +0.000 OA
ENDBRANCH  18  19
ENDBRANCH  16  17
ENDBRANCH  15  16
ENDBRANCH   1  15
TORSDOF 11
ENDMDL
MODEL 4
REMARK VINA RESULT:      -7.0      5.882      8.046
REMARK  Name = 
REMARK  13 active torsions:
REMARK  status: ('A' for Active; 'I' for Inactive)
REMARK    1  A    between atoms: C_1  and  C_2
REMARK    2  A    between atoms: C_2  and  C_3
REMARK    3  A    between atoms: C_2  and  C_4
REMARK    4  A    between atoms: C_4  and  N_5
REMARK    5  A    between atoms: C_6  and  C_8
REMARK    6  A    between atoms: C_9  and  C_10
REMARK    7  A    between atoms: C_10  and  C_11
REMARK    8  A    between atoms: C_11  and  C_12
REMARK    9  A    between atoms: C_12  and  C_13
REMARK   10  A    between atoms: C_13  and  C_14
REMARK   11  A    between atoms: C_14  and  C_15
REMARK   12  A    between atoms: C_15  and  C_16
REMARK   13  A    between atoms: C_17  and  C_18
REMARK                            x       y       z     vdW  Elec       q    Type
REMARK                         _______ _______ _______ _____ _____    ______ ____
ROOT
ATOM      1  C   UNL     1       7.955   5.658  18.674  0.00  0.00    +0.000 C 
ENDROOT
BRANCH   1   2
ATOM      2  C   UNL     1       7.571   4.472  17.791  0.00  0.00    +0.000 C 
BRANCH   2   3
ATOM      3  C   UNL     1       6.900   4.938  16.499  0.00  0.00    +0.000 C 
BRANCH   3   4
ATOM      4  C   UNL     1       5.630   4.136  16.218  0.00  0.00    +0.000 C 
BRANCH   4   6
ATOM      5  C   UNL     1       4.003   5.687  17.350  0.00  0.00    +0.000 C 
ATOM      6  C   UNL     1       4.546   4.467  17.201  0.00  0.00    +0.000 C 
BRANCH   5   8
ATOM      7  N   UNL     1       2.853   4.895  19.287  0.00  0.00    +0.000 N 
ATOM      8  C   UNL     1       2.936   5.905  18.361  0.00  0.00    +0.000 C 
ATOM      9  O   UNL     1       2.212   6.893  18.353  0.00  0.00    +0.000 OA
ATOM     10  H   UNL     1       3.449   4.082  19.206  0.00  0.00    +0.000 HD
BRANCH   7  11
ATOM     11  C   UNL     1       1.859   4.914  20.345  0.00  0.00    +0.000 C 
BRANCH  11  13
ATOM     12  C   UNL     1       1.085   2.882  19.038  0.00  0.00    +0.000 C 
ATOM     13  C   UNL     1       0.975   3.657  20.354  0.00  0.00    +0.000 C 
ATOM     14  C   UNL     1       1.364   2.746  21.520  0.00  0.00    +0.000 C 
ENDBRANCH  11  13
ENDBRANCH   7  11
ENDBRANCH   5   8
ENDBRANCH   4   6
ENDBRANCH   3   4
ENDBRANCH   2   3
ENDBRANCH   1   2
BRANCH   1  15
ATOM     15  C   UNL     1       7.082   6.876  18.372  0.00  0.00    +0.000 C 
BRANCH  15  16
ATOM     16  C   UNL     1       7.574   7.604  17.122  0.00  0.00    +0.000 C 
BRANCH  16  17
ATOM     17  C   UNL     1       8.293   8.867  17.492  0.00  0.00    +0.000 C 
ATOM     18  C   UNL     1       8.581   9.225  18.754  0.00  0.00    +0.000 C 
BRANCH  18  19
ATOM     19  C   UNL     1       9.275  10.471  19.108  0.00  0.00    +0.000 A 
ATOM     20  C   UNL     1       9.660  10.752  20.440  0.00  0.00    +0.000 A 
ATOM     21  C   UNL     1      10.330  11.934  20.768  0.00  0.00    +0.000 A 
ATOM     22  C   UNL     1      10.612  12.811  19.747  0.00  0.00    +0.000 A 
ATOM     23  C   UNL     1      10.264  12.540  18.445  0.00  0.00    +0.000 A 
ATOM     24  C   UNL     1       9.604  11.379  18.092  0.00  0.00    +0.000 A 
ATOM     25  O   UNL     1      10.637  13.533  17.594  0.00  0.00    +0.000 OA
ATOM     26  C   UNL     1      11.210  14.482  18.519  0.00  0.00    +0.000 C 
ATOM     27  O   UNL     1      11.246  14.005  19.879  0.00  0.00    +0.000 OA
ENDBRANCH  18  19
ENDBRANCH  16  17
ENDBRANCH  15  16
ENDBRANCH   1  15
TORSDOF 11
ENDMDL
MODEL 5
REMARK VINA RESULT:      -6.8      5.736      7.808
REMARK  Name = 
REMARK  13 active torsions:
REMARK  status: ('A' for Active; 'I' for Inactive)
REMARK    1  A    between atoms: C_1  and  C_2
REMARK    2  A    between atoms: C_2  and  C_3
REMARK    3  A    between atoms: C_2  and  C_4
REMARK    4  A    between atoms: C_4  and  N_5
REMARK    5  A    between atoms: C_6  and  C_8
REMARK    6  A    between atoms: C_9  and  C_10
REMARK    7  A    between atoms: C_10  and  C_11
REMARK    8  A    between atoms: C_11  and  C_12
REMARK    9  A    between atoms: C_12  and  C_13
REMARK   10  A    between atoms: C_13  and  C_14
REMARK   11  A    between atoms: C_14  and  C_15
REMARK   12  A    between atoms: C_15  and  C_16
REMARK   13  A    between atoms: C_17  and  C_18
REMARK                            x       y       z     vdW  Elec       q    Type
REMARK                         _______ _______ _______ _____ _____    ______ ____
ROOT
ATOM      1  C   UNL     1       5.858   6.482  15.953  0.00  0.00    +0.000 C 
ENDROOT
BRANCH   1   2
ATOM      2  C   UNL     1       7.052   5.616  15.551  0.00  0.00    +0.000 C 
BRANCH   2   3
ATOM      3  C   UNL     1       6.814   4.149  15.904  0.00  0.00    +0.000 C 
BRANCH   3   4
ATOM      4  C   UNL     1       5.355   3.756  15.673  0.00  0.00    +0.000 C 
BRANCH   4   6
ATOM      5  C   UNL     1       5.097   3.906  18.172  0.00  0.00    +0.000 C 
ATOM      6  C   UNL     1       4.560   3.840  16.943  0.00  0.00    +0.000 C 
BRANCH   5   8
ATOM      7  N   UNL     1       3.542   2.811  19.616  0.00  0.00    +0.000 N 
ATOM      8  C   UNL     1       4.212   3.981  19.364  0.00  0.00    +0.000 C 
ATOM      9  O   UNL     1       4.106   4.995  20.042  0.00  0.00    +0.000 OA
ATOM     10  H   UNL     1       3.638   2.025  18.986  0.00  0.00    +0.000 HD
BRANCH   7  11
ATOM     11  C   UNL     1       2.614   2.690  20.725  0.00  0.00    +0.000 C 
BRANCH  11  13
ATOM     12  C   UNL     1       0.755   4.386  20.408  0.00  0.00    +0.000 C 
ATOM     13  C   UNL     1       1.152   2.912  20.305  0.00  0.00    +0.000 C 
ATOM     14  C   UNL     1       0.934   2.419  18.873  0.00  0.00    +0.000 C 
ENDBRANCH  11  13
ENDBRANCH   7  11
ENDBRANCH   5   8
ENDBRANCH   4   6
ENDBRANCH   3   4
ENDBRANCH   2   3
ENDBRANCH   1   2
BRANCH   1  15
ATOM     15  C   UNL     1       6.138   7.239  17.251  0.00  0.00    +0.000 C 
BRANCH  15  16
ATOM     16  C   UNL     1       7.626   7.205  17.593  0.00  0.00    +0.000 C 
BRANCH  16  17
ATOM     17  C   UNL     1       8.159   8.592  17.789  0.00  0.00    +0.000 C 
ATOM     18  C   UNL     1       8.761   9.014  18.914  0.00  0.00    +0.000 C 
BRANCH  18  19
ATOM     19  C   UNL     1       9.269  10.380  19.102  0.00  0.00    +0.000 A 
ATOM     20  C   UNL     1       9.641  10.863  20.378  0.00  0.00    +0.000 A 
ATOM     21  C   UNL     1      10.134  12.159  20.549  0.00  0.00    +0.000 A 
ATOM     22  C   UNL     1      10.254  12.947  19.428  0.00  0.00    +0.000 A 
ATOM     23  C   UNL     1       9.917  12.484  18.178  0.00  0.00    +0.000 A 
ATOM     24  C   UNL     1       9.431  11.206  17.981  0.00  0.00    +0.000 A 
ATOM     25  O   UNL     1      10.115  13.418  17.211  0.00  0.00    +0.000 OA
ATOM     26  C   UNL     1      10.563  14.538  18.003  0.00  0.00    +0.000 C 
ATOM     27  O   UNL     1      10.705  14.228  19.404  0.00  0.00    +0.000 OA
ENDBRANCH  18  19
ENDBRANCH  16  17
ENDBRANCH  15  16
ENDBRANCH   1  15
TORSDOF 11
ENDMDL
MODEL 6
REMARK VINA RESULT:      -6.8      2.718      8.544
REMARK  Name = 
REMARK  13 active torsions:
REMARK  status: ('A' for Active; 'I' for Inactive)
REMARK    1  A    between atoms: C_1  and  C_2
REMARK    2  A    between atoms: C_2  and  C_3
REMARK    3  A    between atoms: C_2  and  C_4
REMARK    4  A    between atoms: C_4  and  N_5
REMARK    5  A    between atoms: C_6  and  C_8
REMARK    6  A    between atoms: C_9  and  C_10
REMARK    7  A    between atoms: C_10  and  C_11
REMARK    8  A    between atoms: C_11  and  C_12
REMARK    9  A    between atoms: C_12  and  C_13
REMARK   10  A    between atoms: C_13  and  C_14
REMARK   11  A    between atoms: C_14  and  C_15
REMARK   12  A    between atoms: C_15  and  C_16
REMARK   13  A    between atoms: C_17  and  C_18
REMARK                            x       y       z     vdW  Elec       q    Type
REMARK                         _______ _______ _______ _____ _____    ______ ____
ROOT
ATOM      1  C   UNL     1       2.161   4.609  21.097  0.00  0.00    +0.000 C 
ENDROOT
BRANCH   1   2
ATOM      2  C   UNL     1       1.815   5.867  20.300  0.00  0.00    +0.000 C 
BRANCH   2   3
ATOM      3  C   UNL     1       2.140   5.688  18.817  0.00  0.00    +0.000 C 
BRANCH   3   4
ATOM      4  C   UNL     1       2.512   7.023  18.171  0.00  0.00    +0.000 C 
BRANCH   4   6
ATOM      5  C   UNL     1       1.742   9.408  18.390  0.00  0.00    +0.000 C 
ATOM      6  C   UNL     1       1.890   8.176  18.902  0.00  0.00    +0.000 C 
BRANCH   5   8
ATOM      7  N   UNL     1       0.065  10.035  19.970  0.00  0.00    +0.000 N 
ATOM      8  C   UNL     1       1.115  10.480  19.207  0.00  0.00    +0.000 C 
ATOM      9  O   UNL     1       1.510  11.639  19.189  0.00  0.00    +0.000 OA
ATOM     10  H   UNL     1      -0.242   9.074  19.900  0.00  0.00    +0.000 HD
BRANCH   7  11
ATOM     11  C   UNL     1      -0.692  10.935  20.822  0.00  0.00    +0.000 C 
BRANCH  11  13
ATOM     12  C   UNL     1      -1.521  11.068  23.214  0.00  0.00    +0.000 C 
ATOM     13  C   UNL     1      -0.318  10.804  22.307  0.00  0.00    +0.000 C 
ATOM     14  C   UNL     1       0.243   9.409  22.589  0.00  0.00    +0.000 C 
ENDBRANCH  11  13
ENDBRANCH   7  11
ENDBRANCH   5   8
ENDBRANCH   4   6
ENDBRANCH   3   4
ENDBRANCH   2   3
ENDBRANCH   1   2
BRANCH   1  15
ATOM     15  C   UNL     1       2.091   3.362  20.217  0.00  0.00    +0.000 C 
BRANCH  15  16
ATOM     16  C   UNL     1       3.395   2.568  20.291  0.00  0.00    +0.000 C 
BRANCH  16  17
ATOM     17  C   UNL     1       4.419   3.140  19.358  0.00  0.00    +0.000 C 
ATOM     18  C   UNL     1       4.185   3.416  18.063  0.00  0.00    +0.000 C 
BRANCH  18  19
ATOM     19  C   UNL     1       5.199   3.965  17.153  0.00  0.00    +0.000 A 
ATOM     20  C   UNL     1       6.229   4.816  17.617  0.00  0.00    +0.000 A 
ATOM     21  C   UNL     1       7.198   5.326  16.748  0.00  0.00    +0.000 A 
ATOM     22  C   UNL     1       7.120   4.962  15.424  0.00  0.00    +0.000 A 
ATOM     23  C   UNL     1       6.137   4.118  14.963  0.00  0.00    +0.000 A 
ATOM     24  C   UNL     1       5.170   3.597  15.800  0.00  0.00    +0.000 A 
ATOM     25  O   UNL     1       6.243   3.884  13.628  0.00  0.00    +0.000 OA
ATOM     26  C   UNL     1       7.371   4.721  13.294  0.00  0.00    +0.000 C 
ATOM     27  O   UNL     1       7.965   5.365  14.440  0.00  0.00    +0.000 OA
ENDBRANCH  18  19
ENDBRANCH  16  17
ENDBRANCH  15  16
ENDBRANCH   1  15
TORSDOF 11
ENDMDL
MODEL 7
REMARK VINA RESULT:      -6.8      3.486      5.492
REMARK  Name = 
REMARK  13 active torsions:
REMARK  status: ('A' for Active; 'I' for Inactive)
REMARK    1  A    between atoms: C_1  and  C_2
REMARK    2  A    between atoms: C_2  and  C_3
REMARK    3  A    between atoms: C_2  and  C_4
REMARK    4  A    between atoms: C_4  and  N_5
REMARK    5  A    between atoms: C_6  and  C_8
REMARK    6  A    between atoms: C_9  and  C_10
REMARK    7  A    between atoms: C_10  and  C_11
REMARK    8  A    between atoms: C_11  and  C_12
REMARK    9  A    between atoms: C_12  and  C_13
REMARK   10  A    between atoms: C_13  and  C_14
REMARK   11  A    between atoms: C_14  and  C_15
REMARK   12  A    between atoms: C_15  and  C_16
REMARK   13  A    between atoms: C_17  and  C_18
REMARK                            x       y       z     vdW  Elec       q    Type
REMARK                         _______ _______ _______ _____ _____    ______ ____
ROOT
ATOM      1  C   UNL     1       5.029   6.732  16.088  0.00  0.00    +0.000 C 
ENDROOT
BRANCH   1   2
ATOM      2  C   UNL     1       6.467   6.301  16.378  0.00  0.00    +0.000 C 
BRANCH   2   3
ATOM      3  C   UNL     1       7.038   7.057  17.577  0.00  0.00    +0.000 C 
BRANCH   3   4
ATOM      4  C   UNL     1       7.511   6.090  18.663  0.00  0.00    +0.000 C 
BRANCH   4   6
ATOM      5  C   UNL     1       5.952   4.124  18.849  0.00  0.00    +0.000 C 
ATOM      6  C   UNL     1       6.360   5.335  19.260  0.00  0.00    +0.000 C 
BRANCH   5   8
ATOM      7  N   UNL     1       3.661   4.243  19.513  0.00  0.00    +0.000 N 
ATOM      8  C   UNL     1       4.793   3.468  19.511  0.00  0.00    +0.000 C 
ATOM      9  O   UNL     1       4.861   2.347  19.999  0.00  0.00    +0.000 OA
ATOM     10  H   UNL     1       3.687   5.181  19.136  0.00  0.00    +0.000 HD
BRANCH   7  11
ATOM     11  C   UNL     1       2.429   3.787  20.130  0.00  0.00    +0.000 C 
BRANCH  11  13
ATOM     12  C   UNL     1       1.588   4.430  17.826  0.00  0.00    +0.000 C 
ATOM     13  C   UNL     1       1.256   3.720  19.140  0.00  0.00    +0.000 C 
ATOM     14  C   UNL     1       0.886   2.262  18.858  0.00  0.00    +0.000 C 
ENDBRANCH  11  13
ENDBRANCH   7  11
ENDBRANCH   5   8
ENDBRANCH   4   6
ENDBRANCH   3   4
ENDBRANCH   2   3
ENDBRANCH   1   2
BRANCH   1  15
ATOM     15  C   UNL     1       4.228   6.888  17.380  0.00  0.00    +0.000 C 
BRANCH  15  16
ATOM     16  C   UNL     1       2.986   7.747  17.152  0.00  0.00    +0.000 C 
BRANCH  16  17
ATOM     17  C   UNL     1       2.384   8.169  18.458  0.00  0.00    +0.000 C 
ATOM     18  C   UNL     1       1.372   9.045  18.571  0.00  0.00    +0.000 C 
BRANCH  18  19
ATOM     19  C   UNL     1       0.796   9.463  19.857  0.00  0.00    +0.000 A 
ATOM     20  C   UNL     1       1.103   8.786  21.060  0.00  0.00    +0.000 A 
ATOM     21  C   UNL     1       0.561   9.194  22.282  0.00  0.00    +0.000 A 
ATOM     22  C   UNL     1      -0.274  10.287  22.274  0.00  0.00    +0.000 A 
ATOM     23  C   UNL     1      -0.564  10.968  21.115  0.00  0.00    +0.000 A 
ATOM     24  C   UNL     1      -0.040  10.588  19.895  0.00  0.00    +0.000 A 
ATOM     25  O   UNL     1      -1.403  12.016  21.328  0.00  0.00    +0.000 OA
ATOM     26  C   UNL     1      -1.651  11.881  22.744  0.00  0.00    +0.000 C 
ATOM     27  O   UNL     1      -0.894  10.819  23.360  0.00  0.00    +0.000 OA
ENDBRANCH  18  19
ENDBRANCH  16  17
ENDBRANCH  15  16
ENDBRANCH   1  15
TORSDOF 11
ENDMDL
MODEL 8
REMARK VINA RESULT:      -6.8      1.966      3.039
REMARK  Name = 
REMARK  13 active torsions:
REMARK  status: ('A' for Active; 'I' for Inactive)
REMARK    1  A    between atoms: C_1  and  C_2
REMARK    2  A    between atoms: C_2  and  C_3
REMARK    3  A    between atoms: C_2  and  C_4
REMARK    4  A    between atoms: C_4  and  N_5
REMARK    5  A    between atoms: C_6  and  C_8
REMARK    6  A    between atoms: C_9  and  C_10
REMARK    7  A    between atoms: C_10  and  C_11
REMARK    8  A    between atoms: C_11  and  C_12
REMARK    9  A    between atoms: C_12  and  C_13
REMARK   10  A    between atoms: C_13  and  C_14
REMARK   11  A    between atoms: C_14  and  C_15
REMARK   12  A    between atoms: C_15  and  C_16
REMARK   13  A    between atoms: C_17  and  C_18
REMARK                            x       y       z     vdW  Elec       q    Type
REMARK                         _______ _______ _______ _____ _____    ______ ____
ROOT
ATOM      1  C   UNL     1       3.592   4.791  19.805  0.00  0.00    +0.000 C 
ENDROOT
BRANCH   1   2
ATOM      2  C   UNL     1       4.962   5.407  19.522  0.00  0.00    +0.000 C 
BRANCH   2   3
ATOM      3  C   UNL     1       5.851   4.442  18.739  0.00  0.00    +0.000 C 
BRANCH   3   4
ATOM      4  C   UNL     1       7.162   5.112  18.326  0.00  0.00    +0.000 C 
BRANCH   4   6
ATOM      5  C   UNL     1       6.521   5.060  15.893  0.00  0.00    +0.000 C 
ATOM      6  C   UNL     1       7.438   4.917  16.864  0.00  0.00    +0.000 C 
BRANCH   5   8
ATOM      7  N   UNL     1       6.203   3.819  13.878  0.00  0.00    +0.000 N 
ATOM      8  C   UNL     1       6.904   4.837  14.474  0.00  0.00    +0.000 C 
ATOM      9  O   UNL     1       7.761   5.506  13.910  0.00  0.00    +0.000 OA
ATOM     10  H   UNL     1       5.543   3.274  14.416  0.00  0.00    +0.000 HD
BRANCH   7  11
ATOM     11  C   UNL     1       6.447   3.434  12.500  0.00  0.00    +0.000 C 
BRANCH  11  13
ATOM     12  C   UNL     1       4.304   3.082  11.189  0.00  0.00    +0.000 C 
ATOM     13  C   UNL     1       5.428   2.408  11.979  0.00  0.00    +0.000 C 
ATOM     14  C   UNL     1       6.127   1.372  11.096  0.00  0.00    +0.000 C 
ENDBRANCH  11  13
ENDBRANCH   7  11
ENDBRANCH   5   8
ENDBRANCH   4   6
ENDBRANCH   3   4
ENDBRANCH   2   3
ENDBRANCH   1   2
BRANCH   1  15
ATOM     15  C   UNL     1       2.509   5.432  18.939  0.00  0.00    +0.000 C 
BRANCH  15  16
ATOM     16  C   UNL     1       3.034   6.693  18.253  0.00  0.00    +0.000 C 
BRANCH  16  17
ATOM     17  C   UNL     1       2.194   7.882  18.612  0.00  0.00    +0.000 C 
ATOM     18  C   UNL     1       1.891   8.873  17.757  0.00  0.00    +0.000 C 
BRANCH  18  19
ATOM     19  C   UNL     1       1.078  10.041  18.121  0.00  0.00    +0.000 A 
ATOM     20  C   UNL     1      -0.334  10.016  18.036  0.00  0.00    +0.000 A 
ATOM     21  C   UNL     1      -1.103  11.127  18.394  0.00  0.00    +0.000 A 
ATOM     22  C   UNL     1      -0.438  12.243  18.844  0.00  0.00    +0.000 A 
ATOM     23  C   UNL     1       0.932  12.274  18.954  0.00  0.00    +0.000 A 
ATOM     24  C   UNL     1       1.716  11.190  18.609  0.00  0.00    +0.000 A 
ATOM     25  O   UNL     1       1.386  13.467  19.420  0.00  0.00    +0.000 OA
ATOM     26  C   UNL     1       0.148  14.201  19.540  0.00  0.00    +0.000 C 
ATOM     27  O   UNL     1      -1.018  13.411  19.227  0.00  0.00    +0.000 OA
ENDBRANCH  18  19
ENDBRANCH  16  17
ENDBRANCH  15  16
ENDBRANCH   1  15
TORSDOF 11
ENDMDL
MODEL 9
REMARK VINA RESULT:      -6.7      4.698      6.778
REMARK  Name = 
REMARK  13 active torsions:
REMARK  status: ('A' for Active; 'I' for Inactive)
REMARK    1  A    between atoms: C_1  and  C_2
REMARK    2  A    between atoms: C_2  and  C_3
REMARK    3  A    between atoms: C_2  and  C_4
REMARK    4  A    between atoms: C_4  and  N_5
REMARK    5  A    between atoms: C_6  and  C_8
REMARK    6  A    between atoms: C_9  and  C_10
REMARK    7  A    between atoms: C_10  and  C_11
REMARK    8  A    between atoms: C_11  and  C_12
REMARK    9  A    between atoms: C_12  and  C_13
REMARK   10  A    between atoms: C_13  and  C_14
REMARK   11  A    between atoms: C_14  and  C_15
REMARK   12  A    between atoms: C_15  and  C_16
REMARK   13  A    between atoms: C_17  and  C_18
REMARK                            x       y       z     vdW  Elec       q    Type
REMARK                         _______ _______ _______ _____ _____    ______ ____
ROOT
ATOM      1  C   UNL     1       6.036   4.611  18.439  0.00  0.00    +0.000 C 
ENDROOT
BRANCH   1   2
ATOM      2  C   UNL     1       6.795   5.660  19.251  0.00  0.00    +0.000 C 
BRANCH   2   3
ATOM      3  C   UNL     1       7.942   6.263  18.441  0.00  0.00    +0.000 C 
BRANCH   3   4
ATOM      4  C   UNL     1       7.433   7.338  17.481  0.00  0.00    +0.000 C 
BRANCH   4   6
ATOM      5  C   UNL     1       8.878   8.944  18.769  0.00  0.00    +0.000 C 
ATOM      6  C   UNL     1       7.877   8.706  17.907  0.00  0.00    +0.000 C 
BRANCH   5   8
ATOM      7  N   UNL     1       9.640  11.091  18.051  0.00  0.00    +0.000 N 
ATOM      8  C   UNL     1       9.231  10.343  19.127  0.00  0.00    +0.000 C 
ATOM      9  O   UNL     1       9.157  10.770  20.273  0.00  0.00    +0.000 OA
ATOM     10  H   UNL     1       9.725  10.663  17.139  0.00  0.00    +0.000 HD
BRANCH   7  11
ATOM     11  C   UNL     1      10.047  12.476  18.198  0.00  0.00    +0.000 C 
BRANCH  11  13
ATOM     12  C   UNL     1       7.742  12.795  17.189  0.00  0.00    +0.000 C 
ATOM     13  C   UNL     1       8.902  13.465  17.929  0.00  0.00    +0.000 C 
ATOM     14  C   UNL     1       8.398  14.061  19.245  0.00  0.00    +0.000 C 
ENDBRANCH  11  13
ENDBRANCH   7  11
ENDBRANCH   5   8
ENDBRANCH   4   6
ENDBRANCH   3   4
ENDBRANCH   2   3
ENDBRANCH   1   2
BRANCH   1  15
ATOM     15  C   UNL     1       4.532   4.881  18.458  0.00  0.00    +0.000 C 
BRANCH  15  16
ATOM     16  C   UNL     1       4.140   5.867  17.359  0.00  0.00    +0.000 C 
BRANCH  16  17
ATOM     17  C   UNL     1       3.325   6.993  17.920  0.00  0.00    +0.000 C 
ATOM     18  C   UNL     1       2.629   6.917  19.067  0.00  0.00    +0.000 C 
BRANCH  18  19
ATOM     19  C   UNL     1       1.822   8.022  19.604  0.00  0.00    +0.000 A 
ATOM     20  C   UNL     1       1.401   9.096  18.786  0.00  0.00    +0.000 A 
ATOM     21  C   UNL     1       0.624  10.138  19.299  0.00  0.00    +0.000 A 
ATOM     22  C   UNL     1       0.275  10.077  20.628  0.00  0.00    +0.000 A 
ATOM     23  C   UNL     1       0.659   9.028  21.429  0.00  0.00    +0.000 A 
ATOM     24  C   UNL     1       1.423   7.983  20.947  0.00  0.00    +0.000 A 
ATOM     25  O   UNL     1       0.206   9.159  22.704  0.00  0.00    +0.000 OA
ATOM     26  C   UNL     1      -0.460  10.438  22.625  0.00  0.00    +0.000 C 
ATOM     27  O   UNL     1      -0.466  10.999  21.297  0.00  0.00    +0.000 OA
ENDBRANCH  18  19
ENDBRANCH  16  17
ENDBRANCH  15  16
ENDBRANCH   1  15
TORSDOF 11
ENDMDL
