MODEL 1
REMARK VINA RESULT:      -7.9      0.000      0.000
REMARK  Name = 
REMARK  6 active torsions:
REMARK  status: ('A' for Active; 'I' for Inactive)
REMARK    1  A    between atoms: C_1  and  C_2
REMARK    2  A    between atoms: C_2  and  N_3
REMARK    3  A    between atoms: C_2  and  C_19
REMARK    4  A    between atoms: C_4  and  C_6
REMARK    5  A    between atoms: C_6  and  C_7
REMARK    6  A    between atoms: C_6  and  C_13
REMARK                            x       y       z     vdW  Elec       q    Type
REMARK                         _______ _______ _______ _____ _____    ______ ____
ROOT
ATOM      1  N   UNL     1       1.576   8.444  17.989  0.00  0.00    +0.000 N 
ATOM      2  C   UNL     1       2.167   7.499  18.810  0.00  0.00    +0.000 C 
ATOM      3  O   UNL     1       2.286   7.715  20.019  0.00  0.00    +0.000 OA
ATOM      4  H   UNL     1       1.386   8.274  17.007  0.00  0.00    +0.000 HD
ENDROOT
BRANCH   1   6
ATOM      5  C   UNL     1      -0.310  10.009  18.231  0.00  0.00    +0.000 C 
ATOM      6  C   UNL     1       1.149   9.714  18.570  0.00  0.00    +0.000 C 
BRANCH   6   7
ATOM      7  C   UNL     1       2.014  10.925  18.149  0.00  0.00    +0.000 C 
ATOM      8  O   UNL     1       2.890  10.787  17.290  0.00  0.00    +0.000 OA
ATOM      9  N   UNL     1       1.669  12.174  18.679  0.00  0.00    +0.000 N 
ATOM     10  C   UNL     1       2.243  13.391  18.107  0.00  0.00    +0.000 C 
ATOM     11  C   UNL     1       3.151  14.109  19.107  0.00  0.00    +0.000 C 
ATOM     12  C   UNL     1       2.451  14.333  20.447  0.00  0.00    +0.000 C 
ATOM     13  C   UNL     1       1.852  13.030  20.975  0.00  0.00    +0.000 C 
ATOM     14  C   UNL     1       0.934  12.396  19.930  0.00  0.00    +0.000 C 
ENDBRANCH   6   7
ENDBRANCH   1   6
BRANCH   2  15
ATOM     15  C   UNL     1       2.701   6.212  18.134  0.00  0.00    +0.000 C 
BRANCH  15  16
ATOM     16  C   UNL     1       4.234   6.191  18.181  0.00  0.00    +0.000 A 
ATOM     17  C   UNL     1       5.004   6.873  17.221  0.00  0.00    +0.000 A 
ATOM     18  C   UNL     1       6.397   6.783  17.218  0.00  0.00    +0.000 A 
ATOM     19  C   UNL     1       7.047   6.030  18.190  0.00  0.00    +0.000 A 
ATOM     20  C   UNL     1       6.305   5.376  19.171  0.00  0.00    +0.000 A 
ATOM     21  C   UNL     1       4.908   5.454  19.168  0.00  0.00    +0.000 A 
ENDBRANCH  15  16
BRANCH  15  22
ATOM     22  C   UNL     1       2.079   4.918  18.677  0.00  0.00    +0.000 A 
ATOM     23  C   UNL     1       2.025   3.782  17.846  0.00  0.00    +0.000 A 
ATOM     24  C   UNL     1       1.507   2.570  18.314  0.00  0.00    +0.000 A 
ATOM     25  C   UNL     1       1.035   2.470  19.618  0.00  0.00    +0.000 A 
ATOM     26  C   UNL     1       1.078   3.579  20.456  0.00  0.00    +0.000 A 
ATOM     27  C   UNL     1       1.600   4.787  19.990  0.00  0.00    +0.000 A 
ENDBRANCH  15  22
ENDBRANCH   2  15
TORSDOF 5
ENDMDL
MODEL 2
REMARK VINA RESULT:      -7.8      3.360      6.663
REMARK  Name = 
REMARK  6 active torsions:
REMARK  status: ('A' for Active; 'I' for Inactive)
REMARK    1  A    between atoms: C_1  and  C_2
REMARK    2  A    between atoms: C_2  and  N_3
REMARK    3  A    between atoms: C_2  and  C_19
REMARK    4  A    between atoms: C_4  and  C_6
REMARK    5  A    between atoms: C_6  and  C_7
REMARK    6  A    between atoms: C_6  and  C_13
REMARK                            x       y       z     vdW  Elec       q    Type
REMARK                         _______ _______ _______ _____ _____    ______ ____
ROOT
ATOM      1  N   UNL     1       5.754   5.960  18.907  0.00  0.00    +0.000 N 
ATOM      2  C   UNL     1       4.966   4.945  19.421  0.00  0.00    +0.000 C 
ATOM      3  O   UNL     1       5.400   3.790  19.472  0.00  0.00    +0.000 OA
ATOM      4  H   UNL     1       5.469   6.934  18.920  0.00  0.00    +0.000 HD
ENDROOT
BRANCH   1   6
ATOM      5  C   UNL     1       8.173   6.335  19.174  0.00  0.00    +0.000 C 
ATOM      6  C   UNL     1       7.076   5.630  18.380  0.00  0.00    +0.000 C 
BRANCH   6   7
ATOM      7  C   UNL     1       7.258   5.955  16.879  0.00  0.00    +0.000 C 
ATOM      8  O   UNL     1       7.696   7.057  16.535  0.00  0.00    +0.000 OA
ATOM      9  N   UNL     1       7.034   4.916  15.967  0.00  0.00    +0.000 N 
ATOM     10  C   UNL     1       7.466   5.060  14.578  0.00  0.00    +0.000 C 
ATOM     11  C   UNL     1       6.275   5.087  13.619  0.00  0.00    +0.000 C 
ATOM     12  C   UNL     1       5.337   3.902  13.849  0.00  0.00    +0.000 C 
ATOM     13  C   UNL     1       4.945   3.793  15.321  0.00  0.00    +0.000 C 
ATOM     14  C   UNL     1       6.190   3.738  16.207  0.00  0.00    +0.000 C 
ENDBRANCH   6   7
ENDBRANCH   1   6
BRANCH   2  15
ATOM     15  C   UNL     1       3.533   5.321  19.869  0.00  0.00    +0.000 C 
BRANCH  15  16
ATOM     16  C   UNL     1       3.079   6.603  19.160  0.00  0.00    +0.000 A 
ATOM     17  C   UNL     1       2.193   7.505  19.776  0.00  0.00    +0.000 A 
ATOM     18  C   UNL     1       1.718   8.627  19.096  0.00  0.00    +0.000 A 
ATOM     19  C   UNL     1       2.141   8.882  17.795  0.00  0.00    +0.000 A 
ATOM     20  C   UNL     1       3.046   8.021  17.180  0.00  0.00    +0.000 A 
ATOM     21  C   UNL     1       3.513   6.888  17.855  0.00  0.00    +0.000 A 
ENDBRANCH  15  16
BRANCH  15  22
ATOM     22  C   UNL     1       2.515   4.181  19.730  0.00  0.00    +0.000 A 
ATOM     23  C   UNL     1       1.982   3.592  20.892  0.00  0.00    +0.000 A 
ATOM     24  C   UNL     1       1.019   2.580  20.812  0.00  0.00    +0.000 A 
ATOM     25  C   UNL     1       0.571   2.140  19.571  0.00  0.00    +0.000 A 
ATOM     26  C   UNL     1       1.085   2.707  18.410  0.00  0.00    +0.000 A 
ATOM     27  C   UNL     1       2.041   3.720  18.491  0.00  0.00    +0.000 A 
ENDBRANCH  15  22
ENDBRANCH   2  15
TORSDOF 5
ENDMDL
MODEL 3
REMARK VINA RESULT:      -7.7      1.292      1.823
REMARK  Name = 
REMARK  6 active torsions:
REMARK  status: ('A' for Active; 'I' for Inactive)
REMARK    1  A    between atoms: C_1  and  C_2
REMARK    2  A    between atoms: C_2  and  N_3
REMARK    3  A    between atoms: C_2  and  C_19
REMARK    4  A    between atoms: C_4  and  C_6
REMARK    5  A    between atoms: C_6  and  C_7
REMARK    6  A    between atoms: C_6  and  C_13
REMARK                            x       y       z     vdW  Elec       q    Type
REMARK                         _______ _______ _______ _____ _____    ______ ____
ROOT
ATOM      1  N   UNL     1       1.620   8.207  18.664  0.00  0.00    +0.000 N 
ATOM      2  C   UNL     1       2.380   7.171  19.179  0.00  0.00    +0.000 C 
ATOM      3  O   UNL     1       2.661   7.147  20.381  0.00  0.00    +0.000 OA
ATOM      4  H   UNL     1       1.299   8.223  17.701  0.00  0.00    +0.000 HD
ENDROOT
BRANCH   1   6
ATOM      5  C   UNL     1       0.505   8.745  20.792  0.00  0.00    +0.000 C 
ATOM      6  C   UNL     1       1.210   9.291  19.553  0.00  0.00    +0.000 C 
BRANCH   6   7
ATOM      7  C   UNL     1       0.298  10.347  18.884  0.00  0.00    +0.000 C 
ATOM      8  O   UNL     1      -0.447  10.018  17.956  0.00  0.00    +0.000 OA
ATOM      9  N   UNL     1       0.268  11.623  19.459  0.00  0.00    +0.000 N 
ATOM     10  C   UNL     1      -0.774  12.572  19.071  0.00  0.00    +0.000 C 
ATOM     11  C   UNL     1      -0.189  13.784  18.346  0.00  0.00    +0.000 C 
ATOM     12  C   UNL     1       0.953  14.420  19.138  0.00  0.00    +0.000 C 
ATOM     13  C   UNL     1       1.992  13.373  19.535  0.00  0.00    +0.000 C 
ATOM     14  C   UNL     1       1.331  12.214  20.282  0.00  0.00    +0.000 C 
ENDBRANCH   6   7
ENDBRANCH   1   6
BRANCH   2  15
ATOM     15  C   UNL     1       2.882   6.099  18.182  0.00  0.00    +0.000 C 
BRANCH  15  16
ATOM     16  C   UNL     1       4.416   6.091  18.147  0.00  0.00    +0.000 A 
ATOM     17  C   UNL     1       5.165   5.369  19.095  0.00  0.00    +0.000 A 
ATOM     18  C   UNL     1       6.559   5.431  19.110  0.00  0.00    +0.000 A 
ATOM     19  C   UNL     1       7.232   6.196  18.162  0.00  0.00    +0.000 A 
ATOM     20  C   UNL     1       6.510   6.888  17.193  0.00  0.00    +0.000 A 
ATOM     21  C   UNL     1       5.112   6.839  17.183  0.00  0.00    +0.000 A 
ENDBRANCH  15  16
BRANCH  15  22
ATOM     22  C   UNL     1       2.293   4.702  18.416  0.00  0.00    +0.000 A 
ATOM     23  C   UNL     1       2.654   3.651  17.551  0.00  0.00    +0.000 A 
ATOM     24  C   UNL     1       2.175   2.352  17.753  0.00  0.00    +0.000 A 
ATOM     25  C   UNL     1       1.330   2.080  18.822  0.00  0.00    +0.000 A 
ATOM     26  C   UNL     1       0.960   3.102  19.690  0.00  0.00    +0.000 A 
ATOM     27  C   UNL     1       1.442   4.396  19.490  0.00  0.00    +0.000 A 
ENDBRANCH  15  22
ENDBRANCH   2  15
TORSDOF 5
ENDMDL
MODEL 4
REMARK VINA RESULT:      -7.6      1.851      4.375
REMARK  Name = 
REMARK  6 active torsions:
REMARK  status: ('A' for Active; 'I' for Inactive)
REMARK    1  A    between atoms: C_1  and  C_2
REMARK    2  A    between atoms: C_2  and  N_3
REMARK    3  A    between atoms: C_2  and  C_19
REMARK    4  A    between atoms: C_4  and  C_6
REMARK    5  A    between atoms: C_6  and  C_7
REMARK    6  A    between atoms: C_6  and  C_13
REMARK                            x       y       z     vdW  Elec       q    Type
REMARK                         _______ _______ _______ _____ _____    ______ ____
ROOT
ATOM      1  N   UNL     1       2.221   8.240  19.421  0.00  0.00    +0.000 N 
ATOM      2  C   UNL     1       2.348   7.097  18.649  0.00  0.00    +0.000 C 
ATOM      3  O   UNL     1       1.728   6.996  17.586  0.00  0.00    +0.000 OA
ATOM      4  H   UNL     1       2.773   8.399  20.257  0.00  0.00    +0.000 HD
ENDROOT
BRANCH   1   6
ATOM      5  C   UNL     1       1.980  10.225  17.983  0.00  0.00    +0.000 C 
ATOM      6  C   UNL     1       1.304   9.289  18.982  0.00  0.00    +0.000 C 
BRANCH   6   7
ATOM      7  C   UNL     1       0.711  10.133  20.135  0.00  0.00    +0.000 C 
ATOM      8  O   UNL     1       1.029   9.890  21.303  0.00  0.00    +0.000 OA
ATOM      9  N   UNL     1      -0.073  11.238  19.782  0.00  0.00    +0.000 N 
ATOM     10  C   UNL     1      -0.417  12.238  20.791  0.00  0.00    +0.000 C 
ATOM     11  C   UNL     1      -1.921  12.266  21.067  0.00  0.00    +0.000 C 
ATOM     12  C   UNL     1      -2.730  12.394  19.776  0.00  0.00    +0.000 C 
ATOM     13  C   UNL     1      -2.305  11.338  18.757  0.00  0.00    +0.000 C 
ATOM     14  C   UNL     1      -0.797  11.400  18.515  0.00  0.00    +0.000 C 
ENDBRANCH   6   7
ENDBRANCH   1   6
BRANCH   2  15
ATOM     15  C   UNL     1       3.248   5.967  19.203  0.00  0.00    +0.000 C 
BRANCH  15  16
ATOM     16  C   UNL     1       2.526   4.618  19.093  0.00  0.00    +0.000 A 
ATOM     17  C   UNL     1       2.818   3.715  18.055  0.00  0.00    +0.000 A 
ATOM     18  C   UNL     1       2.102   2.526  17.910  0.00  0.00    +0.000 A 
ATOM     19  C   UNL     1       1.096   2.206  18.817  0.00  0.00    +0.000 A 
ATOM     20  C   UNL     1       0.816   3.069  19.873  0.00  0.00    +0.000 A 
ATOM     21  C   UNL     1       1.524   4.268  20.013  0.00  0.00    +0.000 A 
ENDBRANCH  15  16
BRANCH  15  22
ATOM     22  C   UNL     1       4.655   5.931  18.591  0.00  0.00    +0.000 A 
ATOM     23  C   UNL     1       4.892   6.604  17.377  0.00  0.00    +0.000 A 
ATOM     24  C   UNL     1       6.169   6.634  16.806  0.00  0.00    +0.000 A 
ATOM     25  C   UNL     1       7.231   5.995  17.437  0.00  0.00    +0.000 A 
ATOM     26  C   UNL     1       7.020   5.324  18.637  0.00  0.00    +0.000 A 
ATOM     27  C   UNL     1       5.747   5.299  19.209  0.00  0.00    +0.000 A 
ENDBRANCH  15  22
ENDBRANCH   2  15
TORSDOF 5
ENDMDL
MODEL 5
REMARK VINA RESULT:      -7.6      1.808      4.392
REMARK  Name = 
REMARK  6 active torsions:
REMARK  status: ('A' for Active; 'I' for Inactive)
REMARK    1  A    between atoms: C_1  and  C_2
REMARK    2  A    between atoms: C_2  and  N_3
REMARK    3  A    between atoms: C_2  and  C_19
REMARK    4  A    between atoms: C_4  and  C_6
REMARK    5  A    between atoms: C_6  and  C_7
REMARK    6  A    between atoms: C_6  and  C_13
REMARK                            x       y       z     vdW  Elec       q    Type
REMARK                         _______ _______ _______ _____ _____    ______ ____
ROOT
ATOM      1  N   UNL     1       2.188   8.443  19.402  0.00  0.00    +0.000 N 
ATOM      2  C   UNL     1       2.375   7.347  18.577  0.00  0.00    +0.000 C 
ATOM      3  O   UNL     1       1.816   7.298  17.476  0.00  0.00    +0.000 OA
ATOM      4  H   UNL     1       2.689   8.562  20.275  0.00  0.00    +0.000 HD
ENDROOT
BRANCH   1   6
ATOM      5  C   UNL     1       1.984  10.476  18.026  0.00  0.00    +0.000 C 
ATOM      6  C   UNL     1       1.281   9.505  18.970  0.00  0.00    +0.000 C 
BRANCH   6   7
ATOM      7  C   UNL     1       0.648  10.306  20.132  0.00  0.00    +0.000 C 
ATOM      8  O   UNL     1       0.968  10.058  21.299  0.00  0.00    +0.000 OA
ATOM      9  N   UNL     1      -0.178  11.384  19.791  0.00  0.00    +0.000 N 
ATOM     10  C   UNL     1      -0.567  12.355  20.813  0.00  0.00    +0.000 C 
ATOM     11  C   UNL     1      -2.073  12.318  21.079  0.00  0.00    +0.000 C 
ATOM     12  C   UNL     1      -2.879  12.434  19.785  0.00  0.00    +0.000 C 
ATOM     13  C   UNL     1      -2.406  11.412  18.753  0.00  0.00    +0.000 C 
ATOM     14  C   UNL     1      -0.900  11.537  18.521  0.00  0.00    +0.000 C 
ENDBRANCH   6   7
ENDBRANCH   1   6
BRANCH   2  15
ATOM     15  C   UNL     1       3.259   6.199  19.118  0.00  0.00    +0.000 C 
BRANCH  15  16
ATOM     16  C   UNL     1       2.427   4.919  19.266  0.00  0.00    +0.000 A 
ATOM     17  C   UNL     1       2.220   4.052  18.177  0.00  0.00    +0.000 A 
ATOM     18  C   UNL     1       1.394   2.932  18.294  0.00  0.00    +0.000 A 
ATOM     19  C   UNL     1       0.782   2.644  19.509  0.00  0.00    +0.000 A 
ATOM     20  C   UNL     1       1.004   3.469  20.609  0.00  0.00    +0.000 A 
ATOM     21  C   UNL     1       1.820   4.600  20.491  0.00  0.00    +0.000 A 
ENDBRANCH  15  16
BRANCH  15  22
ATOM     22  C   UNL     1       4.548   5.972  18.317  0.00  0.00    +0.000 A 
ATOM     23  C   UNL     1       5.609   5.261  18.910  0.00  0.00    +0.000 A 
ATOM     24  C   UNL     1       6.785   4.993  18.201  0.00  0.00    +0.000 A 
ATOM     25  C   UNL     1       6.922   5.429  16.888  0.00  0.00    +0.000 A 
ATOM     26  C   UNL     1       5.887   6.134  16.281  0.00  0.00    +0.000 A 
ATOM     27  C   UNL     1       4.712   6.396  16.988  0.00  0.00    +0.000 A 
ENDBRANCH  15  22
ENDBRANCH   2  15
TORSDOF 5
ENDMDL
MODEL 6
REMARK VINA RESULT:      -7.6      1.619      2.430
REMARK  Name = 
REMARK  6 active torsions:
REMARK  status: ('A' for Active; 'I' for Inactive)
REMARK    1  A    between atoms: C_1  and  C_2
REMARK    2  A    between atoms: C_2  and  N_3
REMARK    3  A    between atoms: C_2  and  C_19
REMARK    4  A    between atoms: C_4  and  C_6
REMARK    5  A    between atoms: C_6  and  C_7
REMARK    6  A    between atoms: C_6  and  C_13
REMARK                            x       y       z     vdW  Elec       q    Type
REMARK                         _______ _______ _______ _____ _____    ______ ____
ROOT
ATOM      1  N   UNL     1       1.889   7.798  20.067  0.00  0.00    +0.000 N 
ATOM      2  C   UNL     1       2.416   7.811  18.787  0.00  0.00    +0.000 C 
ATOM      3  O   UNL     1       2.569   8.881  18.190  0.00  0.00    +0.000 OA
ATOM      4  H   UNL     1       1.822   6.952  20.622  0.00  0.00    +0.000 HD
ENDROOT
BRANCH   1   6
ATOM      5  C   UNL     1       1.280   8.912  22.177  0.00  0.00    +0.000 C 
ATOM      6  C   UNL     1       1.471   9.062  20.671  0.00  0.00    +0.000 C 
BRANCH   6   7
ATOM      7  C   UNL     1       0.182   9.658  20.060  0.00  0.00    +0.000 C 
ATOM      8  O   UNL     1      -0.751   8.914  19.740  0.00  0.00    +0.000 OA
ATOM      9  N   UNL     1       0.080  11.054  20.016  0.00  0.00    +0.000 N 
ATOM     10  C   UNL     1      -1.210  11.681  19.731  0.00  0.00    +0.000 C 
ATOM     11  C   UNL     1      -1.186  12.439  18.403  0.00  0.00    +0.000 C 
ATOM     12  C   UNL     1      -0.004  13.405  18.324  0.00  0.00    +0.000 C 
ATOM     13  C   UNL     1       1.306  12.694  18.657  0.00  0.00    +0.000 C 
ATOM     14  C   UNL     1       1.210  11.992  20.012  0.00  0.00    +0.000 C 
ENDBRANCH   6   7
ENDBRANCH   1   6
BRANCH   2  15
ATOM     15  C   UNL     1       2.746   6.442  18.145  0.00  0.00    +0.000 C 
BRANCH  15  16
ATOM     16  C   UNL     1       4.266   6.247  18.076  0.00  0.00    +0.000 A 
ATOM     17  C   UNL     1       4.951   5.494  19.047  0.00  0.00    +0.000 A 
ATOM     18  C   UNL     1       6.343   5.388  19.027  0.00  0.00    +0.000 A 
ATOM     19  C   UNL     1       7.073   6.011  18.019  0.00  0.00    +0.000 A 
ATOM     20  C   UNL     1       6.411   6.730  17.028  0.00  0.00    +0.000 A 
ATOM     21  C   UNL     1       5.017   6.849  17.054  0.00  0.00    +0.000 A 
ENDBRANCH  15  16
BRANCH  15  22
ATOM     22  C   UNL     1       2.031   5.254  18.804  0.00  0.00    +0.000 A 
ATOM     23  C   UNL     1       1.583   4.190  17.999  0.00  0.00    +0.000 A 
ATOM     24  C   UNL     1       0.966   3.068  18.562  0.00  0.00    +0.000 A 
ATOM     25  C   UNL     1       0.787   2.988  19.939  0.00  0.00    +0.000 A 
ATOM     26  C   UNL     1       1.221   4.028  20.754  0.00  0.00    +0.000 A 
ATOM     27  C   UNL     1       1.842   5.145  20.192  0.00  0.00    +0.000 A 
ENDBRANCH  15  22
ENDBRANCH   2  15
TORSDOF 5
ENDMDL
MODEL 7
REMARK VINA RESULT:      -7.6      1.291      1.804
REMARK  Name = 
REMARK  6 active torsions:
REMARK  status: ('A' for Active; 'I' for Inactive)
REMARK    1  A    between atoms: C_1  and  C_2
REMARK    2  A    between atoms: C_2  and  N_3
REMARK    3  A    between atoms: C_2  and  C_19
REMARK    4  A    between atoms: C_4  and  C_6
REMARK    5  A    between atoms: C_6  and  C_7
REMARK    6  A    between atoms: C_6  and  C_13
REMARK                            x       y       z     vdW  Elec       q    Type
REMARK                         _______ _______ _______ _____ _____    ______ ____
ROOT
ATOM      1  N   UNL     1       1.696   8.224  18.651  0.00  0.00    +0.000 N 
ATOM      2  C   UNL     1       2.401   7.157  19.182  0.00  0.00    +0.000 C 
ATOM      3  O   UNL     1       2.606   7.094  20.398  0.00  0.00    +0.000 OA
ATOM      4  H   UNL     1       1.436   8.275  17.672  0.00  0.00    +0.000 HD
ENDROOT
BRANCH   1   6
ATOM      5  C   UNL     1       0.535   8.719  20.765  0.00  0.00    +0.000 C 
ATOM      6  C   UNL     1       1.251   9.291  19.545  0.00  0.00    +0.000 C 
BRANCH   6   7
ATOM      7  C   UNL     1       0.333  10.338  18.872  0.00  0.00    +0.000 C 
ATOM      8  O   UNL     1      -0.391  10.007  17.928  0.00  0.00    +0.000 OA
ATOM      9  N   UNL     1       0.271  11.607  19.460  0.00  0.00    +0.000 N 
ATOM     10  C   UNL     1      -0.781  12.542  19.064  0.00  0.00    +0.000 C 
ATOM     11  C   UNL     1      -0.205  13.773  18.362  0.00  0.00    +0.000 C 
ATOM     12  C   UNL     1       0.913  14.419  19.180  0.00  0.00    +0.000 C 
ATOM     13  C   UNL     1       1.963  13.385  19.583  0.00  0.00    +0.000 C 
ATOM     14  C   UNL     1       1.310  12.207  20.306  0.00  0.00    +0.000 C 
ENDBRANCH   6   7
ENDBRANCH   1   6
BRANCH   2  15
ATOM     15  C   UNL     1       2.945   6.105  18.186  0.00  0.00    +0.000 C 
BRANCH  15  16
ATOM     16  C   UNL     1       4.478   6.140  18.169  0.00  0.00    +0.000 A 
ATOM     17  C   UNL     1       5.182   6.849  17.178  0.00  0.00    +0.000 A 
ATOM     18  C   UNL     1       6.576   6.811  17.117  0.00  0.00    +0.000 A 
ATOM     19  C   UNL     1       7.293   6.083  18.062  0.00  0.00    +0.000 A 
ATOM     20  C   UNL     1       6.617   5.404  19.072  0.00  0.00    +0.000 A 
ATOM     21  C   UNL     1       5.220   5.430  19.127  0.00  0.00    +0.000 A 
ENDBRANCH  15  16
BRANCH  15  22
ATOM     22  C   UNL     1       2.393   4.690  18.409  0.00  0.00    +0.000 A 
ATOM     23  C   UNL     1       1.507   4.460  19.479  0.00  0.00    +0.000 A 
ATOM     24  C   UNL     1       0.946   3.197  19.693  0.00  0.00    +0.000 A 
ATOM     25  C   UNL     1       1.258   2.142  18.842  0.00  0.00    +0.000 A 
ATOM     26  C   UNL     1       2.130   2.346  17.779  0.00  0.00    +0.000 A 
ATOM     27  C   UNL     1       2.686   3.608  17.563  0.00  0.00    +0.000 A 
ENDBRANCH  15  22
ENDBRANCH   2  15
TORSDOF 5
ENDMDL
MODEL 8
REMARK VINA RESULT:      -7.6      1.820      4.455
REMARK  Name = 
REMARK  6 active torsions:
REMARK  status: ('A' for Active; 'I' for Inactive)
REMARK    1  A    between atoms: C_1  and  C_2
REMARK    2  A    between atoms: C_2  and  N_3
REMARK    3  A    between atoms: C_2  and  C_19
REMARK    4  A    between atoms: C_4  and  C_6
REMARK    5  A    between atoms: C_6  and  C_7
REMARK    6  A    between atoms: C_6  and  C_13
REMARK                            x       y       z     vdW  Elec       q    Type
REMARK                         _______ _______ _______ _____ _____    ______ ____
ROOT
ATOM      1  N   UNL     1       2.127   8.332  19.440  0.00  0.00    +0.000 N 
ATOM      2  C   UNL     1       2.351   7.260  18.593  0.00  0.00    +0.000 C 
ATOM      3  O   UNL     1       1.849   7.245  17.465  0.00  0.00    +0.000 OA
ATOM      4  H   UNL     1       2.585   8.422  20.341  0.00  0.00    +0.000 HD
ENDROOT
BRANCH   1   6
ATOM      5  C   UNL     1       1.972  10.346  18.032  0.00  0.00    +0.000 C 
ATOM      6  C   UNL     1       1.247   9.410  18.995  0.00  0.00    +0.000 C 
BRANCH   6   7
ATOM      7  C   UNL     1       0.643  10.248  20.147  0.00  0.00    +0.000 C 
ATOM      8  O   UNL     1       0.975  10.021  21.314  0.00  0.00    +0.000 OA
ATOM      9  N   UNL     1      -0.171  11.331  19.792  0.00  0.00    +0.000 N 
ATOM     10  C   UNL     1      -0.532  12.330  20.796  0.00  0.00    +0.000 C 
ATOM     11  C   UNL     1      -2.034  12.323  21.082  0.00  0.00    +0.000 C 
ATOM     12  C   UNL     1      -2.855  12.422  19.797  0.00  0.00    +0.000 C 
ATOM     13  C   UNL     1      -2.412  11.370  18.783  0.00  0.00    +0.000 C 
ATOM     14  C   UNL     1      -0.907  11.467  18.528  0.00  0.00    +0.000 C 
ENDBRANCH   6   7
ENDBRANCH   1   6
BRANCH   2  15
ATOM     15  C   UNL     1       3.203   6.091  19.144  0.00  0.00    +0.000 C 
BRANCH  15  16
ATOM     16  C   UNL     1       2.427   4.773  19.026  0.00  0.00    +0.000 A 
ATOM     17  C   UNL     1       1.487   4.388  20.000  0.00  0.00    +0.000 A 
ATOM     18  C   UNL     1       0.844   3.151  19.933  0.00  0.00    +0.000 A 
ATOM     19  C   UNL     1       1.109   2.287  18.875  0.00  0.00    +0.000 A 
ATOM     20  C   UNL     1       2.008   2.665  17.881  0.00  0.00    +0.000 A 
ATOM     21  C   UNL     1       2.664   3.898  17.954  0.00  0.00    +0.000 A 
ENDBRANCH  15  16
BRANCH  15  22
ATOM     22  C   UNL     1       4.608   6.000  18.535  0.00  0.00    +0.000 A 
ATOM     23  C   UNL     1       5.615   5.306  19.232  0.00  0.00    +0.000 A 
ATOM     24  C   UNL     1       6.898   5.161  18.694  0.00  0.00    +0.000 A 
ATOM     25  C   UNL     1       7.198   5.706  17.450  0.00  0.00    +0.000 A 
ATOM     26  C   UNL     1       6.220   6.397  16.743  0.00  0.00    +0.000 A 
ATOM     27  C   UNL     1       4.938   6.536  17.279  0.00  0.00    +0.000 A 
ENDBRANCH  15  22
ENDBRANCH   2  15
TORSDOF 5
ENDMDL
MODEL 9
REMARK VINA RESULT:      -7.5      1.512      1.823
REMARK  Name = 
REMARK  6 active torsions:
REMARK  status: ('A' for Active; 'I' for Inactive)
REMARK    1  A    between atoms: C_1  and  C_2
REMARK    2  A    between atoms: C_2  and  N_3
REMARK    3  A    between atoms: C_2  and  C_19
REMARK    4  A    between atoms: C_4  and  C_6
REMARK    5  A    between atoms: C_6  and  C_7
REMARK    6  A    between atoms: C_6  and  C_13
REMARK                            x       y       z     vdW  Elec       q    Type
REMARK                         _______ _______ _______ _____ _____    ______ ____
ROOT
ATOM      1  N   UNL     1       1.741   7.742  19.471  0.00  0.00    +0.000 N 
ATOM      2  C   UNL     1       2.657   7.620  18.441  0.00  0.00    +0.000 C 
ATOM      3  O   UNL     1       3.253   8.616  18.020  0.00  0.00    +0.000 OA
ATOM      4  H   UNL     1       1.290   6.941  19.901  0.00  0.00    +0.000 HD
ENDROOT
BRANCH   1   6
ATOM      5  C   UNL     1       0.877   8.980  21.417  0.00  0.00    +0.000 C 
ATOM      6  C   UNL     1       1.457   9.071  20.008  0.00  0.00    +0.000 C 
BRANCH   6   7
ATOM      7  C   UNL     1       0.505   9.917  19.130  0.00  0.00    +0.000 C 
ATOM      8  O   UNL     1      -0.067   9.400  18.166  0.00  0.00    +0.000 OA
ATOM      9  N   UNL     1       0.232  11.223  19.556  0.00  0.00    +0.000 N 
ATOM     10  C   UNL     1      -0.869  11.971  18.952  0.00  0.00    +0.000 C 
ATOM     11  C   UNL     1      -0.364  13.183  18.170  0.00  0.00    +0.000 C 
ATOM     12  C   UNL     1       0.575  14.048  19.012  0.00  0.00    +0.000 C 
ATOM     13  C   UNL     1       1.685  13.204  19.633  0.00  0.00    +0.000 C 
ATOM     14  C   UNL     1       1.096  12.035  20.423  0.00  0.00    +0.000 C 
ENDBRANCH   6   7
ENDBRANCH   1   6
BRANCH   2  15
ATOM     15  C   UNL     1       2.849   6.210  17.831  0.00  0.00    +0.000 C 
BRANCH  15  16
ATOM     16  C   UNL     1       4.342   5.926  17.624  0.00  0.00    +0.000 A 
ATOM     17  C   UNL     1       4.925   5.973  16.345  0.00  0.00    +0.000 A 
ATOM     18  C   UNL     1       6.265   5.633  16.150  0.00  0.00    +0.000 A 
ATOM     19  C   UNL     1       7.053   5.264  17.235  0.00  0.00    +0.000 A 
ATOM     20  C   UNL     1       6.505   5.246  18.515  0.00  0.00    +0.000 A 
ATOM     21  C   UNL     1       5.159   5.574  18.711  0.00  0.00    +0.000 A 
ENDBRANCH  15  16
BRANCH  15  22
ATOM     22  C   UNL     1       2.140   5.092  18.606  0.00  0.00    +0.000 A 
ATOM     23  C   UNL     1       1.631   3.985  17.901  0.00  0.00    +0.000 A 
ATOM     24  C   UNL     1       1.016   2.922  18.572  0.00  0.00    +0.000 A 
ATOM     25  C   UNL     1       0.901   2.945  19.958  0.00  0.00    +0.000 A 
ATOM     26  C   UNL     1       1.397   4.029  20.675  0.00  0.00    +0.000 A 
ATOM     27  C   UNL     1       2.015   5.086  20.005  0.00  0.00    +0.000 A 
ENDBRANCH  15  22
ENDBRANCH   2  15
TORSDOF 5
ENDMDL
