MODEL 1
REMARK VINA RESULT:      -3.1      0.000      0.000
REMARK  Name = 
REMARK  1 active torsions:
REMARK  status: ('A' for Active; 'I' for Inactive)
REMARK    1  A    between atoms: C_1  and  C_2
REMARK                            x       y       z     vdW  Elec       q    Type
REMARK                         _______ _______ _______ _____ _____    ______ ____
ROOT
ATOM      1  C   UNL     1       9.781   4.296  27.574  0.00  0.00    +0.000 C 
ATOM      2  C   UNL     1       8.297   4.480  27.596  0.00  0.00    +0.000 C 
ATOM      3  O   UNL     1       7.571   3.708  26.991  0.00  0.00    +0.000 OA
ATOM      4  O   UNL     1       7.758   5.504  28.284  0.00  0.00    +0.000 OA
ENDROOT
TORSDOF 0
ENDMDL
MODEL 2
REMARK VINA RESULT:      -3.0      1.354      1.750
REMARK  Name = 
REMARK  1 active torsions:
REMARK  status: ('A' for Active; 'I' for Inactive)
REMARK    1  A    between atoms: C_1  and  C_2
REMARK                            x       y       z     vdW  Elec       q    Type
REMARK                         _______ _______ _______ _____ _____    ______ ____
ROOT
ATOM      1  C   UNL     1       7.524   5.584  28.385  0.00  0.00    +0.000 C 
ATOM      2  C   UNL     1       8.218   4.522  27.592  0.00  0.00    +0.000 C 
ATOM      3  O   UNL     1       7.572   3.684  26.985  0.00  0.00    +0.000 OA
ATOM      4  O   UNL     1       9.563   4.489  27.549  0.00  0.00    +0.000 OA
ENDROOT
TORSDOF 0
ENDMDL
MODEL 3
REMARK VINA RESULT:      -3.0      1.323      1.975
REMARK  Name = 
REMARK  1 active torsions:
REMARK  status: ('A' for Active; 'I' for Inactive)
REMARK    1  A    between atoms: C_1  and  C_2
REMARK                            x       y       z     vdW  Elec       q    Type
REMARK                         _______ _______ _______ _____ _____    ______ ____
ROOT
ATOM      1  C   UNL     1       7.936   5.648  28.491  0.00  0.00    +0.000 C 
ATOM      2  C   UNL     1       8.401   4.521  27.623  0.00  0.00    +0.000 C 
ATOM      3  O   UNL     1       9.591   4.356  27.412  0.00  0.00    +0.000 OA
ATOM      4  O   UNL     1       7.502   3.687  27.069  0.00  0.00    +0.000 OA
ENDROOT
TORSDOF 0
ENDMDL
MODEL 4
REMARK VINA RESULT:      -2.9      0.579      1.644
REMARK  Name = 
REMARK  1 active torsions:
REMARK  status: ('A' for Active; 'I' for Inactive)
REMARK    1  A    between atoms: C_1  and  C_2
REMARK                            x       y       z     vdW  Elec       q    Type
REMARK                         _______ _______ _______ _____ _____    ______ ____
ROOT
ATOM      1  C   UNL     1       9.375   4.890  27.959  0.00  0.00    +0.000 C 
ATOM      2  C   UNL     1       7.922   4.691  27.664  0.00  0.00    +0.000 C 
ATOM      3  O   UNL     1       7.091   5.463  28.111  0.00  0.00    +0.000 OA
ATOM      4  O   UNL     1       7.529   3.652  26.904  0.00  0.00    +0.000 OA
ENDROOT
TORSDOF 0
ENDMDL
MODEL 5
REMARK VINA RESULT:      -2.9      8.778      9.082
REMARK  Name = 
REMARK  1 active torsions:
REMARK  status: ('A' for Active; 'I' for Inactive)
REMARK    1  A    between atoms: C_1  and  C_2
REMARK                            x       y       z     vdW  Elec       q    Type
REMARK                         _______ _______ _______ _____ _____    ______ ____
ROOT
ATOM      1  C   UNL     1       7.513   6.721  17.959  0.00  0.00    +0.000 C 
ATOM      2  C   UNL     1       7.638   5.444  18.728  0.00  0.00    +0.000 C 
ATOM      3  O   UNL     1       7.920   4.405  18.155  0.00  0.00    +0.000 OA
ATOM      4  O   UNL     1       7.437   5.440  20.059  0.00  0.00    +0.000 OA
ENDROOT
TORSDOF 0
ENDMDL
MODEL 6
REMARK VINA RESULT:      -2.8     11.676     12.069
REMARK  Name = 
REMARK  1 active torsions:
REMARK  status: ('A' for Active; 'I' for Inactive)
REMARK    1  A    between atoms: C_1  and  C_2
REMARK                            x       y       z     vdW  Elec       q    Type
REMARK                         _______ _______ _______ _____ _____    ______ ____
ROOT
ATOM      1  C   UNL     1       5.845   3.938  15.567  0.00  0.00    +0.000 C 
ATOM      2  C   UNL     1       7.149   4.650  15.748  0.00  0.00    +0.000 C 
ATOM      3  O   UNL     1       7.533   5.454  14.916  0.00  0.00    +0.000 OA
ATOM      4  O   UNL     1       7.903   4.400  16.835  0.00  0.00    +0.000 OA
ENDROOT
TORSDOF 0
ENDMDL
MODEL 7
REMARK VINA RESULT:      -2.8     11.839     12.255
REMARK  Name = 
REMARK  1 active torsions:
REMARK  status: ('A' for Active; 'I' for Inactive)
REMARK    1  A    between atoms: C_1  and  C_2
REMARK                            x       y       z     vdW  Elec       q    Type
REMARK                         _______ _______ _______ _____ _____    ______ ____
ROOT
ATOM      1  C   UNL     1       5.760   4.015  15.563  0.00  0.00    +0.000 C 
ATOM      2  C   UNL     1       7.122   4.630  15.629  0.00  0.00    +0.000 C 
ATOM      3  O   UNL     1       7.829   4.459  16.609  0.00  0.00    +0.000 OA
ATOM      4  O   UNL     1       7.570   5.377  14.604  0.00  0.00    +0.000 OA
ENDROOT
TORSDOF 0
ENDMDL
MODEL 8
REMARK VINA RESULT:      -2.7      9.659     10.028
REMARK  Name = 
REMARK  1 active torsions:
REMARK  status: ('A' for Active; 'I' for Inactive)
REMARK    1  A    between atoms: C_1  and  C_2
REMARK                            x       y       z     vdW  Elec       q    Type
REMARK                         _______ _______ _______ _____ _____    ______ ____
ROOT
ATOM      1  C   UNL     1       7.359   6.542  17.583  0.00  0.00    +0.000 C 
ATOM      2  C   UNL     1       7.399   5.057  17.753  0.00  0.00    +0.000 C 
ATOM      3  O   UNL     1       8.004   4.360  16.955  0.00  0.00    +0.000 OA
ATOM      4  O   UNL     1       6.763   4.484  18.792  0.00  0.00    +0.000 OA
ENDROOT
TORSDOF 0
ENDMDL
MODEL 9
REMARK VINA RESULT:      -2.7      9.234      9.653
REMARK  Name = 
REMARK  1 active torsions:
REMARK  status: ('A' for Active; 'I' for Inactive)
REMARK    1  A    between atoms: C_1  and  C_2
REMARK                            x       y       z     vdW  Elec       q    Type
REMARK                         _______ _______ _______ _____ _____    ______ ____
ROOT
ATOM      1  C   UNL     1       7.875   6.036  18.895  0.00  0.00    +0.000 C 
ATOM      2  C   UNL     1       7.360   4.844  18.153  0.00  0.00    +0.000 C 
ATOM      3  O   UNL     1       6.344   4.279  18.522  0.00  0.00    +0.000 OA
ATOM      4  O   UNL     1       8.023   4.389  17.073  0.00  0.00    +0.000 OA
ENDROOT
TORSDOF 0
ENDMDL
