MODEL 1
REMARK VINA RESULT:      -7.4      0.000      0.000
REMARK  Name = 
REMARK  6 active torsions:
REMARK  status: ('A' for Active; 'I' for Inactive)
REMARK    1  A    between atoms: N_1  and  C_2
REMARK    2  A    between atoms: C_9  and  O_10
REMARK    3  A    between atoms: O_10  and  C_11
REMARK    4  A    between atoms: C_16  and  C_17
REMARK    5  A    between atoms: C_17  and  C_18
REMARK    6  A    between atoms: C_18  and  O_20
REMARK                            x       y       z     vdW  Elec       q    Type
REMARK                         _______ _______ _______ _____ _____    ______ ____
ROOT
ATOM      1  O   UNL     1       4.671   6.001  17.995  0.00  0.00    +0.000 OA
ENDROOT
BRANCH   1   9
ATOM      2  C   UNL     1       4.317   3.939  19.287  0.00  0.00    +0.000 A 
ATOM      3  C   UNL     1       3.469   3.213  20.137  0.00  0.00    +0.000 A 
ATOM      4  C   UNL     1       2.225   3.719  20.510  0.00  0.00    +0.000 A 
ATOM      5 CL   UNL     1       1.201   2.788  21.534  0.00  0.00    +0.000 Cl
ATOM      6  C   UNL     1       1.817   4.977  20.080  0.00  0.00    +0.000 A 
ATOM      7  C   UNL     1       2.653   5.721  19.245  0.00  0.00    +0.000 A 
ATOM      8 CL   UNL     1       2.115   7.288  18.754  0.00  0.00    +0.000 Cl
ATOM      9  C   UNL     1       3.894   5.207  18.824  0.00  0.00    +0.000 A 
BRANCH   2  10
ATOM     10  N   UNL     1       5.630   3.462  19.108  0.00  0.00    +0.000 N 
ATOM     11  H   UNL     1       5.912   3.409  18.132  0.00  0.00    +0.000 HD
ATOM     12  H   UNL     1       6.331   3.945  19.661  0.00  0.00    +0.000 HD
ENDBRANCH   2  10
ENDBRANCH   1   9
BRANCH   1  13
ATOM     13  C   UNL     1       5.235   5.458  16.852  0.00  0.00    +0.000 A 
ATOM     14  C   UNL     1       4.575   4.539  16.025  0.00  0.00    +0.000 A 
ATOM     15  C   UNL     1       5.246   3.904  14.982  0.00  0.00    +0.000 A 
ATOM     16  C   UNL     1       6.565   4.234  14.706  0.00  0.00    +0.000 A 
ATOM     17  C   UNL     1       7.205   5.217  15.458  0.00  0.00    +0.000 A 
ATOM     18  C   UNL     1       6.559   5.841  16.541  0.00  0.00    +0.000 A 
BRANCH  18  19
ATOM     19  C   UNL     1       7.293   6.945  17.273  0.00  0.00    +0.000 C 
BRANCH  19  20
ATOM     20  C   UNL     1       7.961   6.493  18.548  0.00  0.00    +0.000 C 
ATOM     21  O   UNL     1       7.882   5.357  19.001  0.00  0.00    +0.000 OA
BRANCH  20  22
ATOM     22  O   UNL     1       8.672   7.463  19.171  0.00  0.00    +0.000 OA
ATOM     23  H   UNL     1       9.528   7.647  18.741  0.00  0.00    +0.000 HD
ENDBRANCH  20  22
ENDBRANCH  19  20
ENDBRANCH  18  19
ENDBRANCH   1  13
TORSDOF 6
ENDMDL
MODEL 2
REMARK VINA RESULT:      -7.3      1.951      3.093
REMARK  Name = 
REMARK  6 active torsions:
REMARK  status: ('A' for Active; 'I' for Inactive)
REMARK    1  A    between atoms: N_1  and  C_2
REMARK    2  A    between atoms: C_9  and  O_10
REMARK    3  A    between atoms: O_10  and  C_11
REMARK    4  A    between atoms: C_16  and  C_17
REMARK    5  A    between atoms: C_17  and  C_18
REMARK    6  A    between atoms: C_18  and  O_20
REMARK                            x       y       z     vdW  Elec       q    Type
REMARK                         _______ _______ _______ _____ _____    ______ ____
ROOT
ATOM      1  O   UNL     1       4.860   3.833  17.812  0.00  0.00    +0.000 OA
ENDROOT
BRANCH   1   9
ATOM      2  C   UNL     1       4.108   2.455  19.704  0.00  0.00    +0.000 A 
ATOM      3  C   UNL     1       3.164   2.272  20.726  0.00  0.00    +0.000 A 
ATOM      4  C   UNL     1       2.097   3.156  20.882  0.00  0.00    +0.000 A 
ATOM      5 CL   UNL     1       0.945   2.886  22.132  0.00  0.00    +0.000 Cl
ATOM      6  C   UNL     1       1.971   4.263  20.051  0.00  0.00    +0.000 A 
ATOM      7  C   UNL     1       2.909   4.470  19.036  0.00  0.00    +0.000 A 
ATOM      8 CL   UNL     1       2.726   5.871  18.042  0.00  0.00    +0.000 Cl
ATOM      9  C   UNL     1       3.968   3.564  18.839  0.00  0.00    +0.000 A 
BRANCH   2  10
ATOM     10  N   UNL     1       5.260   1.644  19.724  0.00  0.00    +0.000 N 
ATOM     11  H   UNL     1       5.634   1.449  18.798  0.00  0.00    +0.000 HD
ATOM     12  H   UNL     1       5.991   1.970  20.348  0.00  0.00    +0.000 HD
ENDBRANCH   2  10
ENDBRANCH   1   9
BRANCH   1  13
ATOM     13  C   UNL     1       5.897   4.729  18.018  0.00  0.00    +0.000 A 
ATOM     14  C   UNL     1       6.582   4.854  19.234  0.00  0.00    +0.000 A 
ATOM     15  C   UNL     1       7.503   5.879  19.434  0.00  0.00    +0.000 A 
ATOM     16  C   UNL     1       7.807   6.748  18.396  0.00  0.00    +0.000 A 
ATOM     17  C   UNL     1       7.207   6.577  17.151  0.00  0.00    +0.000 A 
ATOM     18  C   UNL     1       6.244   5.573  16.939  0.00  0.00    +0.000 A 
BRANCH  18  19
ATOM     19  C   UNL     1       5.680   5.404  15.544  0.00  0.00    +0.000 C 
BRANCH  19  20
ATOM     20  C   UNL     1       6.635   4.751  14.575  0.00  0.00    +0.000 C 
ATOM     21  O   UNL     1       7.618   5.305  14.098  0.00  0.00    +0.000 OA
BRANCH  20  22
ATOM     22  O   UNL     1       6.313   3.473  14.262  0.00  0.00    +0.000 OA
ATOM     23  H   UNL     1       6.614   3.209  13.372  0.00  0.00    +0.000 HD
ENDBRANCH  20  22
ENDBRANCH  19  20
ENDBRANCH  18  19
ENDBRANCH   1  13
TORSDOF 6
ENDMDL
MODEL 3
REMARK VINA RESULT:      -7.3      1.893      2.960
REMARK  Name = 
REMARK  6 active torsions:
REMARK  status: ('A' for Active; 'I' for Inactive)
REMARK    1  A    between atoms: N_1  and  C_2
REMARK    2  A    between atoms: C_9  and  O_10
REMARK    3  A    between atoms: O_10  and  C_11
REMARK    4  A    between atoms: C_16  and  C_17
REMARK    5  A    between atoms: C_17  and  C_18
REMARK    6  A    between atoms: C_18  and  O_20
REMARK                            x       y       z     vdW  Elec       q    Type
REMARK                         _______ _______ _______ _____ _____    ______ ____
ROOT
ATOM      1  O   UNL     1       4.223   4.554  17.620  0.00  0.00    +0.000 OA
ENDROOT
BRANCH   1   9
ATOM      2  C   UNL     1       3.399   2.641  18.927  0.00  0.00    +0.000 A 
ATOM      3  C   UNL     1       2.617   2.201  20.005  0.00  0.00    +0.000 A 
ATOM      4  C   UNL     1       1.903   3.106  20.789  0.00  0.00    +0.000 A 
ATOM      5 CL   UNL     1       0.935   2.527  22.089  0.00  0.00    +0.000 Cl
ATOM      6  C   UNL     1       1.987   4.472  20.542  0.00  0.00    +0.000 A 
ATOM      7  C   UNL     1       2.772   4.930  19.481  0.00  0.00    +0.000 A 
ATOM      8 CL   UNL     1       2.864   6.637  19.225  0.00  0.00    +0.000 Cl
ATOM      9  C   UNL     1       3.465   4.027  18.654  0.00  0.00    +0.000 A 
BRANCH   2  10
ATOM     10  N   UNL     1       4.242   1.701  18.303  0.00  0.00    +0.000 N 
ATOM     11  H   UNL     1       4.317   0.823  18.812  0.00  0.00    +0.000 HD
ATOM     12  H   UNL     1       4.032   1.534  17.323  0.00  0.00    +0.000 HD
ENDBRANCH   2  10
ENDBRANCH   1   9
BRANCH   1  13
ATOM     13  C   UNL     1       5.460   5.116  17.891  0.00  0.00    +0.000 A 
ATOM     14  C   UNL     1       6.092   5.030  19.139  0.00  0.00    +0.000 A 
ATOM     15  C   UNL     1       7.256   5.749  19.403  0.00  0.00    +0.000 A 
ATOM     16  C   UNL     1       7.845   6.505  18.399  0.00  0.00    +0.000 A 
ATOM     17  C   UNL     1       7.282   6.522  17.124  0.00  0.00    +0.000 A 
ATOM     18  C   UNL     1       6.084   5.836  16.848  0.00  0.00    +0.000 A 
BRANCH  18  19
ATOM     19  C   UNL     1       5.564   5.847  15.426  0.00  0.00    +0.000 C 
BRANCH  19  20
ATOM     20  C   UNL     1       6.255   4.861  14.517  0.00  0.00    +0.000 C 
ATOM     21  O   UNL     1       5.897   3.699  14.363  0.00  0.00    +0.000 OA
BRANCH  20  22
ATOM     22  O   UNL     1       7.330   5.369  13.869  0.00  0.00    +0.000 OA
ATOM     23  H   UNL     1       7.108   5.750  12.998  0.00  0.00    +0.000 HD
ENDBRANCH  20  22
ENDBRANCH  19  20
ENDBRANCH  18  19
ENDBRANCH   1  13
TORSDOF 6
ENDMDL
MODEL 4
REMARK VINA RESULT:      -7.3      1.048      1.231
REMARK  Name = 
REMARK  6 active torsions:
REMARK  status: ('A' for Active; 'I' for Inactive)
REMARK    1  A    between atoms: N_1  and  C_2
REMARK    2  A    between atoms: C_9  and  O_10
REMARK    3  A    between atoms: O_10  and  C_11
REMARK    4  A    between atoms: C_16  and  C_17
REMARK    5  A    between atoms: C_17  and  C_18
REMARK    6  A    between atoms: C_18  and  O_20
REMARK                            x       y       z     vdW  Elec       q    Type
REMARK                         _______ _______ _______ _____ _____    ______ ____
ROOT
ATOM      1  O   UNL     1       5.208   5.554  18.441  0.00  0.00    +0.000 OA
ENDROOT
BRANCH   1   9
ATOM      2  C   UNL     1       4.090   3.511  19.231  0.00  0.00    +0.000 A 
ATOM      3  C   UNL     1       2.889   2.905  19.631  0.00  0.00    +0.000 A 
ATOM      4  C   UNL     1       1.691   3.619  19.629  0.00  0.00    +0.000 A 
ATOM      5 CL   UNL     1       0.234   2.836  20.102  0.00  0.00    +0.000 Cl
ATOM      6  C   UNL     1       1.671   4.962  19.269  0.00  0.00    +0.000 A 
ATOM      7  C   UNL     1       2.859   5.586  18.880  0.00  0.00    +0.000 A 
ATOM      8 CL   UNL     1       2.791   7.262  18.463  0.00  0.00    +0.000 Cl
ATOM      9  C   UNL     1       4.069   4.869  18.837  0.00  0.00    +0.000 A 
BRANCH   2  10
ATOM     10  N   UNL     1       5.286   2.797  19.442  0.00  0.00    +0.000 N 
ATOM     11  H   UNL     1       5.723   2.996  20.338  0.00  0.00    +0.000 HD
ATOM     12  H   UNL     1       5.208   1.796  19.291  0.00  0.00    +0.000 HD
ENDBRANCH   2  10
ENDBRANCH   1   9
BRANCH   1  13
ATOM     13  C   UNL     1       5.683   5.410  17.148  0.00  0.00    +0.000 A 
ATOM     14  C   UNL     1       4.932   5.727  16.008  0.00  0.00    +0.000 A 
ATOM     15  C   UNL     1       5.398   5.410  14.733  0.00  0.00    +0.000 A 
ATOM     16  C   UNL     1       6.654   4.841  14.577  0.00  0.00    +0.000 A 
ATOM     17  C   UNL     1       7.453   4.609  15.695  0.00  0.00    +0.000 A 
ATOM     18  C   UNL     1       6.985   4.883  16.993  0.00  0.00    +0.000 A 
BRANCH  18  19
ATOM     19  C   UNL     1       7.932   4.667  18.156  0.00  0.00    +0.000 C 
BRANCH  19  20
ATOM     20  C   UNL     1       8.015   5.841  19.101  0.00  0.00    +0.000 C 
ATOM     21  O   UNL     1       8.277   6.986  18.754  0.00  0.00    +0.000 OA
BRANCH  20  22
ATOM     22  O   UNL     1       7.777   5.523  20.395  0.00  0.00    +0.000 OA
ATOM     23  H   UNL     1       7.790   6.298  20.989  0.00  0.00    +0.000 HD
ENDBRANCH  20  22
ENDBRANCH  19  20
ENDBRANCH  18  19
ENDBRANCH   1  13
TORSDOF 6
ENDMDL
MODEL 5
REMARK VINA RESULT:      -7.3      2.391      3.497
REMARK  Name = 
REMARK  6 active torsions:
REMARK  status: ('A' for Active; 'I' for Inactive)
REMARK    1  A    between atoms: N_1  and  C_2
REMARK    2  A    between atoms: C_9  and  O_10
REMARK    3  A    between atoms: O_10  and  C_11
REMARK    4  A    between atoms: C_16  and  C_17
REMARK    5  A    between atoms: C_17  and  C_18
REMARK    6  A    between atoms: C_18  and  O_20
REMARK                            x       y       z     vdW  Elec       q    Type
REMARK                         _______ _______ _______ _____ _____    ______ ____
ROOT
ATOM      1  O   UNL     1       4.055   4.880  17.868  0.00  0.00    +0.000 OA
ENDROOT
BRANCH   1   9
ATOM      2  C   UNL     1       2.756   5.143  19.939  0.00  0.00    +0.000 A 
ATOM      3  C   UNL     1       2.030   4.513  20.962  0.00  0.00    +0.000 A 
ATOM      4  C   UNL     1       1.889   3.126  20.991  0.00  0.00    +0.000 A 
ATOM      5 CL   UNL     1       1.013   2.388  22.275  0.00  0.00    +0.000 Cl
ATOM      6  C   UNL     1       2.433   2.340  19.981  0.00  0.00    +0.000 A 
ATOM      7  C   UNL     1       3.148   2.950  18.947  0.00  0.00    +0.000 A 
ATOM      8 CL   UNL     1       3.786   1.937  17.701  0.00  0.00    +0.000 Cl
ATOM      9  C   UNL     1       3.335   4.345  18.925  0.00  0.00    +0.000 A 
BRANCH   2  10
ATOM     10  N   UNL     1       2.694   6.548  19.861  0.00  0.00    +0.000 N 
ATOM     11  H   UNL     1       3.543   7.008  20.179  0.00  0.00    +0.000 HD
ATOM     12  H   UNL     1       2.406   6.905  18.956  0.00  0.00    +0.000 HD
ENDBRANCH   2  10
ENDBRANCH   1   9
BRANCH   1  13
ATOM     13  C   UNL     1       5.370   5.271  18.060  0.00  0.00    +0.000 A 
ATOM     14  C   UNL     1       6.010   5.250  19.307  0.00  0.00    +0.000 A 
ATOM     15  C   UNL     1       7.277   5.806  19.471  0.00  0.00    +0.000 A 
ATOM     16  C   UNL     1       7.952   6.323  18.375  0.00  0.00    +0.000 A 
ATOM     17  C   UNL     1       7.370   6.263  17.111  0.00  0.00    +0.000 A 
ATOM     18  C   UNL     1       6.075   5.743  16.930  0.00  0.00    +0.000 A 
BRANCH  18  19
ATOM     19  C   UNL     1       5.531   5.650  15.520  0.00  0.00    +0.000 C 
BRANCH  19  20
ATOM     20  C   UNL     1       6.392   4.838  14.585  0.00  0.00    +0.000 C 
ATOM     21  O   UNL     1       7.222   5.318  13.822  0.00  0.00    +0.000 OA
BRANCH  20  22
ATOM     22  O   UNL     1       6.171   3.503  14.654  0.00  0.00    +0.000 OA
ATOM     23  H   UNL     1       6.629   3.077  15.403  0.00  0.00    +0.000 HD
ENDBRANCH  20  22
ENDBRANCH  19  20
ENDBRANCH  18  19
ENDBRANCH   1  13
TORSDOF 6
ENDMDL
MODEL 6
REMARK VINA RESULT:      -7.2      3.055      6.111
REMARK  Name = 
REMARK  6 active torsions:
REMARK  status: ('A' for Active; 'I' for Inactive)
REMARK    1  A    between atoms: N_1  and  C_2
REMARK    2  A    between atoms: C_9  and  O_10
REMARK    3  A    between atoms: O_10  and  C_11
REMARK    4  A    between atoms: C_16  and  C_17
REMARK    5  A    between atoms: C_17  and  C_18
REMARK    6  A    between atoms: C_18  and  O_20
REMARK                            x       y       z     vdW  Elec       q    Type
REMARK                         _______ _______ _______ _____ _____    ______ ____
ROOT
ATOM      1  O   UNL     1       4.765   4.281  19.094  0.00  0.00    +0.000 OA
ENDROOT
BRANCH   1   9
ATOM      2  C   UNL     1       6.700   4.830  17.678  0.00  0.00    +0.000 A 
ATOM      3  C   UNL     1       7.230   4.888  16.380  0.00  0.00    +0.000 A 
ATOM      4  C   UNL     1       6.460   4.530  15.275  0.00  0.00    +0.000 A 
ATOM      5 CL   UNL     1       7.137   4.638  13.696  0.00  0.00    +0.000 Cl
ATOM      6  C   UNL     1       5.160   4.066  15.441  0.00  0.00    +0.000 A 
ATOM      7  C   UNL     1       4.619   3.988  16.727  0.00  0.00    +0.000 A 
ATOM      8 CL   UNL     1       3.007   3.385  16.888  0.00  0.00    +0.000 Cl
ATOM      9  C   UNL     1       5.368   4.386  17.850  0.00  0.00    +0.000 A 
BRANCH   2  10
ATOM     10  N   UNL     1       7.586   5.017  18.757  0.00  0.00    +0.000 N 
ATOM     11  H   UNL     1       7.935   5.969  18.833  0.00  0.00    +0.000 HD
ATOM     12  H   UNL     1       7.234   4.688  19.650  0.00  0.00    +0.000 HD
ENDBRANCH   2  10
ENDBRANCH   1   9
BRANCH   1  13
ATOM     13  C   UNL     1       3.712   5.119  19.421  0.00  0.00    +0.000 A 
ATOM     14  C   UNL     1       3.556   6.409  18.894  0.00  0.00    +0.000 A 
ATOM     15  C   UNL     1       2.571   7.266  19.379  0.00  0.00    +0.000 A 
ATOM     16  C   UNL     1       1.680   6.819  20.344  0.00  0.00    +0.000 A 
ATOM     17  C   UNL     1       1.760   5.508  20.807  0.00  0.00    +0.000 A 
ATOM     18  C   UNL     1       2.773   4.639  20.361  0.00  0.00    +0.000 A 
BRANCH  18  19
ATOM     19  C   UNL     1       2.761   3.209  20.859  0.00  0.00    +0.000 C 
BRANCH  19  20
ATOM     20  C   UNL     1       1.403   2.732  21.313  0.00  0.00    +0.000 C 
ATOM     21  O   UNL     1       1.143   2.385  22.459  0.00  0.00    +0.000 OA
BRANCH  20  22
ATOM     22  O   UNL     1       0.470   2.713  20.332  0.00  0.00    +0.000 OA
ATOM     23  H   UNL     1       0.269   3.600  19.977  0.00  0.00    +0.000 HD
ENDBRANCH  20  22
ENDBRANCH  19  20
ENDBRANCH  18  19
ENDBRANCH   1  13
TORSDOF 6
ENDMDL
MODEL 7
REMARK VINA RESULT:      -7.2      2.996      6.131
REMARK  Name = 
REMARK  6 active torsions:
REMARK  status: ('A' for Active; 'I' for Inactive)
REMARK    1  A    between atoms: N_1  and  C_2
REMARK    2  A    between atoms: C_9  and  O_10
REMARK    3  A    between atoms: O_10  and  C_11
REMARK    4  A    between atoms: C_16  and  C_17
REMARK    5  A    between atoms: C_17  and  C_18
REMARK    6  A    between atoms: C_18  and  O_20
REMARK                            x       y       z     vdW  Elec       q    Type
REMARK                         _______ _______ _______ _____ _____    ______ ____
ROOT
ATOM      1  O   UNL     1       4.671   4.159  19.197  0.00  0.00    +0.000 OA
ENDROOT
BRANCH   1   9
ATOM      2  C   UNL     1       4.655   3.932  16.749  0.00  0.00    +0.000 A 
ATOM      3  C   UNL     1       5.325   4.174  15.539  0.00  0.00    +0.000 A 
ATOM      4  C   UNL     1       6.574   4.794  15.523  0.00  0.00    +0.000 A 
ATOM      5 CL   UNL     1       7.375   5.052  14.023  0.00  0.00    +0.000 Cl
ATOM      6  C   UNL     1       7.163   5.224  16.707  0.00  0.00    +0.000 A 
ATOM      7  C   UNL     1       6.506   5.004  17.920  0.00  0.00    +0.000 A 
ATOM      8 CL   UNL     1       7.265   5.575  19.364  0.00  0.00    +0.000 Cl
ATOM      9  C   UNL     1       5.264   4.342  17.957  0.00  0.00    +0.000 A 
BRANCH   2  10
ATOM     10  N   UNL     1       3.322   3.483  16.681  0.00  0.00    +0.000 N 
ATOM     11  H   UNL     1       3.239   2.490  16.478  0.00  0.00    +0.000 HD
ATOM     12  H   UNL     1       2.753   3.738  17.482  0.00  0.00    +0.000 HD
ENDBRANCH   2  10
ENDBRANCH   1   9
BRANCH   1  13
ATOM     13  C   UNL     1       3.571   4.922  19.553  0.00  0.00    +0.000 A 
ATOM     14  C   UNL     1       3.466   6.295  19.297  0.00  0.00    +0.000 A 
ATOM     15  C   UNL     1       2.412   7.043  19.820  0.00  0.00    +0.000 A 
ATOM     16  C   UNL     1       1.409   6.412  20.542  0.00  0.00    +0.000 A 
ATOM     17  C   UNL     1       1.448   5.031  20.722  0.00  0.00    +0.000 A 
ATOM     18  C   UNL     1       2.524   4.264  20.239  0.00  0.00    +0.000 A 
BRANCH  18  19
ATOM     19  C   UNL     1       2.469   2.761  20.415  0.00  0.00    +0.000 C 
BRANCH  19  20
ATOM     20  C   UNL     1       1.889   2.029  19.230  0.00  0.00    +0.000 C 
ATOM     21  O   UNL     1       0.719   2.108  18.877  0.00  0.00    +0.000 OA
BRANCH  20  22
ATOM     22  O   UNL     1       2.784   1.255  18.570  0.00  0.00    +0.000 OA
ATOM     23  H   UNL     1       3.605   1.729  18.341  0.00  0.00    +0.000 HD
ENDBRANCH  20  22
ENDBRANCH  19  20
ENDBRANCH  18  19
ENDBRANCH   1  13
TORSDOF 6
ENDMDL
MODEL 8
REMARK VINA RESULT:      -7.1      2.866      6.017
REMARK  Name = 
REMARK  6 active torsions:
REMARK  status: ('A' for Active; 'I' for Inactive)
REMARK    1  A    between atoms: N_1  and  C_2
REMARK    2  A    between atoms: C_9  and  O_10
REMARK    3  A    between atoms: O_10  and  C_11
REMARK    4  A    between atoms: C_16  and  C_17
REMARK    5  A    between atoms: C_17  and  C_18
REMARK    6  A    between atoms: C_18  and  O_20
REMARK                            x       y       z     vdW  Elec       q    Type
REMARK                         _______ _______ _______ _____ _____    ______ ____
ROOT
ATOM      1  O   UNL     1       4.614   4.028  18.970  0.00  0.00    +0.000 OA
ENDROOT
BRANCH   1   9
ATOM      2  C   UNL     1       6.640   4.746  17.774  0.00  0.00    +0.000 A 
ATOM      3  C   UNL     1       7.258   4.973  16.535  0.00  0.00    +0.000 A 
ATOM      4  C   UNL     1       6.564   4.773  15.342  0.00  0.00    +0.000 A 
ATOM      5 CL   UNL     1       7.347   5.087  13.842  0.00  0.00    +0.000 Cl
ATOM      6  C   UNL     1       5.256   4.303  15.356  0.00  0.00    +0.000 A 
ATOM      7  C   UNL     1       4.629   4.057  16.580  0.00  0.00    +0.000 A 
ATOM      8 CL   UNL     1       3.011   3.452  16.550  0.00  0.00    +0.000 Cl
ATOM      9  C   UNL     1       5.300   4.294  17.794  0.00  0.00    +0.000 A 
BRANCH   2  10
ATOM     10  N   UNL     1       7.451   4.778  18.926  0.00  0.00    +0.000 N 
ATOM     11  H   UNL     1       7.480   5.690  19.375  0.00  0.00    +0.000 HD
ATOM     12  H   UNL     1       7.248   4.048  19.602  0.00  0.00    +0.000 HD
ENDBRANCH   2  10
ENDBRANCH   1   9
BRANCH   1  13
ATOM     13  C   UNL     1       3.589   4.868  19.373  0.00  0.00    +0.000 A 
ATOM     14  C   UNL     1       3.518   6.224  19.028  0.00  0.00    +0.000 A 
ATOM     15  C   UNL     1       2.555   7.057  19.593  0.00  0.00    +0.000 A 
ATOM     16  C   UNL     1       1.602   6.529  20.452  0.00  0.00    +0.000 A 
ATOM     17  C   UNL     1       1.599   5.164  20.728  0.00  0.00    +0.000 A 
ATOM     18  C   UNL     1       2.588   4.312  20.201  0.00  0.00    +0.000 A 
BRANCH  18  19
ATOM     19  C   UNL     1       2.486   2.829  20.492  0.00  0.00    +0.000 C 
BRANCH  19  20
ATOM     20  C   UNL     1       1.990   2.012  19.324  0.00  0.00    +0.000 C 
ATOM     21  O   UNL     1       0.839   2.038  18.905  0.00  0.00    +0.000 OA
BRANCH  20  22
ATOM     22  O   UNL     1       2.938   1.225  18.762  0.00  0.00    +0.000 OA
ATOM     23  H   UNL     1       3.068   0.383  19.238  0.00  0.00    +0.000 HD
ENDBRANCH  20  22
ENDBRANCH  19  20
ENDBRANCH  18  19
ENDBRANCH   1  13
TORSDOF 6
ENDMDL
MODEL 9
REMARK VINA RESULT:      -7.1      0.903      1.040
REMARK  Name = 
REMARK  6 active torsions:
REMARK  status: ('A' for Active; 'I' for Inactive)
REMARK    1  A    between atoms: N_1  and  C_2
REMARK    2  A    between atoms: C_9  and  O_10
REMARK    3  A    between atoms: O_10  and  C_11
REMARK    4  A    between atoms: C_16  and  C_17
REMARK    5  A    between atoms: C_17  and  C_18
REMARK    6  A    between atoms: C_18  and  O_20
REMARK                            x       y       z     vdW  Elec       q    Type
REMARK                         _______ _______ _______ _____ _____    ______ ____
ROOT
ATOM      1  O   UNL     1       4.925   5.808  18.189  0.00  0.00    +0.000 OA
ENDROOT
BRANCH   1   9
ATOM      2  C   UNL     1       4.098   3.734  19.219  0.00  0.00    +0.000 A 
ATOM      3  C   UNL     1       3.002   3.040  19.752  0.00  0.00    +0.000 A 
ATOM      4  C   UNL     1       1.733   3.617  19.779  0.00  0.00    +0.000 A 
ATOM      5 CL   UNL     1       0.407   2.725  20.418  0.00  0.00    +0.000 Cl
ATOM      6  C   UNL     1       1.537   4.913  19.315  0.00  0.00    +0.000 A 
ATOM      7  C   UNL     1       2.620   5.625  18.793  0.00  0.00    +0.000 A 
ATOM      8 CL   UNL     1       2.335   7.240  18.249  0.00  0.00    +0.000 Cl
ATOM      9  C   UNL     1       3.899   5.042  18.720  0.00  0.00    +0.000 A 
BRANCH   2  10
ATOM     10  N   UNL     1       5.378   3.174  19.399  0.00  0.00    +0.000 N 
ATOM     11  H   UNL     1       5.488   2.693  20.289  0.00  0.00    +0.000 HD
ATOM     12  H   UNL     1       5.692   2.590  18.630  0.00  0.00    +0.000 HD
ENDBRANCH   2  10
ENDBRANCH   1   9
BRANCH   1  13
ATOM     13  C   UNL     1       5.517   5.432  16.994  0.00  0.00    +0.000 A 
ATOM     14  C   UNL     1       4.793   5.040  15.861  0.00  0.00    +0.000 A 
ATOM     15  C   UNL     1       5.441   4.518  14.743  0.00  0.00    +0.000 A 
ATOM     16  C   UNL     1       6.826   4.451  14.715  0.00  0.00    +0.000 A 
ATOM     17  C   UNL     1       7.565   4.929  15.795  0.00  0.00    +0.000 A 
ATOM     18  C   UNL     1       6.930   5.421  16.950  0.00  0.00    +0.000 A 
BRANCH  18  19
ATOM     19  C   UNL     1       7.795   5.983  18.059  0.00  0.00    +0.000 C 
BRANCH  19  20
ATOM     20  C   UNL     1       7.957   7.482  18.007  0.00  0.00    +0.000 C 
ATOM     21  O   UNL     1       7.456   8.199  17.149  0.00  0.00    +0.000 OA
BRANCH  20  22
ATOM     22  O   UNL     1       8.722   7.988  19.004  0.00  0.00    +0.000 OA
ATOM     23  H   UNL     1       8.200   8.431  19.699  0.00  0.00    +0.000 HD
ENDBRANCH  20  22
ENDBRANCH  19  20
ENDBRANCH  18  19
ENDBRANCH   1  13
TORSDOF 6
ENDMDL
