MODEL 1
REMARK VINA RESULT:      -8.4      0.000      0.000
REMARK  Name = 
REMARK  9 active torsions:
REMARK  status: ('A' for Active; 'I' for Inactive)
REMARK    1  A    between atoms: C_1  and  C_2
REMARK    2  A    between atoms: C_2  and  C_3
REMARK    3  A    between atoms: C_2  and  C_4
REMARK    4  A    between atoms: C_8  and  O_9
REMARK    5  A    between atoms: O_9  and  C_10
REMARK    6  A    between atoms: C_12  and  C_13
REMARK    7  A    between atoms: N_14  and  O_15
REMARK    8  A    between atoms: N_16  and  C_17
REMARK    9  A    between atoms: C_17  and  C_18
REMARK                            x       y       z     vdW  Elec       q    Type
REMARK                         _______ _______ _______ _____ _____    ______ ____
ROOT
ATOM      1  C   UNL     1       3.095   4.317  18.859  0.00  0.00    +0.000 A 
ATOM      2  C   UNL     1       2.839   5.603  18.417  0.00  0.00    +0.000 A 
ATOM      3  C   UNL     1       2.190   6.479  19.294  0.00  0.00    +0.000 A 
ATOM      4  C   UNL     1       1.832   6.030  20.566  0.00  0.00    +0.000 A 
ATOM      5  C   UNL     1       2.092   4.714  20.894  0.00  0.00    +0.000 A 
ATOM      6  N   UNL     1       2.697   3.844  20.062  0.00  0.00    +0.000 NA
ENDROOT
BRANCH   3   7
ATOM      7  C   UNL     1       1.933   7.912  18.881  0.00  0.00    +0.000 C 
ATOM      8  N   UNL     1       2.307   8.196  17.667  0.00  0.00    +0.000 NA
ATOM      9  N   UNL     1       1.372   8.745  19.836  0.00  0.00    +0.000 N 
ATOM     10  H   UNL     1       1.140   8.342  20.733  0.00  0.00    +0.000 HD
BRANCH   8  11
ATOM     11  O   UNL     1       2.196   9.550  17.350  0.00  0.00    +0.000 OA
ATOM     12  H   UNL     1       1.277   9.617  17.035  0.00  0.00    +0.000 HD
ENDBRANCH   8  11
BRANCH   9  13
ATOM     13  C   UNL     1       0.583   9.940  19.590  0.00  0.00    +0.000 C 
BRANCH  13  14
ATOM     14  C   UNL     1      -0.130  10.396  20.845  0.00  0.00    +0.000 A 
ATOM     15  C   UNL     1      -0.952  11.534  20.854  0.00  0.00    +0.000 A 
ATOM     16  C   UNL     1      -1.613  11.931  22.018  0.00  0.00    +0.000 A 
ATOM     17  C   UNL     1      -1.481  11.184  23.184  0.00  0.00    +0.000 A 
ATOM     18  C   UNL     1      -0.697  10.032  23.186  0.00  0.00    +0.000 A 
ATOM     19  C   UNL     1      -0.030   9.637  22.023  0.00  0.00    +0.000 A 
ENDBRANCH  13  14
ENDBRANCH   9  13
ENDBRANCH   3   7
BRANCH   1  20
ATOM     20  O   UNL     1       3.786   3.474  17.997  0.00  0.00    +0.000 OA
BRANCH  20  25
ATOM     21  C   UNL     1       6.867   5.372  17.089  0.00  0.00    +0.000 A 
ATOM     22  C   UNL     1       6.892   5.087  15.718  0.00  0.00    +0.000 A 
ATOM     23  C   UNL     1       5.907   4.281  15.140  0.00  0.00    +0.000 A 
ATOM     24  C   UNL     1       4.885   3.744  15.925  0.00  0.00    +0.000 A 
ATOM     25  C   UNL     1       4.854   3.996  17.295  0.00  0.00    +0.000 A 
ATOM     26  C   UNL     1       5.828   4.824  17.864  0.00  0.00    +0.000 A 
BRANCH  21  28
ATOM     27  C   UNL     1       7.649   7.791  17.522  0.00  0.00    +0.000 C 
ATOM     28  C   UNL     1       7.866   6.295  17.770  0.00  0.00    +0.000 C 
ATOM     29  C   UNL     1       7.879   6.007  19.275  0.00  0.00    +0.000 C 
ENDBRANCH  21  28
ENDBRANCH  20  25
ENDBRANCH   1  20
TORSDOF 7
ENDMDL
MODEL 2
REMARK VINA RESULT:      -8.4      0.863      2.394
REMARK  Name = 
REMARK  9 active torsions:
REMARK  status: ('A' for Active; 'I' for Inactive)
REMARK    1  A    between atoms: C_1  and  C_2
REMARK    2  A    between atoms: C_2  and  C_3
REMARK    3  A    between atoms: C_2  and  C_4
REMARK    4  A    between atoms: C_8  and  O_9
REMARK    5  A    between atoms: O_9  and  C_10
REMARK    6  A    between atoms: C_12  and  C_13
REMARK    7  A    between atoms: N_14  and  O_15
REMARK    8  A    between atoms: N_16  and  C_17
REMARK    9  A    between atoms: C_17  and  C_18
REMARK                            x       y       z     vdW  Elec       q    Type
REMARK                         _______ _______ _______ _____ _____    ______ ____
ROOT
ATOM      1  C   UNL     1       3.085   4.529  18.556  0.00  0.00    +0.000 A 
ATOM      2  C   UNL     1       2.783   5.819  18.158  0.00  0.00    +0.000 A 
ATOM      3  C   UNL     1       2.278   6.701  19.121  0.00  0.00    +0.000 A 
ATOM      4  C   UNL     1       2.102   6.253  20.430  0.00  0.00    +0.000 A 
ATOM      5  C   UNL     1       2.392   4.933  20.716  0.00  0.00    +0.000 A 
ATOM      6  N   UNL     1       2.859   4.058  19.805  0.00  0.00    +0.000 NA
ENDROOT
BRANCH   3   7
ATOM      7  C   UNL     1       1.981   8.138  18.750  0.00  0.00    +0.000 C 
ATOM      8  N   UNL     1       2.310   8.457  17.532  0.00  0.00    +0.000 NA
ATOM      9  N   UNL     1       1.437   8.938  19.743  0.00  0.00    +0.000 N 
ATOM     10  H   UNL     1       1.243   8.509  20.637  0.00  0.00    +0.000 HD
BRANCH   8  11
ATOM     11  O   UNL     1       2.164   9.816  17.251  0.00  0.00    +0.000 OA
ATOM     12  H   UNL     1       2.333   9.852  16.293  0.00  0.00    +0.000 HD
ENDBRANCH   8  11
BRANCH   9  13
ATOM     13  C   UNL     1       0.619  10.123  19.552  0.00  0.00    +0.000 C 
BRANCH  13  14
ATOM     14  C   UNL     1      -0.125  10.488  20.817  0.00  0.00    +0.000 A 
ATOM     15  C   UNL     1      -0.025   9.712  21.982  0.00  0.00    +0.000 A 
ATOM     16  C   UNL     1      -0.708  10.073  23.145  0.00  0.00    +0.000 A 
ATOM     17  C   UNL     1      -1.483  11.229  23.168  0.00  0.00    +0.000 A 
ATOM     18  C   UNL     1      -1.566  12.032  22.032  0.00  0.00    +0.000 A 
ATOM     19  C   UNL     1      -0.888  11.667  20.866  0.00  0.00    +0.000 A 
ENDBRANCH  13  14
ENDBRANCH   9  13
ENDBRANCH   3   7
BRANCH   1  20
ATOM     20  O   UNL     1       3.633   3.680  17.603  0.00  0.00    +0.000 OA
BRANCH  20  25
ATOM     21  C   UNL     1       6.349   4.240  15.107  0.00  0.00    +0.000 A 
ATOM     22  C   UNL     1       7.333   4.730  15.975  0.00  0.00    +0.000 A 
ATOM     23  C   UNL     1       7.073   4.868  17.342  0.00  0.00    +0.000 A 
ATOM     24  C   UNL     1       5.824   4.520  17.860  0.00  0.00    +0.000 A 
ATOM     25  C   UNL     1       4.824   4.052  17.011  0.00  0.00    +0.000 A 
ATOM     26  C   UNL     1       5.098   3.893  15.648  0.00  0.00    +0.000 A 
BRANCH  21  28
ATOM     27  C   UNL     1       5.323   3.967  12.758  0.00  0.00    +0.000 C 
ATOM     28  C   UNL     1       6.586   4.002  13.624  0.00  0.00    +0.000 C 
ATOM     29  C   UNL     1       7.561   5.056  13.090  0.00  0.00    +0.000 C 
ENDBRANCH  21  28
ENDBRANCH  20  25
ENDBRANCH   1  20
TORSDOF 7
ENDMDL
MODEL 3
REMARK VINA RESULT:      -8.2      2.237      8.612
REMARK  Name = 
REMARK  9 active torsions:
REMARK  status: ('A' for Active; 'I' for Inactive)
REMARK    1  A    between atoms: C_1  and  C_2
REMARK    2  A    between atoms: C_2  and  C_3
REMARK    3  A    between atoms: C_2  and  C_4
REMARK    4  A    between atoms: C_8  and  O_9
REMARK    5  A    between atoms: O_9  and  C_10
REMARK    6  A    between atoms: C_12  and  C_13
REMARK    7  A    between atoms: N_14  and  O_15
REMARK    8  A    between atoms: N_16  and  C_17
REMARK    9  A    between atoms: C_17  and  C_18
REMARK                            x       y       z     vdW  Elec       q    Type
REMARK                         _______ _______ _______ _____ _____    ______ ____
ROOT
ATOM      1  C   UNL     1       2.482   5.373  19.496  0.00  0.00    +0.000 A 
ATOM      2  C   UNL     1       3.826   5.467  19.181  0.00  0.00    +0.000 A 
ATOM      3  C   UNL     1       4.297   4.727  18.091  0.00  0.00    +0.000 A 
ATOM      4  C   UNL     1       3.405   3.934  17.369  0.00  0.00    +0.000 A 
ATOM      5  C   UNL     1       2.092   3.873  17.792  0.00  0.00    +0.000 A 
ATOM      6  N   UNL     1       1.617   4.558  18.849  0.00  0.00    +0.000 NA
ENDROOT
BRANCH   3   7
ATOM      7  C   UNL     1       5.748   4.836  17.671  0.00  0.00    +0.000 C 
ATOM      8  N   UNL     1       6.582   4.228  18.464  0.00  0.00    +0.000 NA
ATOM      9  N   UNL     1       6.013   5.583  16.534  0.00  0.00    +0.000 N 
ATOM     10  H   UNL     1       5.226   5.980  16.039  0.00  0.00    +0.000 HD
BRANCH   8  11
ATOM     11  O   UNL     1       7.921   4.457  18.145  0.00  0.00    +0.000 OA
ATOM     12  H   UNL     1       8.130   3.704  17.564  0.00  0.00    +0.000 HD
ENDBRANCH   8  11
BRANCH   9  13
ATOM     13  C   UNL     1       7.159   5.444  15.652  0.00  0.00    +0.000 C 
BRANCH  13  14
ATOM     14  C   UNL     1       6.770   4.797  14.341  0.00  0.00    +0.000 A 
ATOM     15  C   UNL     1       7.616   4.829  13.222  0.00  0.00    +0.000 A 
ATOM     16  C   UNL     1       7.246   4.213  12.025  0.00  0.00    +0.000 A 
ATOM     17  C   UNL     1       6.032   3.538  11.935  0.00  0.00    +0.000 A 
ATOM     18  C   UNL     1       5.193   3.466  13.046  0.00  0.00    +0.000 A 
ATOM     19  C   UNL     1       5.561   4.087  14.242  0.00  0.00    +0.000 A 
ENDBRANCH  13  14
ENDBRANCH   9  13
ENDBRANCH   3   7
BRANCH   1  20
ATOM     20  O   UNL     1       2.019   6.152  20.549  0.00  0.00    +0.000 OA
BRANCH  20  25
ATOM     21  C   UNL     1       0.460   9.534  20.782  0.00  0.00    +0.000 A 
ATOM     22  C   UNL     1       0.860  10.034  19.536  0.00  0.00    +0.000 A 
ATOM     23  C   UNL     1       1.629   9.254  18.668  0.00  0.00    +0.000 A 
ATOM     24  C   UNL     1       2.013   7.963  19.034  0.00  0.00    +0.000 A 
ATOM     25  C   UNL     1       1.646   7.453  20.278  0.00  0.00    +0.000 A 
ATOM     26  C   UNL     1       0.855   8.229  21.132  0.00  0.00    +0.000 A 
BRANCH  21  28
ATOM     27  C   UNL     1      -0.355   9.853  23.207  0.00  0.00    +0.000 C 
ATOM     28  C   UNL     1      -0.432  10.302  21.745  0.00  0.00    +0.000 C 
ATOM     29  C   UNL     1      -0.125  11.799  21.636  0.00  0.00    +0.000 C 
ENDBRANCH  21  28
ENDBRANCH  20  25
ENDBRANCH   1  20
TORSDOF 7
ENDMDL
MODEL 4
REMARK VINA RESULT:      -8.1      1.889      2.479
REMARK  Name = 
REMARK  9 active torsions:
REMARK  status: ('A' for Active; 'I' for Inactive)
REMARK    1  A    between atoms: C_1  and  C_2
REMARK    2  A    between atoms: C_2  and  C_3
REMARK    3  A    between atoms: C_2  and  C_4
REMARK    4  A    between atoms: C_8  and  O_9
REMARK    5  A    between atoms: O_9  and  C_10
REMARK    6  A    between atoms: C_12  and  C_13
REMARK    7  A    between atoms: N_14  and  O_15
REMARK    8  A    between atoms: N_16  and  C_17
REMARK    9  A    between atoms: C_17  and  C_18
REMARK                            x       y       z     vdW  Elec       q    Type
REMARK                         _______ _______ _______ _____ _____    ______ ____
ROOT
ATOM      1  C   UNL     1       2.613   5.767  18.308  0.00  0.00    +0.000 A 
ATOM      2  C   UNL     1       2.392   7.079  17.929  0.00  0.00    +0.000 A 
ATOM      3  C   UNL     1       2.044   7.999  18.925  0.00  0.00    +0.000 A 
ATOM      4  C   UNL     1       1.938   7.566  20.246  0.00  0.00    +0.000 A 
ATOM      5  C   UNL     1       2.135   6.226  20.514  0.00  0.00    +0.000 A 
ATOM      6  N   UNL     1       2.449   5.316  19.573  0.00  0.00    +0.000 NA
ENDROOT
BRANCH   3   7
ATOM      7  C   UNL     1       1.844   9.458  18.571  0.00  0.00    +0.000 C 
ATOM      8  N   UNL     1       2.516   9.856  17.530  0.00  0.00    +0.000 NA
ATOM      9  N   UNL     1       1.010  10.191  19.402  0.00  0.00    +0.000 N 
ATOM     10  H   UNL     1       0.565   9.704  20.168  0.00  0.00    +0.000 HD
BRANCH   8  11
ATOM     11  O   UNL     1       2.433  11.230  17.304  0.00  0.00    +0.000 OA
ATOM     12  H   UNL     1       2.347  11.277  16.335  0.00  0.00    +0.000 HD
ENDBRANCH   8  11
BRANCH   9  13
ATOM     13  C   UNL     1       0.264  11.385  19.048  0.00  0.00    +0.000 C 
BRANCH  13  14
ATOM     14  C   UNL     1      -1.103  11.038  18.499  0.00  0.00    +0.000 A 
ATOM     15  C   UNL     1      -2.252  11.750  18.874  0.00  0.00    +0.000 A 
ATOM     16  C   UNL     1      -3.503  11.423  18.346  0.00  0.00    +0.000 A 
ATOM     17  C   UNL     1      -3.620  10.394  17.417  0.00  0.00    +0.000 A 
ATOM     18  C   UNL     1      -2.485   9.697  17.006  0.00  0.00    +0.000 A 
ATOM     19  C   UNL     1      -1.234  10.020  17.539  0.00  0.00    +0.000 A 
ENDBRANCH  13  14
ENDBRANCH   9  13
ENDBRANCH   3   7
BRANCH   1  20
ATOM     20  O   UNL     1       3.006   4.876  17.318  0.00  0.00    +0.000 OA
BRANCH  20  25
ATOM     21  C   UNL     1       6.671   5.561  17.170  0.00  0.00    +0.000 A 
ATOM     22  C   UNL     1       7.011   4.658  16.155  0.00  0.00    +0.000 A 
ATOM     23  C   UNL     1       6.035   3.853  15.560  0.00  0.00    +0.000 A 
ATOM     24  C   UNL     1       4.705   3.937  15.974  0.00  0.00    +0.000 A 
ATOM     25  C   UNL     1       4.347   4.812  16.998  0.00  0.00    +0.000 A 
ATOM     26  C   UNL     1       5.324   5.633  17.572  0.00  0.00    +0.000 A 
BRANCH  21  28
ATOM     27  C   UNL     1       7.322   8.000  17.694  0.00  0.00    +0.000 C 
ATOM     28  C   UNL     1       7.668   6.512  17.812  0.00  0.00    +0.000 C 
ATOM     29  C   UNL     1       7.857   6.131  19.284  0.00  0.00    +0.000 C 
ENDBRANCH  21  28
ENDBRANCH  20  25
ENDBRANCH   1  20
TORSDOF 7
ENDMDL
MODEL 5
REMARK VINA RESULT:      -8.1      2.041      3.252
REMARK  Name = 
REMARK  9 active torsions:
REMARK  status: ('A' for Active; 'I' for Inactive)
REMARK    1  A    between atoms: C_1  and  C_2
REMARK    2  A    between atoms: C_2  and  C_3
REMARK    3  A    between atoms: C_2  and  C_4
REMARK    4  A    between atoms: C_8  and  O_9
REMARK    5  A    between atoms: O_9  and  C_10
REMARK    6  A    between atoms: C_12  and  C_13
REMARK    7  A    between atoms: N_14  and  O_15
REMARK    8  A    between atoms: N_16  and  C_17
REMARK    9  A    between atoms: C_17  and  C_18
REMARK                            x       y       z     vdW  Elec       q    Type
REMARK                         _______ _______ _______ _____ _____    ______ ____
ROOT
ATOM      1  C   UNL     1       2.438   5.749  18.620  0.00  0.00    +0.000 A 
ATOM      2  C   UNL     1       2.283   7.041  18.149  0.00  0.00    +0.000 A 
ATOM      3  C   UNL     1       1.878   8.025  19.058  0.00  0.00    +0.000 A 
ATOM      4  C   UNL     1       1.650   7.672  20.388  0.00  0.00    +0.000 A 
ATOM      5  C   UNL     1       1.790   6.346  20.748  0.00  0.00    +0.000 A 
ATOM      6  N   UNL     1       2.158   5.376  19.890  0.00  0.00    +0.000 NA
ENDROOT
BRANCH   3   7
ATOM      7  C   UNL     1       1.745   9.464  18.607  0.00  0.00    +0.000 C 
ATOM      8  N   UNL     1       2.474   9.772  17.574  0.00  0.00    +0.000 NA
ATOM      9  N   UNL     1       0.905  10.275  19.354  0.00  0.00    +0.000 N 
ATOM     10  H   UNL     1       0.411   9.854  20.129  0.00  0.00    +0.000 HD
BRANCH   8  11
ATOM     11  O   UNL     1       2.450  11.131  17.259  0.00  0.00    +0.000 OA
ATOM     12  H   UNL     1       1.771  11.173  16.563  0.00  0.00    +0.000 HD
ENDBRANCH   8  11
BRANCH   9  13
ATOM     13  C   UNL     1       0.217  11.469  18.894  0.00  0.00    +0.000 C 
BRANCH  13  14
ATOM     14  C   UNL     1      -1.181  11.149  18.414  0.00  0.00    +0.000 A 
ATOM     15  C   UNL     1      -1.437  10.071  17.553  0.00  0.00    +0.000 A 
ATOM     16  C   UNL     1      -2.737   9.782  17.132  0.00  0.00    +0.000 A 
ATOM     17  C   UNL     1      -3.803  10.553  17.585  0.00  0.00    +0.000 A 
ATOM     18  C   UNL     1      -3.574  11.606  18.468  0.00  0.00    +0.000 A 
ATOM     19  C   UNL     1      -2.272  11.899  18.885  0.00  0.00    +0.000 A 
ENDBRANCH  13  14
ENDBRANCH   9  13
ENDBRANCH   3   7
BRANCH   1  20
ATOM     20  O   UNL     1       2.890   4.793  17.719  0.00  0.00    +0.000 OA
BRANCH  20  25
ATOM     21  C   UNL     1       6.090   4.470  15.827  0.00  0.00    +0.000 A 
ATOM     22  C   UNL     1       6.980   4.728  16.877  0.00  0.00    +0.000 A 
ATOM     23  C   UNL     1       6.505   5.005  18.162  0.00  0.00    +0.000 A 
ATOM     24  C   UNL     1       5.133   5.032  18.415  0.00  0.00    +0.000 A 
ATOM     25  C   UNL     1       4.228   4.800  17.381  0.00  0.00    +0.000 A 
ATOM     26  C   UNL     1       4.710   4.499  16.102  0.00  0.00    +0.000 A 
BRANCH  21  28
ATOM     27  C   UNL     1       5.407   3.834  13.423  0.00  0.00    +0.000 C 
ATOM     28  C   UNL     1       6.538   4.095  14.423  0.00  0.00    +0.000 C 
ATOM     29  C   UNL     1       7.477   5.179  13.884  0.00  0.00    +0.000 C 
ENDBRANCH  21  28
ENDBRANCH  20  25
ENDBRANCH   1  20
TORSDOF 7
ENDMDL
MODEL 6
REMARK VINA RESULT:      -8.0      2.231      8.644
REMARK  Name = 
REMARK  9 active torsions:
REMARK  status: ('A' for Active; 'I' for Inactive)
REMARK    1  A    between atoms: C_1  and  C_2
REMARK    2  A    between atoms: C_2  and  C_3
REMARK    3  A    between atoms: C_2  and  C_4
REMARK    4  A    between atoms: C_8  and  O_9
REMARK    5  A    between atoms: O_9  and  C_10
REMARK    6  A    between atoms: C_12  and  C_13
REMARK    7  A    between atoms: N_14  and  O_15
REMARK    8  A    between atoms: N_16  and  C_17
REMARK    9  A    between atoms: C_17  and  C_18
REMARK                            x       y       z     vdW  Elec       q    Type
REMARK                         _______ _______ _______ _____ _____    ______ ____
ROOT
ATOM      1  C   UNL     1       2.584   5.881  19.410  0.00  0.00    +0.000 A 
ATOM      2  C   UNL     1       3.926   5.865  19.076  0.00  0.00    +0.000 A 
ATOM      3  C   UNL     1       4.355   4.925  18.132  0.00  0.00    +0.000 A 
ATOM      4  C   UNL     1       3.425   4.052  17.568  0.00  0.00    +0.000 A 
ATOM      5  C   UNL     1       2.115   4.119  18.003  0.00  0.00    +0.000 A 
ATOM      6  N   UNL     1       1.680   4.999  18.924  0.00  0.00    +0.000 NA
ENDROOT
BRANCH   3   7
ATOM      7  C   UNL     1       5.803   4.900  17.691  0.00  0.00    +0.000 C 
ATOM      8  N   UNL     1       6.587   4.204  18.463  0.00  0.00    +0.000 NA
ATOM      9  N   UNL     1       6.123   5.634  16.560  0.00  0.00    +0.000 N 
ATOM     10  H   UNL     1       5.371   6.112  16.082  0.00  0.00    +0.000 HD
BRANCH   8  11
ATOM     11  O   UNL     1       7.937   4.307  18.126  0.00  0.00    +0.000 OA
ATOM     12  H   UNL     1       8.247   3.389  18.220  0.00  0.00    +0.000 HD
ENDBRANCH   8  11
BRANCH   9  13
ATOM     13  C   UNL     1       7.238   5.399  15.658  0.00  0.00    +0.000 C 
BRANCH  13  14
ATOM     14  C   UNL     1       6.780   4.731  14.380  0.00  0.00    +0.000 A 
ATOM     15  C   UNL     1       5.535   4.092  14.286  0.00  0.00    +0.000 A 
ATOM     16  C   UNL     1       5.124   3.494  13.093  0.00  0.00    +0.000 A 
ATOM     17  C   UNL     1       5.943   3.545  11.969  0.00  0.00    +0.000 A 
ATOM     18  C   UNL     1       7.169   4.205  12.033  0.00  0.00    +0.000 A 
ATOM     19  C   UNL     1       7.583   4.799  13.229  0.00  0.00    +0.000 A 
ENDBRANCH  13  14
ENDBRANCH   9  13
ENDBRANCH   3   7
BRANCH   1  20
ATOM     20  O   UNL     1       2.164   6.852  20.310  0.00  0.00    +0.000 OA
BRANCH  20  25
ATOM     21  C   UNL     1       0.299  10.055  19.877  0.00  0.00    +0.000 A 
ATOM     22  C   UNL     1       0.749  10.387  18.593  0.00  0.00    +0.000 A 
ATOM     23  C   UNL     1       1.649   9.558  17.917  0.00  0.00    +0.000 A 
ATOM     24  C   UNL     1       2.116   8.387  18.517  0.00  0.00    +0.000 A 
ATOM     25  C   UNL     1       1.700   8.050  19.803  0.00  0.00    +0.000 A 
ATOM     26  C   UNL     1       0.779   8.870  20.465  0.00  0.00    +0.000 A 
BRANCH  21  28
ATOM     27  C   UNL     1      -0.293  11.340  22.033  0.00  0.00    +0.000 C 
ATOM     28  C   UNL     1      -0.730  10.874  20.641  0.00  0.00    +0.000 C 
ATOM     29  C   UNL     1      -1.152  12.077  19.791  0.00  0.00    +0.000 C 
ENDBRANCH  21  28
ENDBRANCH  20  25
ENDBRANCH   1  20
TORSDOF 7
ENDMDL
MODEL 7
REMARK VINA RESULT:      -7.8      2.426      4.668
REMARK  Name = 
REMARK  9 active torsions:
REMARK  status: ('A' for Active; 'I' for Inactive)
REMARK    1  A    between atoms: C_1  and  C_2
REMARK    2  A    between atoms: C_2  and  C_3
REMARK    3  A    between atoms: C_2  and  C_4
REMARK    4  A    between atoms: C_8  and  O_9
REMARK    5  A    between atoms: O_9  and  C_10
REMARK    6  A    between atoms: C_12  and  C_13
REMARK    7  A    between atoms: N_14  and  O_15
REMARK    8  A    between atoms: N_16  and  C_17
REMARK    9  A    between atoms: C_17  and  C_18
REMARK                            x       y       z     vdW  Elec       q    Type
REMARK                         _______ _______ _______ _____ _____    ______ ____
ROOT
ATOM      1  C   UNL     1       1.765   8.779  18.908  0.00  0.00    +0.000 A 
ATOM      2  C   UNL     1       0.776   9.648  18.484  0.00  0.00    +0.000 A 
ATOM      3  C   UNL     1      -0.172  10.069  19.423  0.00  0.00    +0.000 A 
ATOM      4  C   UNL     1      -0.085   9.606  20.736  0.00  0.00    +0.000 A 
ATOM      5  C   UNL     1       0.915   8.705  21.048  0.00  0.00    +0.000 A 
ATOM      6  N   UNL     1       1.827   8.267  20.159  0.00  0.00    +0.000 NA
ENDROOT
BRANCH   3   7
ATOM      7  C   UNL     1      -1.244  11.061  19.025  0.00  0.00    +0.000 C 
ATOM      8  N   UNL     1      -1.581  11.011  17.769  0.00  0.00    +0.000 NA
ATOM      9  N   UNL     1      -1.706  11.911  20.017  0.00  0.00    +0.000 N 
ATOM     10  H   UNL     1      -1.327  11.798  20.947  0.00  0.00    +0.000 HD
BRANCH   8  11
ATOM     11  O   UNL     1      -2.463  12.023  17.386  0.00  0.00    +0.000 OA
ATOM     12  H   UNL     1      -1.858  12.730  17.100  0.00  0.00    +0.000 HD
ENDBRANCH   8  11
BRANCH   9  13
ATOM     13  C   UNL     1      -3.004  12.563  20.067  0.00  0.00    +0.000 C 
BRANCH  13  14
ATOM     14  C   UNL     1      -3.525  12.644  21.485  0.00  0.00    +0.000 A 
ATOM     15  C   UNL     1      -4.859  12.976  21.763  0.00  0.00    +0.000 A 
ATOM     16  C   UNL     1      -5.326  13.031  23.078  0.00  0.00    +0.000 A 
ATOM     17  C   UNL     1      -4.470  12.733  24.134  0.00  0.00    +0.000 A 
ATOM     18  C   UNL     1      -3.150  12.367  23.877  0.00  0.00    +0.000 A 
ATOM     19  C   UNL     1      -2.682  12.317  22.561  0.00  0.00    +0.000 A 
ENDBRANCH  13  14
ENDBRANCH   9  13
ENDBRANCH   3   7
BRANCH   1  20
ATOM     20  O   UNL     1       2.729   8.409  17.978  0.00  0.00    +0.000 OA
BRANCH  20  25
ATOM     21  C   UNL     1       2.474   4.687  18.046  0.00  0.00    +0.000 A 
ATOM     22  C   UNL     1       3.773   4.380  17.621  0.00  0.00    +0.000 A 
ATOM     23  C   UNL     1       4.683   5.398  17.321  0.00  0.00    +0.000 A 
ATOM     24  C   UNL     1       4.307   6.737  17.438  0.00  0.00    +0.000 A 
ATOM     25  C   UNL     1       3.012   7.065  17.837  0.00  0.00    +0.000 A 
ATOM     26  C   UNL     1       2.114   6.042  18.160  0.00  0.00    +0.000 A 
BRANCH  21  28
ATOM     27  C   UNL     1       1.919   2.181  18.290  0.00  0.00    +0.000 C 
ATOM     28  C   UNL     1       1.457   3.632  18.453  0.00  0.00    +0.000 C 
ATOM     29  C   UNL     1       1.014   3.885  19.898  0.00  0.00    +0.000 C 
ENDBRANCH  21  28
ENDBRANCH  20  25
ENDBRANCH   1  20
TORSDOF 7
ENDMDL
MODEL 8
REMARK VINA RESULT:      -7.8      2.531      5.012
REMARK  Name = 
REMARK  9 active torsions:
REMARK  status: ('A' for Active; 'I' for Inactive)
REMARK    1  A    between atoms: C_1  and  C_2
REMARK    2  A    between atoms: C_2  and  C_3
REMARK    3  A    between atoms: C_2  and  C_4
REMARK    4  A    between atoms: C_8  and  O_9
REMARK    5  A    between atoms: O_9  and  C_10
REMARK    6  A    between atoms: C_12  and  C_13
REMARK    7  A    between atoms: N_14  and  O_15
REMARK    8  A    between atoms: N_16  and  C_17
REMARK    9  A    between atoms: C_17  and  C_18
REMARK                            x       y       z     vdW  Elec       q    Type
REMARK                         _______ _______ _______ _____ _____    ______ ____
ROOT
ATOM      1  C   UNL     1       1.812   8.921  18.555  0.00  0.00    +0.000 A 
ATOM      2  C   UNL     1       1.559   9.241  19.877  0.00  0.00    +0.000 A 
ATOM      3  C   UNL     1       0.327   9.828  20.184  0.00  0.00    +0.000 A 
ATOM      4  C   UNL     1      -0.591  10.065  19.161  0.00  0.00    +0.000 A 
ATOM      5  C   UNL     1      -0.224   9.750  17.867  0.00  0.00    +0.000 A 
ATOM      6  N   UNL     1       0.962   9.203  17.540  0.00  0.00    +0.000 NA
ENDROOT
BRANCH   3   7
ATOM      7  C   UNL     1      -0.021  10.150  21.623  0.00  0.00    +0.000 C 
ATOM      8  N   UNL     1       0.768   9.601  22.501  0.00  0.00    +0.000 NA
ATOM      9  N   UNL     1      -1.136  10.946  21.831  0.00  0.00    +0.000 N 
ATOM     10  H   UNL     1      -1.628  11.288  21.016  0.00  0.00    +0.000 HD
BRANCH   8  11
ATOM     11  O   UNL     1       0.352   9.789  23.819  0.00  0.00    +0.000 OA
ATOM     12  H   UNL     1      -0.571  10.080  23.708  0.00  0.00    +0.000 HD
ENDBRANCH   8  11
BRANCH   9  13
ATOM     13  C   UNL     1      -1.395  11.793  22.982  0.00  0.00    +0.000 C 
BRANCH  13  14
ATOM     14  C   UNL     1      -2.821  12.298  22.983  0.00  0.00    +0.000 A 
ATOM     15  C   UNL     1      -3.469  12.684  21.800  0.00  0.00    +0.000 A 
ATOM     16  C   UNL     1      -4.791  13.134  21.819  0.00  0.00    +0.000 A 
ATOM     17  C   UNL     1      -5.492  13.184  23.020  0.00  0.00    +0.000 A 
ATOM     18  C   UNL     1      -4.877  12.773  24.201  0.00  0.00    +0.000 A 
ATOM     19  C   UNL     1      -3.553  12.328  24.183  0.00  0.00    +0.000 A 
ENDBRANCH  13  14
ENDBRANCH   9  13
ENDBRANCH   3   7
BRANCH   1  20
ATOM     20  O   UNL     1       3.018   8.293  18.271  0.00  0.00    +0.000 OA
BRANCH  20  25
ATOM     21  C   UNL     1       2.140   4.672  18.483  0.00  0.00    +0.000 A 
ATOM     22  C   UNL     1       3.192   4.157  17.716  0.00  0.00    +0.000 A 
ATOM     23  C   UNL     1       4.146   5.008  17.151  0.00  0.00    +0.000 A 
ATOM     24  C   UNL     1       4.060   6.388  17.342  0.00  0.00    +0.000 A 
ATOM     25  C   UNL     1       3.008   6.925  18.083  0.00  0.00    +0.000 A 
ATOM     26  C   UNL     1       2.071   6.066  18.667  0.00  0.00    +0.000 A 
BRANCH  21  28
ATOM     27  C   UNL     1       1.095   2.330  18.752  0.00  0.00    +0.000 C 
ATOM     28  C   UNL     1       1.108   3.801  19.182  0.00  0.00    +0.000 C 
ATOM     29  C   UNL     1       1.299   3.904  20.698  0.00  0.00    +0.000 C 
ENDBRANCH  21  28
ENDBRANCH  20  25
ENDBRANCH   1  20
TORSDOF 7
ENDMDL
MODEL 9
REMARK VINA RESULT:      -7.8      2.499      4.608
REMARK  Name = 
REMARK  9 active torsions:
REMARK  status: ('A' for Active; 'I' for Inactive)
REMARK    1  A    between atoms: C_1  and  C_2
REMARK    2  A    between atoms: C_2  and  C_3
REMARK    3  A    between atoms: C_2  and  C_4
REMARK    4  A    between atoms: C_8  and  O_9
REMARK    5  A    between atoms: O_9  and  C_10
REMARK    6  A    between atoms: C_12  and  C_13
REMARK    7  A    between atoms: N_14  and  O_15
REMARK    8  A    between atoms: N_16  and  C_17
REMARK    9  A    between atoms: C_17  and  C_18
REMARK                            x       y       z     vdW  Elec       q    Type
REMARK                         _______ _______ _______ _____ _____    ______ ____
ROOT
ATOM      1  C   UNL     1       1.589   9.210  18.519  0.00  0.00    +0.000 A 
ATOM      2  C   UNL     1       1.019   9.180  19.779  0.00  0.00    +0.000 A 
ATOM      3  C   UNL     1       0.820  10.400  20.436  0.00  0.00    +0.000 A 
ATOM      4  C   UNL     1       1.195  11.585  19.804  0.00  0.00    +0.000 A 
ATOM      5  C   UNL     1       1.797  11.504  18.564  0.00  0.00    +0.000 A 
ATOM      6  N   UNL     1       2.020  10.343  17.918  0.00  0.00    +0.000 NA
ENDROOT
BRANCH   3   7
ATOM      7  C   UNL     1       0.152  10.427  21.795  0.00  0.00    +0.000 C 
ATOM      8  N   UNL     1       0.706   9.652  22.681  0.00  0.00    +0.000 NA
ATOM      9  N   UNL     1      -0.969  11.233  21.922  0.00  0.00    +0.000 N 
ATOM     10  H   UNL     1      -1.252  11.774  21.116  0.00  0.00    +0.000 HD
BRANCH   8  11
ATOM     11  O   UNL     1      -0.004   9.579  23.881  0.00  0.00    +0.000 OA
ATOM     12  H   UNL     1      -0.898   9.853  23.612  0.00  0.00    +0.000 HD
ENDBRANCH   8  11
BRANCH   9  13
ATOM     13  C   UNL     1      -1.475  11.829  23.145  0.00  0.00    +0.000 C 
BRANCH  13  14
ATOM     14  C   UNL     1      -2.913  12.275  22.987  0.00  0.00    +0.000 A 
ATOM     15  C   UNL     1      -3.762  12.437  24.092  0.00  0.00    +0.000 A 
ATOM     16  C   UNL     1      -5.081  12.863  23.927  0.00  0.00    +0.000 A 
ATOM     17  C   UNL     1      -5.565  13.155  22.655  0.00  0.00    +0.000 A 
ATOM     18  C   UNL     1      -4.727  13.033  21.549  0.00  0.00    +0.000 A 
ATOM     19  C   UNL     1      -3.408  12.601  21.713  0.00  0.00    +0.000 A 
ENDBRANCH  13  14
ENDBRANCH   9  13
ENDBRANCH   3   7
BRANCH   1  20
ATOM     20  O   UNL     1       1.735   7.997  17.857  0.00  0.00    +0.000 OA
BRANCH  20  25
ATOM     21  C   UNL     1       5.088   6.361  17.812  0.00  0.00    +0.000 A 
ATOM     22  C   UNL     1       4.895   5.459  18.865  0.00  0.00    +0.000 A 
ATOM     23  C   UNL     1       3.681   5.421  19.558  0.00  0.00    +0.000 A 
ATOM     24  C   UNL     1       2.643   6.288  19.208  0.00  0.00    +0.000 A 
ATOM     25  C   UNL     1       2.822   7.209  18.178  0.00  0.00    +0.000 A 
ATOM     26  C   UNL     1       4.030   7.225  17.473  0.00  0.00    +0.000 A 
BRANCH  21  28
ATOM     27  C   UNL     1       7.467   7.312  17.520  0.00  0.00    +0.000 C 
ATOM     28  C   UNL     1       6.356   6.410  16.974  0.00  0.00    +0.000 C 
ATOM     29  C   UNL     1       6.886   4.986  16.772  0.00  0.00    +0.000 C 
ENDBRANCH  21  28
ENDBRANCH  20  25
ENDBRANCH   1  20
TORSDOF 7
ENDMDL
