MODEL 1
REMARK VINA RESULT:      -8.2      0.000      0.000
REMARK  Name = 
REMARK  9 active torsions:
REMARK  status: ('A' for Active; 'I' for Inactive)
REMARK    1  A    between atoms: C_2  and  O_3
REMARK    2  A    between atoms: C_2  and  C_4
REMARK    3  A    between atoms: N_5  and  O_6
REMARK    4  A    between atoms: O_6  and  C_7
REMARK    5  A    between atoms: C_7  and  C_8
REMARK    6  A    between atoms: C_7  and  C_22
REMARK    7  A    between atoms: C_11  and  O_12
REMARK    8  A    between atoms: O_12  and  C_13
REMARK    9  A    between atoms: C_13  and  C_14
REMARK                            x       y       z     vdW  Elec       q    Type
REMARK                         _______ _______ _______ _____ _____    ______ ____
ROOT
ATOM      1  C   UNL     1       3.811   5.287  18.169  0.00  0.00    +0.000 C 
ENDROOT
BRANCH   1   2
ATOM      2  C   UNL     1       3.075   6.596  18.443  0.00  0.00    +0.000 A 
ATOM      3  C   UNL     1       2.494   6.815  19.698  0.00  0.00    +0.000 A 
ATOM      4  C   UNL     1       1.782   7.970  19.981  0.00  0.00    +0.000 A 
ATOM      5  C   UNL     1       1.632   8.961  19.019  0.00  0.00    +0.000 A 
ATOM      6  C   UNL     1       2.135   8.740  17.735  0.00  0.00    +0.000 A 
ATOM      7  C   UNL     1       2.854   7.566  17.442  0.00  0.00    +0.000 A 
BRANCH   5   8
ATOM      8  O   UNL     1       1.016  10.164  19.271  0.00  0.00    +0.000 OA
BRANCH   8   9
ATOM      9  C   UNL     1      -0.340  10.005  19.720  0.00  0.00    +0.000 C 
BRANCH   9  10
ATOM     10  C   UNL     1      -1.347  10.434  18.691  0.00  0.00    +0.000 A 
ATOM     11  C   UNL     1      -1.376   9.835  17.436  0.00  0.00    +0.000 A 
ATOM     12  C   UNL     1      -2.383  10.198  16.550  0.00  0.00    +0.000 A 
ATOM     13  C   UNL     1      -3.326  11.145  16.938  0.00  0.00    +0.000 A 
ATOM     14  C   UNL     1      -3.229  11.691  18.205  0.00  0.00    +0.000 A 
ATOM     15  N   UNL     1      -2.266  11.353  19.085  0.00  0.00    +0.000 NA
ENDBRANCH   9  10
ENDBRANCH   8   9
ENDBRANCH   5   8
ENDBRANCH   1   2
BRANCH   1  16
ATOM     16  C   UNL     1       2.922   4.183  17.491  0.00  0.00    +0.000 C 
ATOM     17  C   UNL     1       3.479   2.746  17.561  0.00  0.00    +0.000 C 
ATOM     18  C   UNL     1       3.258   2.056  18.903  0.00  0.00    +0.000 C 
ATOM     19  C   UNL     1       1.797   2.100  19.335  0.00  0.00    +0.000 C 
ATOM     20  C   UNL     1       1.262   3.525  19.328  0.00  0.00    +0.000 C 
ATOM     21  C   UNL     1       1.450   4.169  17.962  0.00  0.00    +0.000 C 
ENDBRANCH   1  16
BRANCH   1  22
ATOM     22  O   UNL     1       4.823   5.717  17.236  0.00  0.00    +0.000 OA
BRANCH  22  24
ATOM     23  C   UNL     1       6.510   5.400  18.559  0.00  0.00    +0.000 C 
ATOM     24  N   UNL     1       5.909   6.326  17.877  0.00  0.00    +0.000 NA
BRANCH  23  26
ATOM     25  O   UNL     1       7.896   5.196  20.489  0.00  0.00    +0.000 OA
ATOM     26  C   UNL     1       7.666   5.780  19.449  0.00  0.00    +0.000 C 
BRANCH  26  27
ATOM     27  O   UNL     1       8.343   6.827  18.952  0.00  0.00    +0.000 OA
ATOM     28  H   UNL     1       8.560   7.444  19.687  0.00  0.00    +0.000 HD
ENDBRANCH  26  27
ENDBRANCH  23  26
ENDBRANCH  22  24
ENDBRANCH   1  22
TORSDOF 9
ENDMDL
MODEL 2
REMARK VINA RESULT:      -8.2      2.001      3.618
REMARK  Name = 
REMARK  9 active torsions:
REMARK  status: ('A' for Active; 'I' for Inactive)
REMARK    1  A    between atoms: C_2  and  O_3
REMARK    2  A    between atoms: C_2  and  C_4
REMARK    3  A    between atoms: N_5  and  O_6
REMARK    4  A    between atoms: O_6  and  C_7
REMARK    5  A    between atoms: C_7  and  C_8
REMARK    6  A    between atoms: C_7  and  C_22
REMARK    7  A    between atoms: C_11  and  O_12
REMARK    8  A    between atoms: O_12  and  C_13
REMARK    9  A    between atoms: C_13  and  C_14
REMARK                            x       y       z     vdW  Elec       q    Type
REMARK                         _______ _______ _______ _____ _____    ______ ____
ROOT
ATOM      1  C   UNL     1       4.070   5.918  17.974  0.00  0.00    +0.000 C 
ENDROOT
BRANCH   1   2
ATOM      2  C   UNL     1       3.070   6.965  18.458  0.00  0.00    +0.000 A 
ATOM      3  C   UNL     1       2.781   8.073  17.652  0.00  0.00    +0.000 A 
ATOM      4  C   UNL     1       1.911   9.069  18.065  0.00  0.00    +0.000 A 
ATOM      5  C   UNL     1       1.281   8.989  19.302  0.00  0.00    +0.000 A 
ATOM      6  C   UNL     1       1.605   7.935  20.159  0.00  0.00    +0.000 A 
ATOM      7  C   UNL     1       2.493   6.925  19.746  0.00  0.00    +0.000 A 
BRANCH   5   8
ATOM      8  O   UNL     1       0.341   9.898  19.725  0.00  0.00    +0.000 OA
BRANCH   8   9
ATOM      9  C   UNL     1       0.073  10.912  18.742  0.00  0.00    +0.000 C 
BRANCH   9  10
ATOM     10  C   UNL     1      -1.336  10.857  18.220  0.00  0.00    +0.000 A 
ATOM     11  C   UNL     1      -1.704   9.906  17.275  0.00  0.00    +0.000 A 
ATOM     12  C   UNL     1      -3.038   9.834  16.891  0.00  0.00    +0.000 A 
ATOM     13  C   UNL     1      -3.960  10.708  17.456  0.00  0.00    +0.000 A 
ATOM     14  C   UNL     1      -3.513  11.623  18.392  0.00  0.00    +0.000 A 
ATOM     15  N   UNL     1      -2.227  11.712  18.786  0.00  0.00    +0.000 NA
ENDBRANCH   9  10
ENDBRANCH   8   9
ENDBRANCH   5   8
ENDBRANCH   1   2
BRANCH   1  16
ATOM     16  C   UNL     1       5.279   6.515  17.165  0.00  0.00    +0.000 C 
ATOM     17  C   UNL     1       6.679   6.101  17.661  0.00  0.00    +0.000 C 
ATOM     18  C   UNL     1       7.111   4.706  17.219  0.00  0.00    +0.000 C 
ATOM     19  C   UNL     1       6.985   4.520  15.711  0.00  0.00    +0.000 C 
ATOM     20  C   UNL     1       5.585   4.867  15.227  0.00  0.00    +0.000 C 
ATOM     21  C   UNL     1       5.202   6.282  15.639  0.00  0.00    +0.000 C 
ENDBRANCH   1  16
BRANCH   1  22
ATOM     22  O   UNL     1       4.556   5.387  19.224  0.00  0.00    +0.000 OA
BRANCH  22  24
ATOM     23  C   UNL     1       3.868   3.506  18.397  0.00  0.00    +0.000 C 
ATOM     24  N   UNL     1       3.992   4.140  19.523  0.00  0.00    +0.000 NA
BRANCH  23  26
ATOM     25  O   UNL     1       1.986   2.049  18.559  0.00  0.00    +0.000 OA
ATOM     26  C   UNL     1       3.183   2.162  18.387  0.00  0.00    +0.000 C 
BRANCH  26  27
ATOM     27  O   UNL     1       4.063   1.166  18.200  0.00  0.00    +0.000 OA
ATOM     28  H   UNL     1       4.917   1.412  18.621  0.00  0.00    +0.000 HD
ENDBRANCH  26  27
ENDBRANCH  23  26
ENDBRANCH  22  24
ENDBRANCH   1  22
TORSDOF 9
ENDMDL
MODEL 3
REMARK VINA RESULT:      -8.1      1.406      1.887
REMARK  Name = 
REMARK  9 active torsions:
REMARK  status: ('A' for Active; 'I' for Inactive)
REMARK    1  A    between atoms: C_2  and  O_3
REMARK    2  A    between atoms: C_2  and  C_4
REMARK    3  A    between atoms: N_5  and  O_6
REMARK    4  A    between atoms: O_6  and  C_7
REMARK    5  A    between atoms: C_7  and  C_8
REMARK    6  A    between atoms: C_7  and  C_22
REMARK    7  A    between atoms: C_11  and  O_12
REMARK    8  A    between atoms: O_12  and  C_13
REMARK    9  A    between atoms: C_13  and  C_14
REMARK                            x       y       z     vdW  Elec       q    Type
REMARK                         _______ _______ _______ _____ _____    ______ ____
ROOT
ATOM      1  C   UNL     1       2.937   5.724  19.546  0.00  0.00    +0.000 C 
ENDROOT
BRANCH   1   2
ATOM      2  C   UNL     1       2.262   7.092  19.613  0.00  0.00    +0.000 A 
ATOM      3  C   UNL     1       1.536   7.452  20.755  0.00  0.00    +0.000 A 
ATOM      4  C   UNL     1       0.873   8.666  20.846  0.00  0.00    +0.000 A 
ATOM      5  C   UNL     1       0.920   9.577  19.798  0.00  0.00    +0.000 A 
ATOM      6  C   UNL     1       1.573   9.216  18.617  0.00  0.00    +0.000 A 
ATOM      7  C   UNL     1       2.242   7.983  18.518  0.00  0.00    +0.000 A 
BRANCH   5   8
ATOM      8  O   UNL     1       0.360  10.830  19.868  0.00  0.00    +0.000 OA
BRANCH   8   9
ATOM      9  C   UNL     1       0.007  11.349  18.575  0.00  0.00    +0.000 C 
BRANCH   9  10
ATOM     10  C   UNL     1      -1.435  11.108  18.226  0.00  0.00    +0.000 A 
ATOM     11  C   UNL     1      -1.795  10.051  17.397  0.00  0.00    +0.000 A 
ATOM     12  C   UNL     1      -3.146   9.812  17.176  0.00  0.00    +0.000 A 
ATOM     13  C   UNL     1      -4.094  10.630  17.784  0.00  0.00    +0.000 A 
ATOM     14  C   UNL     1      -3.652  11.659  18.596  0.00  0.00    +0.000 A 
ATOM     15  N   UNL     1      -2.349  11.910  18.831  0.00  0.00    +0.000 NA
ENDBRANCH   9  10
ENDBRANCH   8   9
ENDBRANCH   5   8
ENDBRANCH   1   2
BRANCH   1  16
ATOM     16  C   UNL     1       1.932   4.516  19.522  0.00  0.00    +0.000 C 
ATOM     17  C   UNL     1       1.506   4.035  18.120  0.00  0.00    +0.000 C 
ATOM     18  C   UNL     1       2.536   3.153  17.422  0.00  0.00    +0.000 C 
ATOM     19  C   UNL     1       2.971   1.982  18.296  0.00  0.00    +0.000 C 
ATOM     20  C   UNL     1       3.453   2.458  19.658  0.00  0.00    +0.000 C 
ATOM     21  C   UNL     1       2.384   3.293  20.351  0.00  0.00    +0.000 C 
ENDBRANCH   1  16
BRANCH   1  22
ATOM     22  O   UNL     1       3.614   5.800  18.275  0.00  0.00    +0.000 OA
BRANCH  22  24
ATOM     23  C   UNL     1       5.490   5.644  17.201  0.00  0.00    +0.000 C 
ATOM     24  N   UNL     1       4.976   5.491  18.384  0.00  0.00    +0.000 NA
BRANCH  23  26
ATOM     25  O   UNL     1       7.595   5.775  16.089  0.00  0.00    +0.000 OA
ATOM     26  C   UNL     1       6.936   5.277  16.979  0.00  0.00    +0.000 C 
BRANCH  26  27
ATOM     27  O   UNL     1       7.344   4.343  17.853  0.00  0.00    +0.000 OA
ATOM     28  H   UNL     1       6.714   3.587  17.828  0.00  0.00    +0.000 HD
ENDBRANCH  26  27
ENDBRANCH  23  26
ENDBRANCH  22  24
ENDBRANCH   1  22
TORSDOF 9
ENDMDL
MODEL 4
REMARK VINA RESULT:      -8.1      0.976      1.716
REMARK  Name = 
REMARK  9 active torsions:
REMARK  status: ('A' for Active; 'I' for Inactive)
REMARK    1  A    between atoms: C_2  and  O_3
REMARK    2  A    between atoms: C_2  and  C_4
REMARK    3  A    between atoms: N_5  and  O_6
REMARK    4  A    between atoms: O_6  and  C_7
REMARK    5  A    between atoms: C_7  and  C_8
REMARK    6  A    between atoms: C_7  and  C_22
REMARK    7  A    between atoms: C_11  and  O_12
REMARK    8  A    between atoms: O_12  and  C_13
REMARK    9  A    between atoms: C_13  and  C_14
REMARK                            x       y       z     vdW  Elec       q    Type
REMARK                         _______ _______ _______ _____ _____    ______ ____
ROOT
ATOM      1  C   UNL     1       3.191   5.676  18.995  0.00  0.00    +0.000 C 
ENDROOT
BRANCH   1   2
ATOM      2  C   UNL     1       2.479   7.026  19.010  0.00  0.00    +0.000 A 
ATOM      3  C   UNL     1       2.510   7.839  17.871  0.00  0.00    +0.000 A 
ATOM      4  C   UNL     1       1.914   9.090  17.850  0.00  0.00    +0.000 A 
ATOM      5  C   UNL     1       1.248   9.574  18.969  0.00  0.00    +0.000 A 
ATOM      6  C   UNL     1       1.263   8.819  20.145  0.00  0.00    +0.000 A 
ATOM      7  C   UNL     1       1.873   7.552  20.172  0.00  0.00    +0.000 A 
BRANCH   5   8
ATOM      8  O   UNL     1       0.561  10.765  18.977  0.00  0.00    +0.000 OA
BRANCH   8   9
ATOM      9  C   UNL     1      -0.783  10.622  19.463  0.00  0.00    +0.000 C 
BRANCH   9  10
ATOM     10  C   UNL     1      -1.809  10.708  18.368  0.00  0.00    +0.000 A 
ATOM     11  C   UNL     1      -1.693   9.922  17.227  0.00  0.00    +0.000 A 
ATOM     12  C   UNL     1      -2.713   9.967  16.284  0.00  0.00    +0.000 A 
ATOM     13  C   UNL     1      -3.813  10.791  16.504  0.00  0.00    +0.000 A 
ATOM     14  C   UNL     1      -3.853  11.539  17.667  0.00  0.00    +0.000 A 
ATOM     15  N   UNL     1      -2.880  11.510  18.600  0.00  0.00    +0.000 NA
ENDBRANCH   9  10
ENDBRANCH   8   9
ENDBRANCH   5   8
ENDBRANCH   1   2
BRANCH   1  16
ATOM     16  C   UNL     1       2.256   4.456  19.327  0.00  0.00    +0.000 C 
ATOM     17  C   UNL     1       1.661   3.725  18.107  0.00  0.00    +0.000 C 
ATOM     18  C   UNL     1       2.626   2.760  17.425  0.00  0.00    +0.000 C 
ATOM     19  C   UNL     1       3.239   1.773  18.413  0.00  0.00    +0.000 C 
ATOM     20  C   UNL     1       3.884   2.495  19.587  0.00  0.00    +0.000 C 
ATOM     21  C   UNL     1       2.883   3.411  20.277  0.00  0.00    +0.000 C 
ENDBRANCH   1  16
BRANCH   1  22
ATOM     22  O   UNL     1       3.610   5.587  17.618  0.00  0.00    +0.000 OA
BRANCH  22  24
ATOM     23  C   UNL     1       5.536   5.570  18.611  0.00  0.00    +0.000 C 
ATOM     24  N   UNL     1       4.959   5.232  17.498  0.00  0.00    +0.000 NA
BRANCH  23  26
ATOM     25  O   UNL     1       7.742   5.230  17.773  0.00  0.00    +0.000 OA
ATOM     26  C   UNL     1       7.030   5.407  18.740  0.00  0.00    +0.000 C 
BRANCH  26  27
ATOM     27  O   UNL     1       7.419   5.455  20.024  0.00  0.00    +0.000 OA
ATOM     28  H   UNL     1       7.604   4.540  20.335  0.00  0.00    +0.000 HD
ENDBRANCH  26  27
ENDBRANCH  23  26
ENDBRANCH  22  24
ENDBRANCH   1  22
TORSDOF 9
ENDMDL
MODEL 5
REMARK VINA RESULT:      -8.1      1.610      2.420
REMARK  Name = 
REMARK  9 active torsions:
REMARK  status: ('A' for Active; 'I' for Inactive)
REMARK    1  A    between atoms: C_2  and  O_3
REMARK    2  A    between atoms: C_2  and  C_4
REMARK    3  A    between atoms: N_5  and  O_6
REMARK    4  A    between atoms: O_6  and  C_7
REMARK    5  A    between atoms: C_7  and  C_8
REMARK    6  A    between atoms: C_7  and  C_22
REMARK    7  A    between atoms: C_11  and  O_12
REMARK    8  A    between atoms: O_12  and  C_13
REMARK    9  A    between atoms: C_13  and  C_14
REMARK                            x       y       z     vdW  Elec       q    Type
REMARK                         _______ _______ _______ _____ _____    ______ ____
ROOT
ATOM      1  C   UNL     1       3.807   5.241  18.395  0.00  0.00    +0.000 C 
ENDROOT
BRANCH   1   2
ATOM      2  C   UNL     1       2.974   6.465  18.767  0.00  0.00    +0.000 A 
ATOM      3  C   UNL     1       2.860   7.527  17.862  0.00  0.00    +0.000 A 
ATOM      4  C   UNL     1       2.149   8.676  18.170  0.00  0.00    +0.000 A 
ATOM      5  C   UNL     1       1.509   8.803  19.397  0.00  0.00    +0.000 A 
ATOM      6  C   UNL     1       1.666   7.793  20.349  0.00  0.00    +0.000 A 
ATOM      7  C   UNL     1       2.392   6.628  20.043  0.00  0.00    +0.000 A 
BRANCH   5   8
ATOM      8  O   UNL     1       0.715   9.877  19.722  0.00  0.00    +0.000 OA
BRANCH   8   9
ATOM      9  C   UNL     1       0.387  10.685  18.579  0.00  0.00    +0.000 C 
BRANCH   9  10
ATOM     10  C   UNL     1      -1.082  10.675  18.264  0.00  0.00    +0.000 A 
ATOM     11  C   UNL     1      -1.943  11.579  18.876  0.00  0.00    +0.000 A 
ATOM     12  C   UNL     1      -3.277  11.594  18.485  0.00  0.00    +0.000 A 
ATOM     13  C   UNL     1      -3.711  10.712  17.501  0.00  0.00    +0.000 A 
ATOM     14  C   UNL     1      -2.790   9.846  16.939  0.00  0.00    +0.000 A 
ATOM     15  N   UNL     1      -1.490   9.814  17.296  0.00  0.00    +0.000 NA
ENDBRANCH   9  10
ENDBRANCH   8   9
ENDBRANCH   5   8
ENDBRANCH   1   2
BRANCH   1  16
ATOM     16  C   UNL     1       3.047   4.200  17.495  0.00  0.00    +0.000 C 
ATOM     17  C   UNL     1       3.563   2.749  17.578  0.00  0.00    +0.000 C 
ATOM     18  C   UNL     1       3.086   1.986  18.810  0.00  0.00    +0.000 C 
ATOM     19  C   UNL     1       1.570   2.040  18.962  0.00  0.00    +0.000 C 
ATOM     20  C   UNL     1       1.063   3.474  18.945  0.00  0.00    +0.000 C 
ATOM     21  C   UNL     1       1.513   4.194  17.680  0.00  0.00    +0.000 C 
ENDBRANCH   1  16
BRANCH   1  22
ATOM     22  O   UNL     1       4.871   5.840  17.628  0.00  0.00    +0.000 OA
BRANCH  22  24
ATOM     23  C   UNL     1       6.368   5.335  16.145  0.00  0.00    +0.000 C 
ATOM     24  N   UNL     1       5.117   5.149  16.436  0.00  0.00    +0.000 NA
BRANCH  23  26
ATOM     25  O   UNL     1       7.712   5.410  14.176  0.00  0.00    +0.000 OA
ATOM     26  C   UNL     1       6.906   4.794  14.844  0.00  0.00    +0.000 C 
BRANCH  26  27
ATOM     27  O   UNL     1       6.359   3.605  14.545  0.00  0.00    +0.000 OA
ATOM     28  H   UNL     1       5.612   3.747  13.920  0.00  0.00    +0.000 HD
ENDBRANCH  26  27
ENDBRANCH  23  26
ENDBRANCH  22  24
ENDBRANCH   1  22
TORSDOF 9
ENDMDL
MODEL 6
REMARK VINA RESULT:      -8.1      1.505      2.124
REMARK  Name = 
REMARK  9 active torsions:
REMARK  status: ('A' for Active; 'I' for Inactive)
REMARK    1  A    between atoms: C_2  and  O_3
REMARK    2  A    between atoms: C_2  and  C_4
REMARK    3  A    between atoms: N_5  and  O_6
REMARK    4  A    between atoms: O_6  and  C_7
REMARK    5  A    between atoms: C_7  and  C_8
REMARK    6  A    between atoms: C_7  and  C_22
REMARK    7  A    between atoms: C_11  and  O_12
REMARK    8  A    between atoms: O_12  and  C_13
REMARK    9  A    between atoms: C_13  and  C_14
REMARK                            x       y       z     vdW  Elec       q    Type
REMARK                         _______ _______ _______ _____ _____    ______ ____
ROOT
ATOM      1  C   UNL     1       3.795   5.530  19.517  0.00  0.00    +0.000 C 
ENDROOT
BRANCH   1   2
ATOM      2  C   UNL     1       2.958   6.763  19.184  0.00  0.00    +0.000 A 
ATOM      3  C   UNL     1       3.108   7.387  17.940  0.00  0.00    +0.000 A 
ATOM      4  C   UNL     1       2.400   8.531  17.607  0.00  0.00    +0.000 A 
ATOM      5  C   UNL     1       1.500   9.091  18.506  0.00  0.00    +0.000 A 
ATOM      6  C   UNL     1       1.383   8.536  19.782  0.00  0.00    +0.000 A 
ATOM      7  C   UNL     1       2.104   7.378  20.126  0.00  0.00    +0.000 A 
BRANCH   5   8
ATOM      8  O   UNL     1       0.705  10.170  18.197  0.00  0.00    +0.000 OA
BRANCH   8   9
ATOM      9  C   UNL     1      -0.462  10.251  19.032  0.00  0.00    +0.000 C 
BRANCH   9  10
ATOM     10  C   UNL     1      -1.712  10.555  18.255  0.00  0.00    +0.000 A 
ATOM     11  C   UNL     1      -1.974   9.903  17.054  0.00  0.00    +0.000 A 
ATOM     12  C   UNL     1      -3.186  10.148  16.418  0.00  0.00    +0.000 A 
ATOM     13  C   UNL     1      -4.094  11.032  16.993  0.00  0.00    +0.000 A 
ATOM     14  C   UNL     1      -3.757  11.636  18.191  0.00  0.00    +0.000 A 
ATOM     15  N   UNL     1      -2.592  11.413  18.831  0.00  0.00    +0.000 NA
ENDBRANCH   9  10
ENDBRANCH   8   9
ENDBRANCH   5   8
ENDBRANCH   1   2
BRANCH   1  16
ATOM     16  C   UNL     1       3.169   4.178  19.017  0.00  0.00    +0.000 C 
ATOM     17  C   UNL     1       3.559   2.926  19.829  0.00  0.00    +0.000 C 
ATOM     18  C   UNL     1       2.788   2.764  21.136  0.00  0.00    +0.000 C 
ATOM     19  C   UNL     1       1.280   2.833  20.922  0.00  0.00    +0.000 C 
ATOM     20  C   UNL     1       0.885   4.099  20.177  0.00  0.00    +0.000 C 
ATOM     21  C   UNL     1       1.633   4.207  18.855  0.00  0.00    +0.000 C 
ENDBRANCH   1  16
BRANCH   1  22
ATOM     22  O   UNL     1       5.003   5.794  18.774  0.00  0.00    +0.000 OA
BRANCH  22  24
ATOM     23  C   UNL     1       6.212   5.315  17.041  0.00  0.00    +0.000 C 
ATOM     24  N   UNL     1       5.148   4.933  17.679  0.00  0.00    +0.000 NA
BRANCH  23  26
ATOM     25  O   UNL     1       6.091   3.566  15.424  0.00  0.00    +0.000 OA
ATOM     26  C   UNL     1       6.570   4.636  15.743  0.00  0.00    +0.000 C 
BRANCH  26  27
ATOM     27  O   UNL     1       7.472   5.348  15.050  0.00  0.00    +0.000 OA
ATOM     28  H   UNL     1       7.467   6.275  15.381  0.00  0.00    +0.000 HD
ENDBRANCH  26  27
ENDBRANCH  23  26
ENDBRANCH  22  24
ENDBRANCH   1  22
TORSDOF 9
ENDMDL
MODEL 7
REMARK VINA RESULT:      -8.1      5.270      7.481
REMARK  Name = 
REMARK  9 active torsions:
REMARK  status: ('A' for Active; 'I' for Inactive)
REMARK    1  A    between atoms: C_2  and  O_3
REMARK    2  A    between atoms: C_2  and  C_4
REMARK    3  A    between atoms: N_5  and  O_6
REMARK    4  A    between atoms: O_6  and  C_7
REMARK    5  A    between atoms: C_7  and  C_8
REMARK    6  A    between atoms: C_7  and  C_22
REMARK    7  A    between atoms: C_11  and  O_12
REMARK    8  A    between atoms: O_12  and  C_13
REMARK    9  A    between atoms: C_13  and  C_14
REMARK                            x       y       z     vdW  Elec       q    Type
REMARK                         _______ _______ _______ _____ _____    ______ ____
ROOT
ATOM      1  C   UNL     1       4.975   4.277  16.954  0.00  0.00    +0.000 C 
ENDROOT
BRANCH   1   2
ATOM      2  C   UNL     1       5.958   5.344  17.429  0.00  0.00    +0.000 A 
ATOM      3  C   UNL     1       5.880   6.640  16.906  0.00  0.00    +0.000 A 
ATOM      4  C   UNL     1       6.775   7.632  17.276  0.00  0.00    +0.000 A 
ATOM      5  C   UNL     1       7.781   7.367  18.198  0.00  0.00    +0.000 A 
ATOM      6  C   UNL     1       7.931   6.065  18.681  0.00  0.00    +0.000 A 
ATOM      7  C   UNL     1       7.028   5.054  18.303  0.00  0.00    +0.000 A 
BRANCH   5   8
ATOM      8  O   UNL     1       8.638   8.332  18.670  0.00  0.00    +0.000 OA
BRANCH   8   9
ATOM      9  C   UNL     1       8.515   9.575  17.959  0.00  0.00    +0.000 C 
BRANCH   9  10
ATOM     10  C   UNL     1       9.148  10.727  18.688  0.00  0.00    +0.000 A 
ATOM     11  C   UNL     1       9.544  10.593  20.015  0.00  0.00    +0.000 A 
ATOM     12  C   UNL     1      10.208  11.654  20.619  0.00  0.00    +0.000 A 
ATOM     13  C   UNL     1      10.457  12.811  19.888  0.00  0.00    +0.000 A 
ATOM     14  C   UNL     1      10.033  12.862  18.572  0.00  0.00    +0.000 A 
ATOM     15  N   UNL     1       9.391  11.847  17.960  0.00  0.00    +0.000 NA
ENDBRANCH   9  10
ENDBRANCH   8   9
ENDBRANCH   5   8
ENDBRANCH   1   2
BRANCH   1  16
ATOM     16  C   UNL     1       3.549   4.386  17.606  0.00  0.00    +0.000 C 
ATOM     17  C   UNL     1       2.534   3.312  17.165  0.00  0.00    +0.000 C 
ATOM     18  C   UNL     1       2.713   1.963  17.854  0.00  0.00    +0.000 C 
ATOM     19  C   UNL     1       2.745   2.097  19.372  0.00  0.00    +0.000 C 
ATOM     20  C   UNL     1       3.791   3.110  19.815  0.00  0.00    +0.000 C 
ATOM     21  C   UNL     1       3.556   4.459  19.149  0.00  0.00    +0.000 C 
ENDBRANCH   1  16
BRANCH   1  22
ATOM     22  O   UNL     1       4.875   4.584  15.548  0.00  0.00    +0.000 OA
BRANCH  22  24
ATOM     23  C   UNL     1       5.622   4.207  13.549  0.00  0.00    +0.000 C 
ATOM     24  N   UNL     1       5.868   3.943  14.796  0.00  0.00    +0.000 NA
BRANCH  23  26
ATOM     25  O   UNL     1       7.331   4.173  11.886  0.00  0.00    +0.000 OA
ATOM     26  C   UNL     1       6.470   3.559  12.483  0.00  0.00    +0.000 C 
BRANCH  26  27
ATOM     27  O   UNL     1       6.119   2.278  12.290  0.00  0.00    +0.000 OA
ATOM     28  H   UNL     1       5.879   2.153  11.344  0.00  0.00    +0.000 HD
ENDBRANCH  26  27
ENDBRANCH  23  26
ENDBRANCH  22  24
ENDBRANCH   1  22
TORSDOF 9
ENDMDL
MODEL 8
REMARK VINA RESULT:      -8.0      1.914      2.711
REMARK  Name = 
REMARK  9 active torsions:
REMARK  status: ('A' for Active; 'I' for Inactive)
REMARK    1  A    between atoms: C_2  and  O_3
REMARK    2  A    between atoms: C_2  and  C_4
REMARK    3  A    between atoms: N_5  and  O_6
REMARK    4  A    between atoms: O_6  and  C_7
REMARK    5  A    between atoms: C_7  and  C_8
REMARK    6  A    between atoms: C_7  and  C_22
REMARK    7  A    between atoms: C_11  and  O_12
REMARK    8  A    between atoms: O_12  and  C_13
REMARK    9  A    between atoms: C_13  and  C_14
REMARK                            x       y       z     vdW  Elec       q    Type
REMARK                         _______ _______ _______ _____ _____    ______ ____
ROOT
ATOM      1  C   UNL     1       2.886   5.658  19.054  0.00  0.00    +0.000 C 
ENDROOT
BRANCH   1   2
ATOM      2  C   UNL     1       2.260   7.043  19.187  0.00  0.00    +0.000 A 
ATOM      3  C   UNL     1       2.290   7.925  18.099  0.00  0.00    +0.000 A 
ATOM      4  C   UNL     1       1.771   9.207  18.184  0.00  0.00    +0.000 A 
ATOM      5  C   UNL     1       1.186   9.655  19.362  0.00  0.00    +0.000 A 
ATOM      6  C   UNL     1       1.207   8.827  20.486  0.00  0.00    +0.000 A 
ATOM      7  C   UNL     1       1.738   7.527  20.406  0.00  0.00    +0.000 A 
BRANCH   5   8
ATOM      8  O   UNL     1       0.574  10.881  19.476  0.00  0.00    +0.000 OA
BRANCH   8   9
ATOM      9  C   UNL     1       0.649  11.413  20.809  0.00  0.00    +0.000 C 
BRANCH   9  10
ATOM     10  C   UNL     1      -0.703  11.728  21.386  0.00  0.00    +0.000 A 
ATOM     11  C   UNL     1      -1.000  11.410  22.707  0.00  0.00    +0.000 A 
ATOM     12  C   UNL     1      -2.229  11.804  23.224  0.00  0.00    +0.000 A 
ATOM     13  C   UNL     1      -3.121  12.498  22.412  0.00  0.00    +0.000 A 
ATOM     14  C   UNL     1      -2.747  12.777  21.110  0.00  0.00    +0.000 A 
ATOM     15  N   UNL     1      -1.561  12.412  20.586  0.00  0.00    +0.000 NA
ENDBRANCH   9  10
ENDBRANCH   8   9
ENDBRANCH   5   8
ENDBRANCH   1   2
BRANCH   1  16
ATOM     16  C   UNL     1       1.936   4.585  18.408  0.00  0.00    +0.000 C 
ATOM     17  C   UNL     1       2.575   3.705  17.315  0.00  0.00    +0.000 C 
ATOM     18  C   UNL     1       3.440   2.569  17.854  0.00  0.00    +0.000 C 
ATOM     19  C   UNL     1       2.694   1.720  18.878  0.00  0.00    +0.000 C 
ATOM     20  C   UNL     1       2.116   2.580  19.992  0.00  0.00    +0.000 C 
ATOM     21  C   UNL     1       1.218   3.672  19.426  0.00  0.00    +0.000 C 
ENDBRANCH   1  16
BRANCH   1  22
ATOM     22  O   UNL     1       3.981   5.922  18.153  0.00  0.00    +0.000 OA
BRANCH  22  24
ATOM     23  C   UNL     1       6.042   5.405  17.732  0.00  0.00    +0.000 C 
ATOM     24  N   UNL     1       5.220   5.598  18.718  0.00  0.00    +0.000 NA
BRANCH  23  26
ATOM     25  O   UNL     1       7.965   5.111  19.111  0.00  0.00    +0.000 OA
ATOM     26  C   UNL     1       7.444   4.932  18.029  0.00  0.00    +0.000 C 
BRANCH  26  27
ATOM     27  O   UNL     1       7.999   4.344  16.958  0.00  0.00    +0.000 OA
ATOM     28  H   UNL     1       8.776   4.875  16.671  0.00  0.00    +0.000 HD
ENDBRANCH  26  27
ENDBRANCH  23  26
ENDBRANCH  22  24
ENDBRANCH   1  22
TORSDOF 9
ENDMDL
MODEL 9
REMARK VINA RESULT:      -8.0      2.066      2.818
REMARK  Name = 
REMARK  9 active torsions:
REMARK  status: ('A' for Active; 'I' for Inactive)
REMARK    1  A    between atoms: C_2  and  O_3
REMARK    2  A    between atoms: C_2  and  C_4
REMARK    3  A    between atoms: N_5  and  O_6
REMARK    4  A    between atoms: O_6  and  C_7
REMARK    5  A    between atoms: C_7  and  C_8
REMARK    6  A    between atoms: C_7  and  C_22
REMARK    7  A    between atoms: C_11  and  O_12
REMARK    8  A    between atoms: O_12  and  C_13
REMARK    9  A    between atoms: C_13  and  C_14
REMARK                            x       y       z     vdW  Elec       q    Type
REMARK                         _______ _______ _______ _____ _____    ______ ____
ROOT
ATOM      1  C   UNL     1       3.018   5.772  19.272  0.00  0.00    +0.000 C 
ENDROOT
BRANCH   1   2
ATOM      2  C   UNL     1       2.378   7.157  19.243  0.00  0.00    +0.000 A 
ATOM      3  C   UNL     1       1.764   7.662  20.396  0.00  0.00    +0.000 A 
ATOM      4  C   UNL     1       1.135   8.897  20.407  0.00  0.00    +0.000 A 
ATOM      5  C   UNL     1       1.106   9.685  19.263  0.00  0.00    +0.000 A 
ATOM      6  C   UNL     1       1.644   9.178  18.078  0.00  0.00    +0.000 A 
ATOM      7  C   UNL     1       2.279   7.923  18.061  0.00  0.00    +0.000 A 
BRANCH   5   8
ATOM      8  O   UNL     1       0.578  10.954  19.240  0.00  0.00    +0.000 OA
BRANCH   8   9
ATOM      9  C   UNL     1       0.710  11.629  20.502  0.00  0.00    +0.000 C 
BRANCH   9  10
ATOM     10  C   UNL     1      -0.611  11.849  21.184  0.00  0.00    +0.000 A 
ATOM     11  C   UNL     1      -0.799  11.455  22.504  0.00  0.00    +0.000 A 
ATOM     12  C   UNL     1      -2.006  11.762  23.122  0.00  0.00    +0.000 A 
ATOM     13  C   UNL     1      -2.984  12.448  22.410  0.00  0.00    +0.000 A 
ATOM     14  C   UNL     1      -2.716  12.807  21.101  0.00  0.00    +0.000 A 
ATOM     15  N   UNL     1      -1.554  12.527  20.479  0.00  0.00    +0.000 NA
ENDBRANCH   9  10
ENDBRANCH   8   9
ENDBRANCH   5   8
ENDBRANCH   1   2
BRANCH   1  16
ATOM     16  C   UNL     1       1.983   4.589  19.302  0.00  0.00    +0.000 C 
ATOM     17  C   UNL     1       1.575   4.028  17.925  0.00  0.00    +0.000 C 
ATOM     18  C   UNL     1       2.598   3.077  17.311  0.00  0.00    +0.000 C 
ATOM     19  C   UNL     1       2.982   1.955  18.270  0.00  0.00    +0.000 C 
ATOM     20  C   UNL     1       3.446   2.508  19.609  0.00  0.00    +0.000 C 
ATOM     21  C   UNL     1       2.384   3.413  20.220  0.00  0.00    +0.000 C 
ENDBRANCH   1  16
BRANCH   1  22
ATOM     22  O   UNL     1       3.719   5.753  18.011  0.00  0.00    +0.000 OA
BRANCH  22  24
ATOM     23  C   UNL     1       5.553   5.074  17.078  0.00  0.00    +0.000 C 
ATOM     24  N   UNL     1       5.100   5.595  18.177  0.00  0.00    +0.000 NA
BRANCH  23  26
ATOM     25  O   UNL     1       7.637   4.764  15.960  0.00  0.00    +0.000 OA
ATOM     26  C   UNL     1       7.008   4.686  16.996  0.00  0.00    +0.000 C 
BRANCH  26  27
ATOM     27  O   UNL     1       7.461   4.237  18.177  0.00  0.00    +0.000 OA
ATOM     28  H   UNL     1       7.475   3.253  18.159  0.00  0.00    +0.000 HD
ENDBRANCH  26  27
ENDBRANCH  23  26
ENDBRANCH  22  24
ENDBRANCH   1  22
TORSDOF 9
ENDMDL
