MODEL 1
REMARK VINA RESULT:      -8.7      0.000      0.000
REMARK  Name = 
REMARK  7 active torsions:
REMARK  status: ('A' for Active; 'I' for Inactive)
REMARK    1  A    between atoms: C_2  and  O_3
REMARK    2  A    between atoms: C_2  and  C_4
REMARK    3  A    between atoms: C_4  and  C_5
REMARK    4  A    between atoms: C_10  and  O_11
REMARK    5  A    between atoms: O_11  and  C_12
REMARK    6  A    between atoms: C_12  and  C_13
REMARK    7  A    between atoms: C_17  and  C_18
REMARK                            x       y       z     vdW  Elec       q    Type
REMARK                         _______ _______ _______ _____ _____    ______ ____
ROOT
ATOM      1  C   UNL     1       2.574   5.857  19.826  0.00  0.00    +0.000 C 
ENDROOT
BRANCH   1   2
ATOM      2  C   UNL     1       2.193   7.261  19.411  0.00  0.00    +0.000 A 
ATOM      3  C   UNL     1       2.287   7.688  18.088  0.00  0.00    +0.000 A 
ATOM      4  C   UNL     1       1.792   8.948  17.715  0.00  0.00    +0.000 A 
ATOM      5  C   UNL     1       1.195   9.805  18.659  0.00  0.00    +0.000 A 
ATOM      6  C   UNL     1       1.102   9.423  19.995  0.00  0.00    +0.000 A 
ATOM      7  C   UNL     1       1.599   8.133  20.336  0.00  0.00    +0.000 A 
BRANCH   6   8
ATOM      8  C   UNL     1       0.435  10.191  21.064  0.00  0.00    +0.000 A 
ATOM      9  C   UNL     1       0.716   9.832  22.380  0.00  0.00    +0.000 A 
ATOM     10  S   UNL     1      -0.755   9.972  23.247  0.00  0.00    +0.000 S 
ATOM     11  C   UNL     1      -1.057  11.421  22.369  0.00  0.00    +0.000 A 
ATOM     12  C   UNL     1      -1.899  12.463  22.787  0.00  0.00    +0.000 A 
ATOM     13  C   UNL     1      -1.828  13.665  22.097  0.00  0.00    +0.000 A 
ATOM     14  C   UNL     1      -1.047  13.768  20.952  0.00  0.00    +0.000 A 
ATOM     15  C   UNL     1      -0.331  12.660  20.449  0.00  0.00    +0.000 A 
ATOM     16  C   UNL     1      -0.273  11.457  21.197  0.00  0.00    +0.000 A 
ENDBRANCH   6   8
ENDBRANCH   1   2
BRANCH   1  17
ATOM     17  O   UNL     1       3.973   5.750  19.585  0.00  0.00    +0.000 OA
BRANCH  17  23
ATOM     18  C   UNL     1       6.352   3.855  14.885  0.00  0.00    +0.000 C 
ATOM     19  C   UNL     1       7.456   4.918  15.064  0.00  0.00    +0.000 C 
ATOM     20  O   UNL     1       6.963   5.971  15.924  0.00  0.00    +0.000 OA
ATOM     21  C   UNL     1       5.971   5.359  16.642  0.00  0.00    +0.000 A 
ATOM     22  C   UNL     1       5.414   5.883  17.787  0.00  0.00    +0.000 A 
ATOM     23  C   UNL     1       4.417   5.156  18.443  0.00  0.00    +0.000 A 
ATOM     24  C   UNL     1       3.966   3.942  17.899  0.00  0.00    +0.000 A 
ATOM     25  C   UNL     1       4.537   3.433  16.718  0.00  0.00    +0.000 A 
ATOM     26  C   UNL     1       5.556   4.150  16.110  0.00  0.00    +0.000 A 
BRANCH  18  27
ATOM     27  C   UNL     1       5.540   4.043  13.603  0.00  0.00    +0.000 C 
BRANCH  27  29
ATOM     28  O   UNL     1       7.154   4.116  11.800  0.00  0.00    +0.000 OA
ATOM     29  C   UNL     1       6.280   3.506  12.407  0.00  0.00    +0.000 C 
BRANCH  29  30
ATOM     30  O   UNL     1       5.904   2.258  12.063  0.00  0.00    +0.000 OA
ATOM     31  H   UNL     1       6.442   1.855  11.353  0.00  0.00    +0.000 HD
ENDBRANCH  29  30
ENDBRANCH  27  29
ENDBRANCH  18  27
ENDBRANCH  17  23
ENDBRANCH   1  17
TORSDOF 7
ENDMDL
MODEL 2
REMARK VINA RESULT:      -8.7      6.284      7.542
REMARK  Name = 
REMARK  7 active torsions:
REMARK  status: ('A' for Active; 'I' for Inactive)
REMARK    1  A    between atoms: C_2  and  O_3
REMARK    2  A    between atoms: C_2  and  C_4
REMARK    3  A    between atoms: C_4  and  C_5
REMARK    4  A    between atoms: C_10  and  O_11
REMARK    5  A    between atoms: O_11  and  C_12
REMARK    6  A    between atoms: C_12  and  C_13
REMARK    7  A    between atoms: C_17  and  C_18
REMARK                            x       y       z     vdW  Elec       q    Type
REMARK                         _______ _______ _______ _____ _____    ______ ____
ROOT
ATOM      1  C   UNL     1       8.576   9.710  18.260  0.00  0.00    +0.000 C 
ENDROOT
BRANCH   1   2
ATOM      2  C   UNL     1       9.520  10.651  18.976  0.00  0.00    +0.000 A 
ATOM      3  C   UNL     1      10.783  10.953  18.470  0.00  0.00    +0.000 A 
ATOM      4  C   UNL     1      11.573  11.937  19.084  0.00  0.00    +0.000 A 
ATOM      5  C   UNL     1      11.117  12.637  20.217  0.00  0.00    +0.000 A 
ATOM      6  C   UNL     1       9.869  12.349  20.766  0.00  0.00    +0.000 A 
ATOM      7  C   UNL     1       9.087  11.357  20.109  0.00  0.00    +0.000 A 
BRANCH   6   8
ATOM      8  C   UNL     1       9.243  13.057  21.899  0.00  0.00    +0.000 A 
ATOM      9  C   UNL     1       8.891  14.389  21.705  0.00  0.00    +0.000 A 
ATOM     10  S   UNL     1       9.245  15.205  23.170  0.00  0.00    +0.000 S 
ATOM     11  C   UNL     1       8.613  13.838  24.004  0.00  0.00    +0.000 A 
ATOM     12  C   UNL     1       8.107  13.849  25.313  0.00  0.00    +0.000 A 
ATOM     13  C   UNL     1       7.399  12.735  25.740  0.00  0.00    +0.000 A 
ATOM     14  C   UNL     1       7.324  11.604  24.934  0.00  0.00    +0.000 A 
ATOM     15  C   UNL     1       7.979  11.548  23.684  0.00  0.00    +0.000 A 
ATOM     16  C   UNL     1       8.599  12.710  23.158  0.00  0.00    +0.000 A 
ENDBRANCH   6   8
ENDBRANCH   1   2
BRANCH   1  17
ATOM     17  O   UNL     1       8.822   8.422  18.816  0.00  0.00    +0.000 OA
BRANCH  17  23
ATOM     18  C   UNL     1       5.435   4.507  16.685  0.00  0.00    +0.000 C 
ATOM     19  C   UNL     1       5.339   5.350  15.396  0.00  0.00    +0.000 C 
ATOM     20  O   UNL     1       5.694   6.718  15.700  0.00  0.00    +0.000 OA
ATOM     21  C   UNL     1       6.469   6.606  16.823  0.00  0.00    +0.000 A 
ATOM     22  C   UNL     1       7.274   7.613  17.307  0.00  0.00    +0.000 A 
ATOM     23  C   UNL     1       8.032   7.372  18.457  0.00  0.00    +0.000 A 
ATOM     24  C   UNL     1       7.921   6.140  19.121  0.00  0.00    +0.000 A 
ATOM     25  C   UNL     1       7.078   5.131  18.619  0.00  0.00    +0.000 A 
ATOM     26  C   UNL     1       6.371   5.377  17.452  0.00  0.00    +0.000 A 
BRANCH  18  27
ATOM     27  C   UNL     1       4.090   4.332  17.390  0.00  0.00    +0.000 C 
BRANCH  27  29
ATOM     28  O   UNL     1       4.055   3.239  19.550  0.00  0.00    +0.000 OA
ATOM     29  C   UNL     1       4.116   3.154  18.328  0.00  0.00    +0.000 C 
BRANCH  29  30
ATOM     30  O   UNL     1       4.193   1.968  17.693  0.00  0.00    +0.000 OA
ATOM     31  H   UNL     1       3.412   1.748  17.149  0.00  0.00    +0.000 HD
ENDBRANCH  29  30
ENDBRANCH  27  29
ENDBRANCH  18  27
ENDBRANCH  17  23
ENDBRANCH   1  17
TORSDOF 7
ENDMDL
MODEL 3
REMARK VINA RESULT:      -8.6      5.915      8.918
REMARK  Name = 
REMARK  7 active torsions:
REMARK  status: ('A' for Active; 'I' for Inactive)
REMARK    1  A    between atoms: C_2  and  O_3
REMARK    2  A    between atoms: C_2  and  C_4
REMARK    3  A    between atoms: C_4  and  C_5
REMARK    4  A    between atoms: C_10  and  O_11
REMARK    5  A    between atoms: O_11  and  C_12
REMARK    6  A    between atoms: C_12  and  C_13
REMARK    7  A    between atoms: C_17  and  C_18
REMARK                            x       y       z     vdW  Elec       q    Type
REMARK                         _______ _______ _______ _____ _____    ______ ____
ROOT
ATOM      1  C   UNL     1       7.994   7.661  18.052  0.00  0.00    +0.000 C 
ENDROOT
BRANCH   1   2
ATOM      2  C   UNL     1       6.962   6.817  17.338  0.00  0.00    +0.000 A 
ATOM      3  C   UNL     1       7.255   6.139  16.156  0.00  0.00    +0.000 A 
ATOM      4  C   UNL     1       6.319   5.253  15.600  0.00  0.00    +0.000 A 
ATOM      5  C   UNL     1       5.072   5.028  16.213  0.00  0.00    +0.000 A 
ATOM      6  C   UNL     1       4.733   5.704  17.383  0.00  0.00    +0.000 A 
ATOM      7  C   UNL     1       5.711   6.583  17.929  0.00  0.00    +0.000 A 
BRANCH   6   8
ATOM      8  C   UNL     1       3.497   5.505  18.164  0.00  0.00    +0.000 A 
ATOM      9  C   UNL     1       2.741   6.635  18.465  0.00  0.00    +0.000 A 
ATOM     10  S   UNL     1       2.153   6.417  20.059  0.00  0.00    +0.000 S 
ATOM     11  C   UNL     1       1.859   4.770  19.652  0.00  0.00    +0.000 A 
ATOM     12  C   UNL     1       0.935   3.929  20.292  0.00  0.00    +0.000 A 
ATOM     13  C   UNL     1       0.630   2.722  19.679  0.00  0.00    +0.000 A 
ATOM     14  C   UNL     1       1.328   2.318  18.547  0.00  0.00    +0.000 A 
ATOM     15  C   UNL     1       2.371   3.103  18.007  0.00  0.00    +0.000 A 
ATOM     16  C   UNL     1       2.621   4.399  18.525  0.00  0.00    +0.000 A 
ENDBRANCH   6   8
ENDBRANCH   1   2
BRANCH   1  17
ATOM     17  O   UNL     1       7.734   9.004  17.656  0.00  0.00    +0.000 OA
BRANCH  17  23
ATOM     18  C   UNL     1      10.399  13.638  19.317  0.00  0.00    +0.000 C 
ATOM     19  C   UNL     1       9.378  14.466  18.509  0.00  0.00    +0.000 C 
ATOM     20  O   UNL     1       8.771  13.618  17.507  0.00  0.00    +0.000 OA
ATOM     21  C   UNL     1       8.930  12.358  18.015  0.00  0.00    +0.000 A 
ATOM     22  C   UNL     1       8.254  11.250  17.553  0.00  0.00    +0.000 A 
ATOM     23  C   UNL     1       8.490  10.016  18.165  0.00  0.00    +0.000 A 
ATOM     24  C   UNL     1       9.442   9.916  19.192  0.00  0.00    +0.000 A 
ATOM     25  C   UNL     1      10.135  11.057  19.636  0.00  0.00    +0.000 A 
ATOM     26  C   UNL     1       9.851  12.279  19.045  0.00  0.00    +0.000 A 
BRANCH  18  27
ATOM     27  C   UNL     1      11.834  13.799  18.815  0.00  0.00    +0.000 C 
BRANCH  27  29
ATOM     28  O   UNL     1      12.100  15.885  17.614  0.00  0.00    +0.000 OA
ATOM     29  C   UNL     1      11.888  14.677  17.592  0.00  0.00    +0.000 C 
BRANCH  29  30
ATOM     30  O   UNL     1      11.697  14.002  16.441  0.00  0.00    +0.000 OA
ATOM     31  H   UNL     1      10.816  14.129  16.039  0.00  0.00    +0.000 HD
ENDBRANCH  29  30
ENDBRANCH  27  29
ENDBRANCH  18  27
ENDBRANCH  17  23
ENDBRANCH   1  17
TORSDOF 7
ENDMDL
MODEL 4
REMARK VINA RESULT:      -8.4      5.139     11.403
REMARK  Name = 
REMARK  7 active torsions:
REMARK  status: ('A' for Active; 'I' for Inactive)
REMARK    1  A    between atoms: C_2  and  O_3
REMARK    2  A    between atoms: C_2  and  C_4
REMARK    3  A    between atoms: C_4  and  C_5
REMARK    4  A    between atoms: C_10  and  O_11
REMARK    5  A    between atoms: O_11  and  C_12
REMARK    6  A    between atoms: C_12  and  C_13
REMARK    7  A    between atoms: C_17  and  C_18
REMARK                            x       y       z     vdW  Elec       q    Type
REMARK                         _______ _______ _______ _____ _____    ______ ____
ROOT
ATOM      1  C   UNL     1       0.499   9.608  21.781  0.00  0.00    +0.000 C 
ENDROOT
BRANCH   1   2
ATOM      2  C   UNL     1       0.989   9.250  20.395  0.00  0.00    +0.000 A 
ATOM      3  C   UNL     1       1.117  10.207  19.389  0.00  0.00    +0.000 A 
ATOM      4  C   UNL     1       1.708   9.867  18.162  0.00  0.00    +0.000 A 
ATOM      5  C   UNL     1       2.181   8.564  17.917  0.00  0.00    +0.000 A 
ATOM      6  C   UNL     1       2.052   7.574  18.888  0.00  0.00    +0.000 A 
ATOM      7  C   UNL     1       1.462   7.957  20.127  0.00  0.00    +0.000 A 
BRANCH   6   8
ATOM      8  C   UNL     1       2.570   6.197  18.787  0.00  0.00    +0.000 A 
ATOM      9  C   UNL     1       3.921   6.041  18.489  0.00  0.00    +0.000 A 
ATOM     10  S   UNL     1       4.035   4.698  17.431  0.00  0.00    +0.000 S 
ATOM     11  C   UNL     1       2.858   3.913  18.411  0.00  0.00    +0.000 A 
ATOM     12  C   UNL     1       2.674   2.524  18.502  0.00  0.00    +0.000 A 
ATOM     13  C   UNL     1       1.869   2.047  19.527  0.00  0.00    +0.000 A 
ATOM     14  C   UNL     1       1.170   2.934  20.337  0.00  0.00    +0.000 A 
ATOM     15  C   UNL     1       1.237   4.329  20.128  0.00  0.00    +0.000 A 
ATOM     16  C   UNL     1       2.148   4.859  19.180  0.00  0.00    +0.000 A 
ENDBRANCH   6   8
ENDBRANCH   1   2
BRANCH   1  17
ATOM     17  O   UNL     1       0.570  11.028  21.859  0.00  0.00    +0.000 OA
BRANCH  17  23
ATOM     18  C   UNL     1      -4.288  13.626  22.852  0.00  0.00    +0.000 C 
ATOM     19  C   UNL     1      -4.379  12.857  24.187  0.00  0.00    +0.000 C 
ATOM     20  O   UNL     1      -3.538  11.684  24.114  0.00  0.00    +0.000 OA
ATOM     21  C   UNL     1      -2.620  12.008  23.152  0.00  0.00    +0.000 A 
ATOM     22  C   UNL     1      -1.444  11.320  22.946  0.00  0.00    +0.000 A 
ATOM     23  C   UNL     1      -0.578  11.757  21.940  0.00  0.00    +0.000 A 
ATOM     24  C   UNL     1      -0.940  12.845  21.130  0.00  0.00    +0.000 A 
ATOM     25  C   UNL     1      -2.154  13.523  21.346  0.00  0.00    +0.000 A 
ATOM     26  C   UNL     1      -2.977  13.099  22.379  0.00  0.00    +0.000 A 
BRANCH  18  27
ATOM     27  C   UNL     1      -5.430  13.296  21.891  0.00  0.00    +0.000 C 
BRANCH  27  29
ATOM     28  O   UNL     1      -7.302  13.815  23.337  0.00  0.00    +0.000 OA
ATOM     29  C   UNL     1      -6.704  13.003  22.638  0.00  0.00    +0.000 C 
BRANCH  29  30
ATOM     30  O   UNL     1      -7.154  11.745  22.454  0.00  0.00    +0.000 OA
ATOM     31  H   UNL     1      -6.827  11.099  23.110  0.00  0.00    +0.000 HD
ENDBRANCH  29  30
ENDBRANCH  27  29
ENDBRANCH  18  27
ENDBRANCH  17  23
ENDBRANCH   1  17
TORSDOF 7
ENDMDL
MODEL 5
REMARK VINA RESULT:      -8.4      5.140     11.683
REMARK  Name = 
REMARK  7 active torsions:
REMARK  status: ('A' for Active; 'I' for Inactive)
REMARK    1  A    between atoms: C_2  and  O_3
REMARK    2  A    between atoms: C_2  and  C_4
REMARK    3  A    between atoms: C_4  and  C_5
REMARK    4  A    between atoms: C_10  and  O_11
REMARK    5  A    between atoms: O_11  and  C_12
REMARK    6  A    between atoms: C_12  and  C_13
REMARK    7  A    between atoms: C_17  and  C_18
REMARK                            x       y       z     vdW  Elec       q    Type
REMARK                         _______ _______ _______ _____ _____    ______ ____
ROOT
ATOM      1  C   UNL     1       0.471   9.861  21.570  0.00  0.00    +0.000 C 
ENDROOT
BRANCH   1   2
ATOM      2  C   UNL     1       0.996   9.414  20.224  0.00  0.00    +0.000 A 
ATOM      3  C   UNL     1       1.173  10.307  19.169  0.00  0.00    +0.000 A 
ATOM      4  C   UNL     1       1.795   9.885  17.983  0.00  0.00    +0.000 A 
ATOM      5  C   UNL     1       2.252   8.562  17.830  0.00  0.00    +0.000 A 
ATOM      6  C   UNL     1       2.074   7.634  18.853  0.00  0.00    +0.000 A 
ATOM      7  C   UNL     1       1.454   8.099  20.047  0.00  0.00    +0.000 A 
BRANCH   6   8
ATOM      8  C   UNL     1       2.570   6.244  18.850  0.00  0.00    +0.000 A 
ATOM      9  C   UNL     1       3.911   6.044  18.535  0.00  0.00    +0.000 A 
ATOM     10  S   UNL     1       3.980   4.620  17.584  0.00  0.00    +0.000 S 
ATOM     11  C   UNL     1       2.815   3.934  18.649  0.00  0.00    +0.000 A 
ATOM     12  C   UNL     1       2.613   2.560  18.854  0.00  0.00    +0.000 A 
ATOM     13  C   UNL     1       1.826   2.177  19.930  0.00  0.00    +0.000 A 
ATOM     14  C   UNL     1       1.159   3.137  20.683  0.00  0.00    +0.000 A 
ATOM     15  C   UNL     1       1.241   4.510  20.363  0.00  0.00    +0.000 A 
ATOM     16  C   UNL     1       2.138   4.949  19.356  0.00  0.00    +0.000 A 
ENDBRANCH   6   8
ENDBRANCH   1   2
BRANCH   1  17
ATOM     17  O   UNL     1       0.731  11.260  21.638  0.00  0.00    +0.000 OA
BRANCH  17  23
ATOM     18  C   UNL     1      -3.534  14.071  23.929  0.00  0.00    +0.000 C 
ATOM     19  C   UNL     1      -4.015  12.747  24.559  0.00  0.00    +0.000 C 
ATOM     20  O   UNL     1      -3.453  11.641  23.817  0.00  0.00    +0.000 OA
ATOM     21  C   UNL     1      -2.337  12.179  23.235  0.00  0.00    +0.000 A 
ATOM     22  C   UNL     1      -1.324  11.433  22.674  0.00  0.00    +0.000 A 
ATOM     23  C   UNL     1      -0.226  12.100  22.123  0.00  0.00    +0.000 A 
ATOM     24  C   UNL     1      -0.199  13.503  22.103  0.00  0.00    +0.000 A 
ATOM     25  C   UNL     1      -1.253  14.246  22.666  0.00  0.00    +0.000 A 
ATOM     26  C   UNL     1      -2.310  13.563  23.247  0.00  0.00    +0.000 A 
BRANCH  18  27
ATOM     27  C   UNL     1      -4.542  14.671  22.949  0.00  0.00    +0.000 C 
BRANCH  27  29
ATOM     28  O   UNL     1      -6.894  14.292  23.380  0.00  0.00    +0.000 OA
ATOM     29  C   UNL     1      -5.868  14.922  23.616  0.00  0.00    +0.000 C 
BRANCH  29  30
ATOM     30  O   UNL     1      -5.826  15.909  24.533  0.00  0.00    +0.000 OA
ATOM     31  H   UNL     1      -5.117  16.565  24.388  0.00  0.00    +0.000 HD
ENDBRANCH  29  30
ENDBRANCH  27  29
ENDBRANCH  18  27
ENDBRANCH  17  23
ENDBRANCH   1  17
TORSDOF 7
ENDMDL
MODEL 6
REMARK VINA RESULT:      -8.3      3.082      4.631
REMARK  Name = 
REMARK  7 active torsions:
REMARK  status: ('A' for Active; 'I' for Inactive)
REMARK    1  A    between atoms: C_2  and  O_3
REMARK    2  A    between atoms: C_2  and  C_4
REMARK    3  A    between atoms: C_4  and  C_5
REMARK    4  A    between atoms: C_10  and  O_11
REMARK    5  A    between atoms: O_11  and  C_12
REMARK    6  A    between atoms: C_12  and  C_13
REMARK    7  A    between atoms: C_17  and  C_18
REMARK                            x       y       z     vdW  Elec       q    Type
REMARK                         _______ _______ _______ _____ _____    ______ ____
ROOT
ATOM      1  C   UNL     1       1.247   8.938  21.478  0.00  0.00    +0.000 C 
ENDROOT
BRANCH   1   2
ATOM      2  C   UNL     1       0.770  10.206  20.805  0.00  0.00    +0.000 A 
ATOM      3  C   UNL     1       1.531  11.374  20.813  0.00  0.00    +0.000 A 
ATOM      4  C   UNL     1       1.125  12.486  20.059  0.00  0.00    +0.000 A 
ATOM      5  C   UNL     1      -0.050  12.453  19.283  0.00  0.00    +0.000 A 
ATOM      6  C   UNL     1      -0.848  11.312  19.267  0.00  0.00    +0.000 A 
ATOM      7  C   UNL     1      -0.399  10.196  20.030  0.00  0.00    +0.000 A 
BRANCH   6   8
ATOM      8  C   UNL     1      -2.057  11.119  18.443  0.00  0.00    +0.000 A 
ATOM      9  C   UNL     1      -2.080  10.023  17.585  0.00  0.00    +0.000 A 
ATOM     10  S   UNL     1      -2.849  10.545  16.146  0.00  0.00    +0.000 S 
ATOM     11  C   UNL     1      -3.969  11.400  17.136  0.00  0.00    +0.000 A 
ATOM     12  C   UNL     1      -5.265  11.781  16.753  0.00  0.00    +0.000 A 
ATOM     13  C   UNL     1      -6.126  12.224  17.746  0.00  0.00    +0.000 A 
ATOM     14  C   UNL     1      -5.660  12.408  19.044  0.00  0.00    +0.000 A 
ATOM     15  C   UNL     1      -4.309  12.176  19.379  0.00  0.00    +0.000 A 
ATOM     16  C   UNL     1      -3.433  11.598  18.425  0.00  0.00    +0.000 A 
ENDBRANCH   6   8
ENDBRANCH   1   2
BRANCH   1  17
ATOM     17  O   UNL     1       0.929   7.882  20.577  0.00  0.00    +0.000 OA
BRANCH  17  23
ATOM     18  C   UNL     1       4.823   5.222  17.560  0.00  0.00    +0.000 C 
ATOM     19  C   UNL     1       4.526   3.947  18.376  0.00  0.00    +0.000 C 
ATOM     20  O   UNL     1       3.897   4.321  19.623  0.00  0.00    +0.000 OA
ATOM     21  C   UNL     1       3.342   5.542  19.347  0.00  0.00    +0.000 A 
ATOM     22  C   UNL     1       2.394   6.153  20.138  0.00  0.00    +0.000 A 
ATOM     23  C   UNL     1       1.890   7.396  19.743  0.00  0.00    +0.000 A 
ATOM     24  C   UNL     1       2.391   8.017  18.588  0.00  0.00    +0.000 A 
ATOM     25  C   UNL     1       3.372   7.382  17.804  0.00  0.00    +0.000 A 
ATOM     26  C   UNL     1       3.825   6.130  18.191  0.00  0.00    +0.000 A 
BRANCH  18  27
ATOM     27  C   UNL     1       6.257   5.724  17.729  0.00  0.00    +0.000 C 
BRANCH  27  29
ATOM     28  O   UNL     1       7.387   4.735  15.830  0.00  0.00    +0.000 OA
ATOM     29  C   UNL     1       7.239   4.809  17.045  0.00  0.00    +0.000 C 
BRANCH  29  30
ATOM     30  O   UNL     1       7.973   4.075  17.905  0.00  0.00    +0.000 OA
ATOM     31  H   UNL     1       8.589   3.449  17.477  0.00  0.00    +0.000 HD
ENDBRANCH  29  30
ENDBRANCH  27  29
ENDBRANCH  18  27
ENDBRANCH  17  23
ENDBRANCH   1  17
TORSDOF 7
ENDMDL
MODEL 7
REMARK VINA RESULT:      -8.2      3.526      4.924
REMARK  Name = 
REMARK  7 active torsions:
REMARK  status: ('A' for Active; 'I' for Inactive)
REMARK    1  A    between atoms: C_2  and  O_3
REMARK    2  A    between atoms: C_2  and  C_4
REMARK    3  A    between atoms: C_4  and  C_5
REMARK    4  A    between atoms: C_10  and  O_11
REMARK    5  A    between atoms: O_11  and  C_12
REMARK    6  A    between atoms: C_12  and  C_13
REMARK    7  A    between atoms: C_17  and  C_18
REMARK                            x       y       z     vdW  Elec       q    Type
REMARK                         _______ _______ _______ _____ _____    ______ ____
ROOT
ATOM      1  C   UNL     1       1.478   9.276  17.965  0.00  0.00    +0.000 C 
ENDROOT
BRANCH   1   2
ATOM      2  C   UNL     1       0.623  10.406  18.494  0.00  0.00    +0.000 A 
ATOM      3  C   UNL     1       1.180  11.515  19.130  0.00  0.00    +0.000 A 
ATOM      4  C   UNL     1       0.373  12.608  19.480  0.00  0.00    +0.000 A 
ATOM      5  C   UNL     1      -1.007  12.614  19.202  0.00  0.00    +0.000 A 
ATOM      6  C   UNL     1      -1.605  11.516  18.589  0.00  0.00    +0.000 A 
ATOM      7  C   UNL     1      -0.755  10.431  18.233  0.00  0.00    +0.000 A 
BRANCH   6   8
ATOM      8  C   UNL     1      -3.019  11.426  18.176  0.00  0.00    +0.000 A 
ATOM      9  C   UNL     1      -3.349  10.463  17.226  0.00  0.00    +0.000 A 
ATOM     10  S   UNL     1      -4.520  11.174  16.197  0.00  0.00    +0.000 S 
ATOM     11  C   UNL     1      -5.238  11.861  17.602  0.00  0.00    +0.000 A 
ATOM     12  C   UNL     1      -6.575  12.274  17.711  0.00  0.00    +0.000 A 
ATOM     13  C   UNL     1      -7.061  12.557  18.980  0.00  0.00    +0.000 A 
ATOM     14  C   UNL     1      -6.201  12.561  20.072  0.00  0.00    +0.000 A 
ATOM     15  C   UNL     1      -4.820  12.304  19.922  0.00  0.00    +0.000 A 
ATOM     16  C   UNL     1      -4.313  11.881  18.667  0.00  0.00    +0.000 A 
ENDBRANCH   6   8
ENDBRANCH   1   2
BRANCH   1  17
ATOM     17  O   UNL     1       2.004   8.620  19.114  0.00  0.00    +0.000 OA
BRANCH  17  23
ATOM     18  C   UNL     1       4.598   3.776  18.048  0.00  0.00    +0.000 C 
ATOM     19  C   UNL     1       5.478   4.520  17.022  0.00  0.00    +0.000 C 
ATOM     20  O   UNL     1       4.808   5.737  16.621  0.00  0.00    +0.000 OA
ATOM     21  C   UNL     1       3.972   6.002  17.672  0.00  0.00    +0.000 A 
ATOM     22  C   UNL     1       3.350   7.214  17.874  0.00  0.00    +0.000 A 
ATOM     23  C   UNL     1       2.528   7.369  18.995  0.00  0.00    +0.000 A 
ATOM     24  C   UNL     1       2.311   6.283  19.857  0.00  0.00    +0.000 A 
ATOM     25  C   UNL     1       2.943   5.047  19.621  0.00  0.00    +0.000 A 
ATOM     26  C   UNL     1       3.789   4.931  18.529  0.00  0.00    +0.000 A 
BRANCH  18  27
ATOM     27  C   UNL     1       3.737   2.681  17.419  0.00  0.00    +0.000 C 
BRANCH  27  29
ATOM     28  O   UNL     1       2.346   1.581  19.068  0.00  0.00    +0.000 OA
ATOM     29  C   UNL     1       3.390   1.615  18.425  0.00  0.00    +0.000 C 
BRANCH  29  30
ATOM     30  O   UNL     1       4.340   0.666  18.546  0.00  0.00    +0.000 OA
ATOM     31  H   UNL     1       4.088  -0.088  19.114  0.00  0.00    +0.000 HD
ENDBRANCH  29  30
ENDBRANCH  27  29
ENDBRANCH  18  27
ENDBRANCH  17  23
ENDBRANCH   1  17
TORSDOF 7
ENDMDL
MODEL 8
REMARK VINA RESULT:      -8.2      5.126     11.437
REMARK  Name = 
REMARK  7 active torsions:
REMARK  status: ('A' for Active; 'I' for Inactive)
REMARK    1  A    between atoms: C_2  and  O_3
REMARK    2  A    between atoms: C_2  and  C_4
REMARK    3  A    between atoms: C_4  and  C_5
REMARK    4  A    between atoms: C_10  and  O_11
REMARK    5  A    between atoms: O_11  and  C_12
REMARK    6  A    between atoms: C_12  and  C_13
REMARK    7  A    between atoms: C_17  and  C_18
REMARK                            x       y       z     vdW  Elec       q    Type
REMARK                         _______ _______ _______ _____ _____    ______ ____
ROOT
ATOM      1  C   UNL     1       0.672   9.768  21.591  0.00  0.00    +0.000 C 
ENDROOT
BRANCH   1   2
ATOM      2  C   UNL     1       1.127   9.344  20.212  0.00  0.00    +0.000 A 
ATOM      3  C   UNL     1       1.255  10.257  19.167  0.00  0.00    +0.000 A 
ATOM      4  C   UNL     1       1.815   9.855  17.944  0.00  0.00    +0.000 A 
ATOM      5  C   UNL     1       2.256   8.534  17.742  0.00  0.00    +0.000 A 
ATOM      6  C   UNL     1       2.124   7.587  18.754  0.00  0.00    +0.000 A 
ATOM      7  C   UNL     1       1.567   8.031  19.987  0.00  0.00    +0.000 A 
BRANCH   6   8
ATOM      8  C   UNL     1       2.611   6.195  18.700  0.00  0.00    +0.000 A 
ATOM      9  C   UNL     1       3.956   5.999  18.400  0.00  0.00    +0.000 A 
ATOM     10  S   UNL     1       4.033   4.617  17.389  0.00  0.00    +0.000 S 
ATOM     11  C   UNL     1       2.845   3.894  18.403  0.00  0.00    +0.000 A 
ATOM     12  C   UNL     1       2.630   2.513  18.544  0.00  0.00    +0.000 A 
ATOM     13  C   UNL     1       1.822   2.090  19.589  0.00  0.00    +0.000 A 
ATOM     14  C   UNL     1       1.147   3.021  20.371  0.00  0.00    +0.000 A 
ATOM     15  C   UNL     1       1.245   4.406  20.113  0.00  0.00    +0.000 A 
ATOM     16  C   UNL     1       2.162   4.882  19.141  0.00  0.00    +0.000 A 
ENDBRANCH   6   8
ENDBRANCH   1   2
BRANCH   1  17
ATOM     17  O   UNL     1       0.454  11.173  21.510  0.00  0.00    +0.000 OA
BRANCH  17  23
ATOM     18  C   UNL     1      -4.741  13.197  22.010  0.00  0.00    +0.000 C 
ATOM     19  C   UNL     1      -4.964  12.881  20.516  0.00  0.00    +0.000 C 
ATOM     20  O   UNL     1      -3.680  12.778  19.859  0.00  0.00    +0.000 OA
ATOM     21  C   UNL     1      -2.823  12.465  20.879  0.00  0.00    +0.000 A 
ATOM     22  C   UNL     1      -1.547  11.982  20.693  0.00  0.00    +0.000 A 
ATOM     23  C   UNL     1      -0.770  11.684  21.817  0.00  0.00    +0.000 A 
ATOM     24  C   UNL     1      -1.279  11.930  23.101  0.00  0.00    +0.000 A 
ATOM     25  C   UNL     1      -2.579  12.441  23.269  0.00  0.00    +0.000 A 
ATOM     26  C   UNL     1      -3.347  12.686  22.141  0.00  0.00    +0.000 A 
BRANCH  18  27
ATOM     27  C   UNL     1      -4.849  14.687  22.331  0.00  0.00    +0.000 C 
BRANCH  27  29
ATOM     28  O   UNL     1      -5.286  15.956  24.346  0.00  0.00    +0.000 OA
ATOM     29  C   UNL     1      -5.393  14.908  23.718  0.00  0.00    +0.000 C 
BRANCH  29  30
ATOM     30  O   UNL     1      -6.040  13.835  24.214  0.00  0.00    +0.000 OA
ATOM     31  H   UNL     1      -5.633  13.452  25.016  0.00  0.00    +0.000 HD
ENDBRANCH  29  30
ENDBRANCH  27  29
ENDBRANCH  18  27
ENDBRANCH  17  23
ENDBRANCH   1  17
TORSDOF 7
ENDMDL
MODEL 9
REMARK VINA RESULT:      -8.2      3.896      9.686
REMARK  Name = 
REMARK  7 active torsions:
REMARK  status: ('A' for Active; 'I' for Inactive)
REMARK    1  A    between atoms: C_2  and  O_3
REMARK    2  A    between atoms: C_2  and  C_4
REMARK    3  A    between atoms: C_4  and  C_5
REMARK    4  A    between atoms: C_10  and  O_11
REMARK    5  A    between atoms: O_11  and  C_12
REMARK    6  A    between atoms: C_12  and  C_13
REMARK    7  A    between atoms: C_17  and  C_18
REMARK                            x       y       z     vdW  Elec       q    Type
REMARK                         _______ _______ _______ _____ _____    ______ ____
ROOT
ATOM      1  C   UNL     1       1.248   5.862  20.624  0.00  0.00    +0.000 C 
ENDROOT
BRANCH   1   2
ATOM      2  C   UNL     1       2.364   4.858  20.436  0.00  0.00    +0.000 A 
ATOM      3  C   UNL     1       2.287   3.567  20.956  0.00  0.00    +0.000 A 
ATOM      4  C   UNL     1       3.274   2.620  20.642  0.00  0.00    +0.000 A 
ATOM      5  C   UNL     1       4.357   2.945  19.803  0.00  0.00    +0.000 A 
ATOM      6  C   UNL     1       4.481   4.230  19.282  0.00  0.00    +0.000 A 
ATOM      7  C   UNL     1       3.454   5.162  19.607  0.00  0.00    +0.000 A 
BRANCH   6   8
ATOM      8  C   UNL     1       5.520   4.679  18.335  0.00  0.00    +0.000 A 
ATOM      9  C   UNL     1       6.722   5.131  18.871  0.00  0.00    +0.000 A 
ATOM     10  S   UNL     1       7.212   6.464  17.912  0.00  0.00    +0.000 S 
ATOM     11  C   UNL     1       6.700   5.571  16.532  0.00  0.00    +0.000 A 
ATOM     12  C   UNL     1       7.160   5.769  15.221  0.00  0.00    +0.000 A 
ATOM     13  C   UNL     1       6.849   4.802  14.276  0.00  0.00    +0.000 A 
ATOM     14  C   UNL     1       5.996   3.754  14.604  0.00  0.00    +0.000 A 
ATOM     15  C   UNL     1       5.408   3.658  15.884  0.00  0.00    +0.000 A 
ATOM     16  C   UNL     1       5.804   4.551  16.912  0.00  0.00    +0.000 A 
ENDBRANCH   6   8
ENDBRANCH   1   2
BRANCH   1  17
ATOM     17  O   UNL     1       1.879   7.061  21.062  0.00  0.00    +0.000 OA
BRANCH  17  23
ATOM     18  C   UNL     1      -0.070  12.211  20.055  0.00  0.00    +0.000 C 
ATOM     19  C   UNL     1       0.059  12.510  21.563  0.00  0.00    +0.000 C 
ATOM     20  O   UNL     1       0.081  11.262  22.292  0.00  0.00    +0.000 OA
ATOM     21  C   UNL     1       0.517  10.357  21.363  0.00  0.00    +0.000 A 
ATOM     22  C   UNL     1       0.975   9.095  21.671  0.00  0.00    +0.000 A 
ATOM     23  C   UNL     1       1.409   8.265  20.633  0.00  0.00    +0.000 A 
ATOM     24  C   UNL     1       1.323   8.707  19.304  0.00  0.00    +0.000 A 
ATOM     25  C   UNL     1       0.836   9.994  19.009  0.00  0.00    +0.000 A 
ATOM     26  C   UNL     1       0.453  10.816  20.058  0.00  0.00    +0.000 A 
BRANCH  18  27
ATOM     27  C   UNL     1      -1.510  12.293  19.548  0.00  0.00    +0.000 C 
BRANCH  27  29
ATOM     28  O   UNL     1      -2.185  11.258  17.467  0.00  0.00    +0.000 OA
ATOM     29  C   UNL     1      -1.570  12.143  18.051  0.00  0.00    +0.000 C 
BRANCH  29  30
ATOM     30  O   UNL     1      -0.888  13.101  17.391  0.00  0.00    +0.000 OA
ATOM     31  H   UNL     1       0.040  13.205  17.676  0.00  0.00    +0.000 HD
ENDBRANCH  29  30
ENDBRANCH  27  29
ENDBRANCH  18  27
ENDBRANCH  17  23
ENDBRANCH   1  17
TORSDOF 7
ENDMDL
