MODEL 1
REMARK VINA RESULT:      -8.2      0.000      0.000
REMARK  Name = 
REMARK  7 active torsions:
REMARK  status: ('A' for Active; 'I' for Inactive)
REMARK    1  A    between atoms: C_1  and  C_2
REMARK    2  A    between atoms: C_5  and  C_6
REMARK    3  A    between atoms: C_6  and  S_7
REMARK    4  A    between atoms: S_7  and  C_10
REMARK    5  A    between atoms: C_14  and  N_15
REMARK    6  A    between atoms: N_15  and  C_16
REMARK    7  A    between atoms: N_15  and  C_17
REMARK                            x       y       z     vdW  Elec       q    Type
REMARK                         _______ _______ _______ _____ _____    ______ ____
ROOT
ATOM      1  C   UNL     1       5.406   5.244  18.964  0.00  0.00    +0.000 A 
ATOM      2  N   UNL     1       5.130   4.040  19.490  0.00  0.00    +0.000 NA
ATOM      3  C   UNL     1       3.868   3.885  19.930  0.00  0.00    +0.000 A 
ATOM      4  C   UNL     1       2.900   4.892  19.834  0.00  0.00    +0.000 A 
ATOM      5  C   UNL     1       3.312   6.126  19.298  0.00  0.00    +0.000 A 
ATOM      6  N   UNL     1       4.575   6.292  18.841  0.00  0.00    +0.000 NA
ATOM      7  C   UNL     1       1.481   4.618  20.277  0.00  0.00    +0.000 C 
ATOM      8  C   UNL     1       1.146   3.146  20.514  0.00  0.00    +0.000 C 
ATOM      9  C   UNL     1       2.264   2.479  21.296  0.00  0.00    +0.000 C 
ATOM     10  C   UNL     1       3.542   2.513  20.467  0.00  0.00    +0.000 C 
ENDROOT
BRANCH   1  11
ATOM     11  S   UNL     1       7.061   5.428  18.292  0.00  0.00    +0.000 S 
ATOM     12  O   UNL     1       7.513   4.097  17.898  0.00  0.00    +0.000 OA
ATOM     13  O   UNL     1       7.825   6.237  19.227  0.00  0.00    +0.000 OA
BRANCH  11  14
ATOM     14  C   UNL     1       6.823   6.394  16.804  0.00  0.00    +0.000 C 
BRANCH  14  19
ATOM     15  C   UNL     1       5.728   3.055  12.128  0.00  0.00    +0.000 C 
ATOM     16  C   UNL     1       6.013   3.893  13.342  0.00  0.00    +0.000 A 
ATOM     17  C   UNL     1       5.060   4.045  14.353  0.00  0.00    +0.000 A 
ATOM     18  C   UNL     1       5.332   4.835  15.477  0.00  0.00    +0.000 A 
ATOM     19  C   UNL     1       6.562   5.496  15.613  0.00  0.00    +0.000 A 
ATOM     20  C   UNL     1       7.522   5.328  14.605  0.00  0.00    +0.000 A 
ATOM     21  C   UNL     1       7.247   4.537  13.479  0.00  0.00    +0.000 A 
ENDBRANCH  14  19
ENDBRANCH  11  14
ENDBRANCH   1  11
BRANCH   5  22
ATOM     22  N   UNL     1       2.466   7.209  19.157  0.00  0.00    +0.000 N 
ATOM     23  C   UNL     1       1.815   7.874  20.275  0.00  0.00    +0.000 C 
ATOM     24  C   UNL     1       2.382   7.882  17.870  0.00  0.00    +0.000 C 
ENDBRANCH   5  22
TORSDOF 4
ENDMDL
MODEL 2
REMARK VINA RESULT:      -7.8      0.862      1.482
REMARK  Name = 
REMARK  7 active torsions:
REMARK  status: ('A' for Active; 'I' for Inactive)
REMARK    1  A    between atoms: C_1  and  C_2
REMARK    2  A    between atoms: C_5  and  C_6
REMARK    3  A    between atoms: C_6  and  S_7
REMARK    4  A    between atoms: S_7  and  C_10
REMARK    5  A    between atoms: C_14  and  N_15
REMARK    6  A    between atoms: N_15  and  C_16
REMARK    7  A    between atoms: N_15  and  C_17
REMARK                            x       y       z     vdW  Elec       q    Type
REMARK                         _______ _______ _______ _____ _____    ______ ____
ROOT
ATOM      1  C   UNL     1       5.477   5.017  18.521  0.00  0.00    +0.000 A 
ATOM      2  N   UNL     1       5.111   3.725  18.527  0.00  0.00    +0.000 NA
ATOM      3  C   UNL     1       3.801   3.505  18.747  0.00  0.00    +0.000 A 
ATOM      4  C   UNL     1       2.878   4.539  18.938  0.00  0.00    +0.000 A 
ATOM      5  C   UNL     1       3.382   5.853  18.947  0.00  0.00    +0.000 A 
ATOM      6  N   UNL     1       4.694   6.090  18.717  0.00  0.00    +0.000 NA
ATOM      7  C   UNL     1       1.410   4.218  19.101  0.00  0.00    +0.000 C 
ATOM      8  C   UNL     1       1.012   2.789  18.734  0.00  0.00    +0.000 C 
ATOM      9  C   UNL     1       2.012   1.806  19.317  0.00  0.00    +0.000 C 
ATOM     10  C   UNL     1       3.380   2.057  18.695  0.00  0.00    +0.000 C 
ENDROOT
BRANCH   1  11
ATOM     11  S   UNL     1       7.205   5.324  18.137  0.00  0.00    +0.000 S 
ATOM     12  O   UNL     1       7.798   4.039  17.779  0.00  0.00    +0.000 OA
ATOM     13  O   UNL     1       7.754   6.134  19.212  0.00  0.00    +0.000 OA
BRANCH  11  14
ATOM     14  C   UNL     1       7.152   6.337  16.663  0.00  0.00    +0.000 C 
BRANCH  14  19
ATOM     15  C   UNL     1       5.664   3.029  12.075  0.00  0.00    +0.000 C 
ATOM     16  C   UNL     1       6.043   3.898  13.240  0.00  0.00    +0.000 A 
ATOM     17  C   UNL     1       7.314   4.473  13.326  0.00  0.00    +0.000 A 
ATOM     18  C   UNL     1       7.662   5.276  14.421  0.00  0.00    +0.000 A 
ATOM     19  C   UNL     1       6.747   5.517  15.457  0.00  0.00    +0.000 A 
ATOM     20  C   UNL     1       5.467   4.951  15.359  0.00  0.00    +0.000 A 
ATOM     21  C   UNL     1       5.121   4.147  14.263  0.00  0.00    +0.000 A 
ENDBRANCH  14  19
ENDBRANCH  11  14
ENDBRANCH   1  11
BRANCH   5  22
ATOM     22  N   UNL     1       2.586   6.966  19.138  0.00  0.00    +0.000 N 
ATOM     23  C   UNL     1       2.183   7.863  18.067  0.00  0.00    +0.000 C 
ATOM     24  C   UNL     1       1.917   7.149  20.417  0.00  0.00    +0.000 C 
ENDBRANCH   5  22
TORSDOF 4
ENDMDL
MODEL 3
REMARK VINA RESULT:      -7.7      0.416      1.065
REMARK  Name = 
REMARK  7 active torsions:
REMARK  status: ('A' for Active; 'I' for Inactive)
REMARK    1  A    between atoms: C_1  and  C_2
REMARK    2  A    between atoms: C_5  and  C_6
REMARK    3  A    between atoms: C_6  and  S_7
REMARK    4  A    between atoms: S_7  and  C_10
REMARK    5  A    between atoms: C_14  and  N_15
REMARK    6  A    between atoms: N_15  and  C_16
REMARK    7  A    between atoms: N_15  and  C_17
REMARK                            x       y       z     vdW  Elec       q    Type
REMARK                         _______ _______ _______ _____ _____    ______ ____
ROOT
ATOM      1  C   UNL     1       5.196   5.342  18.690  0.00  0.00    +0.000 A 
ATOM      2  N   UNL     1       4.968   4.139  19.240  0.00  0.00    +0.000 NA
ATOM      3  C   UNL     1       3.766   4.000  19.831  0.00  0.00    +0.000 A 
ATOM      4  C   UNL     1       2.810   5.023  19.859  0.00  0.00    +0.000 A 
ATOM      5  C   UNL     1       3.173   6.254  19.282  0.00  0.00    +0.000 A 
ATOM      6  N   UNL     1       4.374   6.404  18.675  0.00  0.00    +0.000 NA
ATOM      7  C   UNL     1       1.452   4.768  20.473  0.00  0.00    +0.000 C 
ATOM      8  C   UNL     1       1.125   3.299  20.742  0.00  0.00    +0.000 C 
ATOM      9  C   UNL     1       2.321   2.610  21.378  0.00  0.00    +0.000 C 
ATOM     10  C   UNL     1       3.488   2.630  20.398  0.00  0.00    +0.000 C 
ENDROOT
BRANCH   1  11
ATOM     11  S   UNL     1       6.758   5.505  17.820  0.00  0.00    +0.000 S 
ATOM     12  O   UNL     1       7.176   4.160  17.435  0.00  0.00    +0.000 OA
ATOM     13  O   UNL     1       7.618   6.360  18.622  0.00  0.00    +0.000 OA
BRANCH  11  14
ATOM     14  C   UNL     1       6.337   6.400  16.329  0.00  0.00    +0.000 C 
BRANCH  14  19
ATOM     15  C   UNL     1       6.036   2.655  11.846  0.00  0.00    +0.000 C 
ATOM     16  C   UNL     1       6.109   3.635  12.982  0.00  0.00    +0.000 A 
ATOM     17  C   UNL     1       7.247   4.422  13.183  0.00  0.00    +0.000 A 
ATOM     18  C   UNL     1       7.309   5.327  14.251  0.00  0.00    +0.000 A 
ATOM     19  C   UNL     1       6.237   5.462  15.145  0.00  0.00    +0.000 A 
ATOM     20  C   UNL     1       5.090   4.682  14.931  0.00  0.00    +0.000 A 
ATOM     21  C   UNL     1       5.030   3.776  13.862  0.00  0.00    +0.000 A 
ENDBRANCH  14  19
ENDBRANCH  11  14
ENDBRANCH   1  11
BRANCH   5  22
ATOM     22  N   UNL     1       2.334   7.351  19.252  0.00  0.00    +0.000 N 
ATOM     23  C   UNL     1       1.749   7.951  20.439  0.00  0.00    +0.000 C 
ATOM     24  C   UNL     1       2.193   8.102  18.014  0.00  0.00    +0.000 C 
ENDBRANCH   5  22
TORSDOF 4
ENDMDL
MODEL 4
REMARK VINA RESULT:      -7.7      1.158      1.362
REMARK  Name = 
REMARK  7 active torsions:
REMARK  status: ('A' for Active; 'I' for Inactive)
REMARK    1  A    between atoms: C_1  and  C_2
REMARK    2  A    between atoms: C_5  and  C_6
REMARK    3  A    between atoms: C_6  and  S_7
REMARK    4  A    between atoms: S_7  and  C_10
REMARK    5  A    between atoms: C_14  and  N_15
REMARK    6  A    between atoms: N_15  and  C_16
REMARK    7  A    between atoms: N_15  and  C_17
REMARK                            x       y       z     vdW  Elec       q    Type
REMARK                         _______ _______ _______ _____ _____    ______ ____
ROOT
ATOM      1  C   UNL     1       5.550   5.123  17.994  0.00  0.00    +0.000 A 
ATOM      2  N   UNL     1       5.204   3.826  18.000  0.00  0.00    +0.000 NA
ATOM      3  C   UNL     1       3.919   3.580  18.317  0.00  0.00    +0.000 A 
ATOM      4  C   UNL     1       2.998   4.596  18.602  0.00  0.00    +0.000 A 
ATOM      5  C   UNL     1       3.483   5.917  18.601  0.00  0.00    +0.000 A 
ATOM      6  N   UNL     1       4.770   6.180  18.274  0.00  0.00    +0.000 NA
ATOM      7  C   UNL     1       1.552   4.248  18.872  0.00  0.00    +0.000 C 
ATOM      8  C   UNL     1       1.147   2.821  18.506  0.00  0.00    +0.000 C 
ATOM      9  C   UNL     1       2.204   1.842  18.988  0.00  0.00    +0.000 C 
ATOM     10  C   UNL     1       3.515   2.127  18.266  0.00  0.00    +0.000 C 
ENDROOT
BRANCH   1  11
ATOM     11  S   UNL     1       7.238   5.465  17.483  0.00  0.00    +0.000 S 
ATOM     12  O   UNL     1       7.882   4.177  17.246  0.00  0.00    +0.000 OA
ATOM     13  O   UNL     1       7.794   6.423  18.425  0.00  0.00    +0.000 OA
BRANCH  11  14
ATOM     14  C   UNL     1       7.058   6.292  15.906  0.00  0.00    +0.000 C 
BRANCH  14  19
ATOM     15  C   UNL     1       5.574   2.601  11.618  0.00  0.00    +0.000 C 
ATOM     16  C   UNL     1       5.960   3.530  12.733  0.00  0.00    +0.000 A 
ATOM     17  C   UNL     1       5.095   3.767  13.805  0.00  0.00    +0.000 A 
ATOM     18  C   UNL     1       5.461   4.642  14.837  0.00  0.00    +0.000 A 
ATOM     19  C   UNL     1       6.698   5.304  14.816  0.00  0.00    +0.000 A 
ATOM     20  C   UNL     1       7.569   5.051  13.747  0.00  0.00    +0.000 A 
ATOM     21  C   UNL     1       7.201   4.176  12.715  0.00  0.00    +0.000 A 
ENDBRANCH  14  19
ENDBRANCH  11  14
ENDBRANCH   1  11
BRANCH   5  22
ATOM     22  N   UNL     1       2.689   7.013  18.878  0.00  0.00    +0.000 N 
ATOM     23  C   UNL     1       2.195   7.928  17.862  0.00  0.00    +0.000 C 
ATOM     24  C   UNL     1       2.116   7.156  20.208  0.00  0.00    +0.000 C 
ENDBRANCH   5  22
TORSDOF 4
ENDMDL
MODEL 5
REMARK VINA RESULT:      -7.6      0.966      1.465
REMARK  Name = 
REMARK  7 active torsions:
REMARK  status: ('A' for Active; 'I' for Inactive)
REMARK    1  A    between atoms: C_1  and  C_2
REMARK    2  A    between atoms: C_5  and  C_6
REMARK    3  A    between atoms: C_6  and  S_7
REMARK    4  A    between atoms: S_7  and  C_10
REMARK    5  A    between atoms: C_14  and  N_15
REMARK    6  A    between atoms: N_15  and  C_16
REMARK    7  A    between atoms: N_15  and  C_17
REMARK                            x       y       z     vdW  Elec       q    Type
REMARK                         _______ _______ _______ _____ _____    ______ ____
ROOT
ATOM      1  C   UNL     1       5.312   5.825  18.496  0.00  0.00    +0.000 A 
ATOM      2  N   UNL     1       5.179   4.570  18.953  0.00  0.00    +0.000 NA
ATOM      3  C   UNL     1       3.979   4.284  19.491  0.00  0.00    +0.000 A 
ATOM      4  C   UNL     1       2.934   5.213  19.558  0.00  0.00    +0.000 A 
ATOM      5  C   UNL     1       3.200   6.510  19.081  0.00  0.00    +0.000 A 
ATOM      6  N   UNL     1       4.398   6.809  18.527  0.00  0.00    +0.000 NA
ATOM      7  C   UNL     1       1.588   4.796  20.105  0.00  0.00    +0.000 C 
ATOM      8  C   UNL     1       1.387   3.289  20.260  0.00  0.00    +0.000 C 
ATOM      9  C   UNL     1       2.622   2.663  20.886  0.00  0.00    +0.000 C 
ATOM     10  C   UNL     1       3.809   2.856  19.951  0.00  0.00    +0.000 C 
ENDROOT
BRANCH   1  11
ATOM     11  S   UNL     1       6.878   6.188  17.694  0.00  0.00    +0.000 S 
ATOM     12  O   UNL     1       7.817   6.571  18.744  0.00  0.00    +0.000 OA
ATOM     13  O   UNL     1       6.601   7.071  16.573  0.00  0.00    +0.000 OA
BRANCH  11  14
ATOM     14  C   UNL     1       7.405   4.612  17.030  0.00  0.00    +0.000 C 
BRANCH  14  19
ATOM     15  C   UNL     1       5.044   3.476  11.800  0.00  0.00    +0.000 C 
ATOM     16  C   UNL     1       5.644   3.790  13.141  0.00  0.00    +0.000 A 
ATOM     17  C   UNL     1       6.881   4.433  13.244  0.00  0.00    +0.000 A 
ATOM     18  C   UNL     1       7.436   4.715  14.500  0.00  0.00    +0.000 A 
ATOM     19  C   UNL     1       6.769   4.355  15.680  0.00  0.00    +0.000 A 
ATOM     20  C   UNL     1       5.520   3.725  15.572  0.00  0.00    +0.000 A 
ATOM     21  C   UNL     1       4.967   3.443  14.315  0.00  0.00    +0.000 A 
ENDBRANCH  14  19
ENDBRANCH  11  14
ENDBRANCH   1  11
BRANCH   5  22
ATOM     22  N   UNL     1       2.266   7.528  19.098  0.00  0.00    +0.000 N 
ATOM     23  C   UNL     1       1.735   8.114  20.318  0.00  0.00    +0.000 C 
ATOM     24  C   UNL     1       1.951   8.223  17.859  0.00  0.00    +0.000 C 
ENDBRANCH   5  22
TORSDOF 4
ENDMDL
MODEL 6
REMARK VINA RESULT:      -7.5      4.185      7.582
REMARK  Name = 
REMARK  7 active torsions:
REMARK  status: ('A' for Active; 'I' for Inactive)
REMARK    1  A    between atoms: C_1  and  C_2
REMARK    2  A    between atoms: C_5  and  C_6
REMARK    3  A    between atoms: C_6  and  S_7
REMARK    4  A    between atoms: S_7  and  C_10
REMARK    5  A    between atoms: C_14  and  N_15
REMARK    6  A    between atoms: N_15  and  C_16
REMARK    7  A    between atoms: N_15  and  C_17
REMARK                            x       y       z     vdW  Elec       q    Type
REMARK                         _______ _______ _______ _____ _____    ______ ____
ROOT
ATOM      1  C   UNL     1       1.697   7.409  20.301  0.00  0.00    +0.000 A 
ATOM      2  N   UNL     1       2.490   7.757  19.275  0.00  0.00    +0.000 NA
ATOM      3  C   UNL     1       3.073   6.728  18.631  0.00  0.00    +0.000 A 
ATOM      4  C   UNL     1       2.859   5.390  18.984  0.00  0.00    +0.000 A 
ATOM      5  C   UNL     1       2.037   5.147  20.099  0.00  0.00    +0.000 A 
ATOM      6  N   UNL     1       1.436   6.170  20.750  0.00  0.00    +0.000 NA
ATOM      7  C   UNL     1       3.485   4.286  18.164  0.00  0.00    +0.000 C 
ATOM      8  C   UNL     1       4.060   4.721  16.817  0.00  0.00    +0.000 C 
ATOM      9  C   UNL     1       4.854   6.005  16.982  0.00  0.00    +0.000 C 
ATOM     10  C   UNL     1       3.917   7.116  17.442  0.00  0.00    +0.000 C 
ENDROOT
BRANCH   1  11
ATOM     11  S   UNL     1       0.845   8.768  21.108  0.00  0.00    +0.000 S 
ATOM     12  O   UNL     1       1.593   9.082  22.322  0.00  0.00    +0.000 OA
ATOM     13  O   UNL     1      -0.568   8.429  21.161  0.00  0.00    +0.000 OA
BRANCH  11  14
ATOM     14  C   UNL     1       1.034  10.138  19.973  0.00  0.00    +0.000 C 
BRANCH  14  19
ATOM     15  C   UNL     1      -3.870  11.284  16.997  0.00  0.00    +0.000 C 
ATOM     16  C   UNL     1      -2.623  10.976  17.776  0.00  0.00    +0.000 A 
ATOM     17  C   UNL     1      -2.360  11.608  18.996  0.00  0.00    +0.000 A 
ATOM     18  C   UNL     1      -1.191  11.320  19.711  0.00  0.00    +0.000 A 
ATOM     19  C   UNL     1      -0.254  10.398  19.220  0.00  0.00    +0.000 A 
ATOM     20  C   UNL     1      -0.528   9.755  18.005  0.00  0.00    +0.000 A 
ATOM     21  C   UNL     1      -1.700  10.045  17.289  0.00  0.00    +0.000 A 
ENDBRANCH  14  19
ENDBRANCH  11  14
ENDBRANCH   1  11
BRANCH   5  22
ATOM     22  N   UNL     1       1.752   3.878  20.566  0.00  0.00    +0.000 N 
ATOM     23  C   UNL     1       2.254   3.350  21.824  0.00  0.00    +0.000 C 
ATOM     24  C   UNL     1       0.722   3.093  19.903  0.00  0.00    +0.000 C 
ENDBRANCH   5  22
TORSDOF 4
ENDMDL
MODEL 7
REMARK VINA RESULT:      -7.4      1.105      2.968
REMARK  Name = 
REMARK  7 active torsions:
REMARK  status: ('A' for Active; 'I' for Inactive)
REMARK    1  A    between atoms: C_1  and  C_2
REMARK    2  A    between atoms: C_5  and  C_6
REMARK    3  A    between atoms: C_6  and  S_7
REMARK    4  A    between atoms: S_7  and  C_10
REMARK    5  A    between atoms: C_14  and  N_15
REMARK    6  A    between atoms: N_15  and  C_16
REMARK    7  A    between atoms: N_15  and  C_17
REMARK                            x       y       z     vdW  Elec       q    Type
REMARK                         _______ _______ _______ _____ _____    ______ ____
ROOT
ATOM      1  C   UNL     1       5.858   4.970  18.543  0.00  0.00    +0.000 A 
ATOM      2  N   UNL     1       5.005   5.986  18.747  0.00  0.00    +0.000 NA
ATOM      3  C   UNL     1       3.829   5.639  19.305  0.00  0.00    +0.000 A 
ATOM      4  C   UNL     1       3.518   4.323  19.666  0.00  0.00    +0.000 A 
ATOM      5  C   UNL     1       4.476   3.335  19.371  0.00  0.00    +0.000 A 
ATOM      6  N   UNL     1       5.666   3.670  18.821  0.00  0.00    +0.000 NA
ATOM      7  C   UNL     1       2.210   4.021  20.361  0.00  0.00    +0.000 C 
ATOM      8  C   UNL     1       1.459   5.242  20.892  0.00  0.00    +0.000 C 
ATOM      9  C   UNL     1       1.458   6.345  19.847  0.00  0.00    +0.000 C 
ATOM     10  C   UNL     1       2.893   6.788  19.589  0.00  0.00    +0.000 C 
ENDROOT
BRANCH   1  11
ATOM     11  S   UNL     1       7.463   5.437  17.884  0.00  0.00    +0.000 S 
ATOM     12  O   UNL     1       8.135   4.205  17.483  0.00  0.00    +0.000 OA
ATOM     13  O   UNL     1       8.075   6.355  18.831  0.00  0.00    +0.000 OA
BRANCH  11  14
ATOM     14  C   UNL     1       7.074   6.362  16.402  0.00  0.00    +0.000 C 
BRANCH  14  19
ATOM     15  C   UNL     1       5.638   2.890  11.918  0.00  0.00    +0.000 C 
ATOM     16  C   UNL     1       6.013   3.763  13.082  0.00  0.00    +0.000 A 
ATOM     17  C   UNL     1       5.156   3.911  14.177  0.00  0.00    +0.000 A 
ATOM     18  C   UNL     1       5.510   4.733  15.254  0.00  0.00    +0.000 A 
ATOM     19  C   UNL     1       6.727   5.431  15.259  0.00  0.00    +0.000 A 
ATOM     20  C   UNL     1       7.592   5.267  14.167  0.00  0.00    +0.000 A 
ATOM     21  C   UNL     1       7.235   4.444  13.088  0.00  0.00    +0.000 A 
ENDBRANCH  14  19
ENDBRANCH  11  14
ENDBRANCH   1  11
BRANCH   5  22
ATOM     22  N   UNL     1       4.295   1.996  19.660  0.00  0.00    +0.000 N 
ATOM     23  C   UNL     1       3.716   1.042  18.729  0.00  0.00    +0.000 C 
ATOM     24  C   UNL     1       4.910   1.438  20.856  0.00  0.00    +0.000 C 
ENDBRANCH   5  22
TORSDOF 4
ENDMDL
MODEL 8
REMARK VINA RESULT:      -7.3      0.993      1.154
REMARK  Name = 
REMARK  7 active torsions:
REMARK  status: ('A' for Active; 'I' for Inactive)
REMARK    1  A    between atoms: C_1  and  C_2
REMARK    2  A    between atoms: C_5  and  C_6
REMARK    3  A    between atoms: C_6  and  S_7
REMARK    4  A    between atoms: S_7  and  C_10
REMARK    5  A    between atoms: C_14  and  N_15
REMARK    6  A    between atoms: N_15  and  C_16
REMARK    7  A    between atoms: N_15  and  C_17
REMARK                            x       y       z     vdW  Elec       q    Type
REMARK                         _______ _______ _______ _____ _____    ______ ____
ROOT
ATOM      1  C   UNL     1       4.875   5.456  18.091  0.00  0.00    +0.000 A 
ATOM      2  N   UNL     1       4.656   4.235  18.607  0.00  0.00    +0.000 NA
ATOM      3  C   UNL     1       3.540   4.122  19.351  0.00  0.00    +0.000 A 
ATOM      4  C   UNL     1       2.656   5.187  19.563  0.00  0.00    +0.000 A 
ATOM      5  C   UNL     1       3.006   6.429  19.004  0.00  0.00    +0.000 A 
ATOM      6  N   UNL     1       4.119   6.556  18.244  0.00  0.00    +0.000 NA
ATOM      7  C   UNL     1       1.382   4.963  20.345  0.00  0.00    +0.000 C 
ATOM      8  C   UNL     1       1.013   3.499  20.583  0.00  0.00    +0.000 C 
ATOM      9  C   UNL     1       2.242   2.717  21.011  0.00  0.00    +0.000 C 
ATOM     10  C   UNL     1       3.265   2.736  19.881  0.00  0.00    +0.000 C 
ENDROOT
BRANCH   1  11
ATOM     11  S   UNL     1       6.312   5.593  17.023  0.00  0.00    +0.000 S 
ATOM     12  O   UNL     1       6.860   4.249  16.870  0.00  0.00    +0.000 OA
ATOM     13  O   UNL     1       7.127   6.687  17.524  0.00  0.00    +0.000 OA
BRANCH  11  14
ATOM     14  C   UNL     1       5.636   6.096  15.444  0.00  0.00    +0.000 C 
BRANCH  14  19
ATOM     15  C   UNL     1       7.302   2.594  11.065  0.00  0.00    +0.000 C 
ATOM     16  C   UNL     1       6.880   3.477  12.205  0.00  0.00    +0.000 A 
ATOM     17  C   UNL     1       5.663   3.273  12.862  0.00  0.00    +0.000 A 
ATOM     18  C   UNL     1       5.274   4.106  13.920  0.00  0.00    +0.000 A 
ATOM     19  C   UNL     1       6.092   5.167  14.340  0.00  0.00    +0.000 A 
ATOM     20  C   UNL     1       7.319   5.358  13.689  0.00  0.00    +0.000 A 
ATOM     21  C   UNL     1       7.706   4.523  12.630  0.00  0.00    +0.000 A 
ENDBRANCH  14  19
ENDBRANCH  11  14
ENDBRANCH   1  11
BRANCH   5  22
ATOM     22  N   UNL     1       2.233   7.566  19.145  0.00  0.00    +0.000 N 
ATOM     23  C   UNL     1       1.844   8.121  20.432  0.00  0.00    +0.000 C 
ATOM     24  C   UNL     1       1.974   8.398  17.980  0.00  0.00    +0.000 C 
ENDBRANCH   5  22
TORSDOF 4
ENDMDL
MODEL 9
REMARK VINA RESULT:      -7.0      2.500      6.242
REMARK  Name = 
REMARK  7 active torsions:
REMARK  status: ('A' for Active; 'I' for Inactive)
REMARK    1  A    between atoms: C_1  and  C_2
REMARK    2  A    between atoms: C_5  and  C_6
REMARK    3  A    between atoms: C_6  and  S_7
REMARK    4  A    between atoms: S_7  and  C_10
REMARK    5  A    between atoms: C_14  and  N_15
REMARK    6  A    between atoms: N_15  and  C_16
REMARK    7  A    between atoms: N_15  and  C_17
REMARK                            x       y       z     vdW  Elec       q    Type
REMARK                         _______ _______ _______ _____ _____    ______ ____
ROOT
ATOM      1  C   UNL     1       4.761   3.402  18.267  0.00  0.00    +0.000 A 
ATOM      2  N   UNL     1       5.515   4.027  19.186  0.00  0.00    +0.000 NA
ATOM      3  C   UNL     1       6.343   4.969  18.698  0.00  0.00    +0.000 A 
ATOM      4  C   UNL     1       6.408   5.296  17.339  0.00  0.00    +0.000 A 
ATOM      5  C   UNL     1       5.597   4.550  16.463  0.00  0.00    +0.000 A 
ATOM      6  N   UNL     1       4.752   3.607  16.939  0.00  0.00    +0.000 NA
ATOM      7  C   UNL     1       7.305   6.421  16.875  0.00  0.00    +0.000 C 
ATOM      8  C   UNL     1       7.845   7.322  17.986  0.00  0.00    +0.000 C 
ATOM      9  C   UNL     1       8.329   6.475  19.151  0.00  0.00    +0.000 C 
ATOM     10  C   UNL     1       7.148   5.711  19.737  0.00  0.00    +0.000 C 
ENDROOT
BRANCH   1  11
ATOM     11  S   UNL     1       3.589   2.208  18.918  0.00  0.00    +0.000 S 
ATOM     12  O   UNL     1       3.743   2.205  20.370  0.00  0.00    +0.000 OA
ATOM     13  O   UNL     1       3.732   0.986  18.143  0.00  0.00    +0.000 OA
BRANCH  11  14
ATOM     14  C   UNL     1       1.989   2.912  18.534  0.00  0.00    +0.000 C 
BRANCH  14  19
ATOM     15  C   UNL     1       1.736   8.372  20.619  0.00  0.00    +0.000 C 
ATOM     16  C   UNL     1       1.777   6.970  20.081  0.00  0.00    +0.000 A 
ATOM     17  C   UNL     1       1.419   5.880  20.880  0.00  0.00    +0.000 A 
ATOM     18  C   UNL     1       1.468   4.575  20.372  0.00  0.00    +0.000 A 
ATOM     19  C   UNL     1       1.883   4.330  19.055  0.00  0.00    +0.000 A 
ATOM     20  C   UNL     1       2.226   5.427  18.251  0.00  0.00    +0.000 A 
ATOM     21  C   UNL     1       2.177   6.733  18.761  0.00  0.00    +0.000 A 
ENDBRANCH  14  19
ENDBRANCH  11  14
ENDBRANCH   1  11
BRANCH   5  22
ATOM     22  N   UNL     1       5.571   4.757  15.097  0.00  0.00    +0.000 N 
ATOM     23  C   UNL     1       5.127   5.995  14.477  0.00  0.00    +0.000 C 
ATOM     24  C   UNL     1       6.227   3.797  14.221  0.00  0.00    +0.000 C 
ENDBRANCH   5  22
TORSDOF 4
ENDMDL
