MODEL 1
REMARK VINA RESULT:      -9.0      0.000      0.000
REMARK  Name = 
REMARK  7 active torsions:
REMARK  status: ('A' for Active; 'I' for Inactive)
REMARK    1  A    between atoms: N_1  and  C_2
REMARK    2  A    between atoms: C_5  and  C_6
REMARK    3  A    between atoms: C_9  and  C_10
REMARK    4  A    between atoms: N_12  and  C_13
REMARK    5  A    between atoms: C_13  and  C_14
REMARK    6  A    between atoms: C_22  and  O_23
REMARK    7  A    between atoms: O_23  and  C_24
REMARK                            x       y       z     vdW  Elec       q    Type
REMARK                         _______ _______ _______ _____ _____    ______ ____
ROOT
ATOM      1  C   UNL     1       4.252   3.560  19.601  0.00  0.00    +0.000 A 
ATOM      2  N   UNL     1       3.100   3.763  20.284  0.00  0.00    +0.000 NA
ATOM      3  C   UNL     1       2.465   4.954  20.259  0.00  0.00    +0.000 A 
ATOM      4  C   UNL     1       2.986   6.015  19.505  0.00  0.00    +0.000 A 
ATOM      5  N   UNL     1       4.158   5.824  18.836  0.00  0.00    +0.000 NA
ATOM      6  C   UNL     1       4.805   4.619  18.859  0.00  0.00    +0.000 A 
ENDROOT
BRANCH   4   7
ATOM      7  C   UNL     1       2.270   7.321  19.481  0.00  0.00    +0.000 A 
ATOM      8  C   UNL     1       1.561   7.792  20.595  0.00  0.00    +0.000 A 
ATOM      9  C   UNL     1       0.846   8.999  20.514  0.00  0.00    +0.000 A 
ATOM     10  C   UNL     1       0.853   9.772  19.330  0.00  0.00    +0.000 A 
ATOM     11  C   UNL     1       1.605   9.302  18.241  0.00  0.00    +0.000 A 
ATOM     12  C   UNL     1       2.291   8.099  18.316  0.00  0.00    +0.000 A 
BRANCH  10  13
ATOM     13  C   UNL     1       0.069  11.046  19.253  0.00  0.00    +0.000 C 
ATOM     14  O   UNL     1      -0.951  11.143  19.923  0.00  0.00    +0.000 OA
ATOM     15  N   UNL     1       0.462  12.097  18.465  0.00  0.00    +0.000 N 
ATOM     16  H   UNL     1       1.324  12.049  17.912  0.00  0.00    +0.000 HD
BRANCH  15  17
ATOM     17  C   UNL     1      -0.258  13.353  18.394  0.00  0.00    +0.000 C 
BRANCH  17  18
ATOM     18  C   UNL     1       0.341  14.491  19.263  0.00  0.00    +0.000 C 
ATOM     19  C   UNL     1       1.844  14.659  19.162  0.00  0.00    +0.000 C 
ATOM     20  C   UNL     1       2.354  13.742  20.255  0.00  0.00    +0.000 C 
ATOM     21  N   UNL     1       1.428  13.914  21.375  0.00  0.00    +0.000 NA
ATOM     22  C   UNL     1       0.137  14.310  20.778  0.00  0.00    +0.000 C 
ATOM     23  H   UNL     1       1.776  14.729  21.938  0.00  0.00    +0.000 HD
ENDBRANCH  17  18
ENDBRANCH  15  17
ENDBRANCH  10  13
ENDBRANCH   4   7
BRANCH   1  24
ATOM     24  N   UNL     1       4.851   2.279  19.652  0.00  0.00    +0.000 N 
ATOM     25  H   UNL     1       4.547   1.550  18.988  0.00  0.00    +0.000 HD
ATOM     26  H   UNL     1       5.609   2.065  20.313  0.00  0.00    +0.000 HD
ENDBRANCH   1  24
BRANCH   6  27
ATOM     27  O   UNL     1       5.975   4.448  18.204  0.00  0.00    +0.000 OA
BRANCH  27  28
ATOM     28  C   UNL     1       6.157   4.377  16.859  0.00  0.00    +0.000 A 
ATOM     29  C   UNL     1       5.224   3.637  16.099  0.00  0.00    +0.000 A 
ATOM     30  C   UNL     1       5.332   3.565  14.695  0.00  0.00    +0.000 A 
ATOM     31  C   UNL     1       6.372   4.262  14.088  0.00  0.00    +0.000 A 
ATOM     32  C   UNL     1       6.701   4.399  12.757  0.00  0.00    +0.000 A 
ATOM     33  C   UNL     1       7.819   5.226  12.737  0.00  0.00    +0.000 A 
ATOM     34  N   UNL     1       8.169   5.578  13.996  0.00  0.00    +0.000 N 
ATOM     35  C   UNL     1       7.280   4.984  14.813  0.00  0.00    +0.000 A 
ATOM     36  C   UNL     1       7.214   5.061  16.207  0.00  0.00    +0.000 A 
ATOM     37  H   UNL     1       8.965   6.195  14.270  0.00  0.00    +0.000 HD
ENDBRANCH  27  28
ENDBRANCH   6  27
TORSDOF 7
ENDMDL
MODEL 2
REMARK VINA RESULT:      -8.9      3.411     11.290
REMARK  Name = 
REMARK  7 active torsions:
REMARK  status: ('A' for Active; 'I' for Inactive)
REMARK    1  A    between atoms: N_1  and  C_2
REMARK    2  A    between atoms: C_5  and  C_6
REMARK    3  A    between atoms: C_9  and  C_10
REMARK    4  A    between atoms: N_12  and  C_13
REMARK    5  A    between atoms: C_13  and  C_14
REMARK    6  A    between atoms: C_22  and  O_23
REMARK    7  A    between atoms: O_23  and  C_24
REMARK                            x       y       z     vdW  Elec       q    Type
REMARK                         _______ _______ _______ _____ _____    ______ ____
ROOT
ATOM      1  C   UNL     1      -0.136  13.595  18.909  0.00  0.00    +0.000 A 
ATOM      2  N   UNL     1       1.166  13.399  18.593  0.00  0.00    +0.000 NA
ATOM      3  C   UNL     1       1.706  12.162  18.563  0.00  0.00    +0.000 A 
ATOM      4  C   UNL     1       0.915  11.040  18.848  0.00  0.00    +0.000 A 
ATOM      5  N   UNL     1      -0.390  11.234  19.191  0.00  0.00    +0.000 NA
ATOM      6  C   UNL     1      -0.941  12.485  19.224  0.00  0.00    +0.000 A 
ENDROOT
BRANCH   4   7
ATOM      7  C   UNL     1       1.523   9.681  18.802  0.00  0.00    +0.000 A 
ATOM      8  C   UNL     1       2.194   9.213  17.663  0.00  0.00    +0.000 A 
ATOM      9  C   UNL     1       2.699   7.902  17.634  0.00  0.00    +0.000 A 
ATOM     10  C   UNL     1       2.573   7.048  18.754  0.00  0.00    +0.000 A 
ATOM     11  C   UNL     1       1.936   7.552  19.900  0.00  0.00    +0.000 A 
ATOM     12  C   UNL     1       1.418   8.838  19.917  0.00  0.00    +0.000 A 
BRANCH  10  13
ATOM     13  C   UNL     1       3.100   5.647  18.701  0.00  0.00    +0.000 C 
ATOM     14  O   UNL     1       3.214   5.109  17.606  0.00  0.00    +0.000 OA
ATOM     15  N   UNL     1       3.459   4.959  19.831  0.00  0.00    +0.000 N 
ATOM     16  H   UNL     1       3.394   5.395  20.757  0.00  0.00    +0.000 HD
BRANCH  15  17
ATOM     17  C   UNL     1       4.001   3.615  19.808  0.00  0.00    +0.000 C 
BRANCH  17  18
ATOM     18  C   UNL     1       3.013   2.513  20.277  0.00  0.00    +0.000 C 
ATOM     19  C   UNL     1       2.074   1.989  19.208  0.00  0.00    +0.000 C 
ATOM     20  C   UNL     1       0.883   2.917  19.332  0.00  0.00    +0.000 C 
ATOM     21  N   UNL     1       0.701   3.133  20.768  0.00  0.00    +0.000 NA
ATOM     22  C   UNL     1       2.035   2.960  21.377  0.00  0.00    +0.000 C 
ATOM     23  H   UNL     1       0.092   2.353  21.120  0.00  0.00    +0.000 HD
ENDBRANCH  17  18
ENDBRANCH  15  17
ENDBRANCH  10  13
ENDBRANCH   4   7
BRANCH   1  24
ATOM     24  N   UNL     1      -0.642  14.916  18.898  0.00  0.00    +0.000 N 
ATOM     25  H   UNL     1      -0.244  15.607  18.243  0.00  0.00    +0.000 HD
ATOM     26  H   UNL     1      -1.424  15.199  19.504  0.00  0.00    +0.000 HD
ENDBRANCH   1  24
BRANCH   6  27
ATOM     27  O   UNL     1      -2.232  12.664  19.581  0.00  0.00    +0.000 OA
BRANCH  27  28
ATOM     28  C   UNL     1      -2.751  12.598  20.835  0.00  0.00    +0.000 A 
ATOM     29  C   UNL     1      -1.853  12.535  21.924  0.00  0.00    +0.000 A 
ATOM     30  C   UNL     1      -2.330  12.511  23.251  0.00  0.00    +0.000 A 
ATOM     31  C   UNL     1      -3.706  12.574  23.448  0.00  0.00    +0.000 A 
ATOM     32  C   UNL     1      -4.444  12.602  24.611  0.00  0.00    +0.000 A 
ATOM     33  C   UNL     1      -5.771  12.691  24.204  0.00  0.00    +0.000 A 
ATOM     34  N   UNL     1      -5.850  12.711  22.853  0.00  0.00    +0.000 N 
ATOM     35  C   UNL     1      -4.584  12.639  22.401  0.00  0.00    +0.000 A 
ATOM     36  C   UNL     1      -4.148  12.643  21.074  0.00  0.00    +0.000 A 
ATOM     37  H   UNL     1      -6.721  12.778  22.283  0.00  0.00    +0.000 HD
ENDBRANCH  27  28
ENDBRANCH   6  27
TORSDOF 7
ENDMDL
MODEL 3
REMARK VINA RESULT:      -8.9      1.877      2.952
REMARK  Name = 
REMARK  7 active torsions:
REMARK  status: ('A' for Active; 'I' for Inactive)
REMARK    1  A    between atoms: N_1  and  C_2
REMARK    2  A    between atoms: C_5  and  C_6
REMARK    3  A    between atoms: C_9  and  C_10
REMARK    4  A    between atoms: N_12  and  C_13
REMARK    5  A    between atoms: C_13  and  C_14
REMARK    6  A    between atoms: C_22  and  O_23
REMARK    7  A    between atoms: O_23  and  C_24
REMARK                            x       y       z     vdW  Elec       q    Type
REMARK                         _______ _______ _______ _____ _____    ______ ____
ROOT
ATOM      1  C   UNL     1       4.358   3.135  19.717  0.00  0.00    +0.000 A 
ATOM      2  N   UNL     1       3.206   3.338  20.399  0.00  0.00    +0.000 NA
ATOM      3  C   UNL     1       2.577   4.532  20.382  0.00  0.00    +0.000 A 
ATOM      4  C   UNL     1       3.104   5.596  19.637  0.00  0.00    +0.000 A 
ATOM      5  N   UNL     1       4.276   5.405  18.968  0.00  0.00    +0.000 NA
ATOM      6  C   UNL     1       4.917   4.197  18.983  0.00  0.00    +0.000 A 
ENDROOT
BRANCH   4   7
ATOM      7  C   UNL     1       2.394   6.906  19.620  0.00  0.00    +0.000 A 
ATOM      8  C   UNL     1       1.683   7.372  20.736  0.00  0.00    +0.000 A 
ATOM      9  C   UNL     1       0.974   8.582  20.663  0.00  0.00    +0.000 A 
ATOM     10  C   UNL     1       0.989   9.364  19.484  0.00  0.00    +0.000 A 
ATOM     11  C   UNL     1       1.743   8.900  18.394  0.00  0.00    +0.000 A 
ATOM     12  C   UNL     1       2.423   7.694  18.462  0.00  0.00    +0.000 A 
BRANCH  10  13
ATOM     13  C   UNL     1       0.211  10.643  19.415  0.00  0.00    +0.000 C 
ATOM     14  O   UNL     1       0.826  11.701  19.464  0.00  0.00    +0.000 OA
ATOM     15  N   UNL     1      -1.154  10.661  19.293  0.00  0.00    +0.000 N 
ATOM     16  H   UNL     1      -1.689   9.788  19.227  0.00  0.00    +0.000 HD
BRANCH  15  17
ATOM     17  C   UNL     1      -1.930  11.881  19.192  0.00  0.00    +0.000 C 
BRANCH  17  18
ATOM     18  C   UNL     1      -2.883  11.940  17.969  0.00  0.00    +0.000 C 
ATOM     19  C   UNL     1      -4.230  11.274  18.165  0.00  0.00    +0.000 C 
ATOM     20  C   UNL     1      -3.965   9.852  17.715  0.00  0.00    +0.000 C 
ATOM     21  N   UNL     1      -3.097   9.967  16.543  0.00  0.00    +0.000 NA
ATOM     22  C   UNL     1      -2.351  11.230  16.712  0.00  0.00    +0.000 C 
ATOM     23  H   UNL     1      -3.723  10.082  15.708  0.00  0.00    +0.000 HD
ENDBRANCH  17  18
ENDBRANCH  15  17
ENDBRANCH  10  13
ENDBRANCH   4   7
BRANCH   1  24
ATOM     24  N   UNL     1       4.951   1.851  19.760  0.00  0.00    +0.000 N 
ATOM     25  H   UNL     1       4.365   1.028  19.970  0.00  0.00    +0.000 HD
ATOM     26  H   UNL     1       5.948   1.711  19.551  0.00  0.00    +0.000 HD
ENDBRANCH   1  24
BRANCH   6  27
ATOM     27  O   UNL     1       6.088   4.025  18.329  0.00  0.00    +0.000 OA
BRANCH  27  28
ATOM     28  C   UNL     1       6.347   4.316  17.027  0.00  0.00    +0.000 A 
ATOM     29  C   UNL     1       7.140   5.451  16.744  0.00  0.00    +0.000 A 
ATOM     30  C   UNL     1       7.481   5.779  15.416  0.00  0.00    +0.000 A 
ATOM     31  C   UNL     1       7.031   4.937  14.403  0.00  0.00    +0.000 A 
ATOM     32  C   UNL     1       7.233   4.987  13.041  0.00  0.00    +0.000 A 
ATOM     33  C   UNL     1       6.569   3.878  12.529  0.00  0.00    +0.000 A 
ATOM     34  N   UNL     1       5.978   3.179  13.526  0.00  0.00    +0.000 N 
ATOM     35  C   UNL     1       6.266   3.834  14.666  0.00  0.00    +0.000 A 
ATOM     36  C   UNL     1       5.891   3.491  15.968  0.00  0.00    +0.000 A 
ATOM     37  H   UNL     1       5.419   2.304  13.425  0.00  0.00    +0.000 HD
ENDBRANCH  27  28
ENDBRANCH   6  27
TORSDOF 7
ENDMDL
MODEL 4
REMARK VINA RESULT:      -8.8      3.607     11.250
REMARK  Name = 
REMARK  7 active torsions:
REMARK  status: ('A' for Active; 'I' for Inactive)
REMARK    1  A    between atoms: N_1  and  C_2
REMARK    2  A    between atoms: C_5  and  C_6
REMARK    3  A    between atoms: C_9  and  C_10
REMARK    4  A    between atoms: N_12  and  C_13
REMARK    5  A    between atoms: C_13  and  C_14
REMARK    6  A    between atoms: C_22  and  O_23
REMARK    7  A    between atoms: O_23  and  C_24
REMARK                            x       y       z     vdW  Elec       q    Type
REMARK                         _______ _______ _______ _____ _____    ______ ____
ROOT
ATOM      1  C   UNL     1      -0.478  13.937  19.334  0.00  0.00    +0.000 A 
ATOM      2  N   UNL     1       0.637  13.704  18.602  0.00  0.00    +0.000 NA
ATOM      3  C   UNL     1       1.190  12.475  18.531  0.00  0.00    +0.000 A 
ATOM      4  C   UNL     1       0.606  11.398  19.213  0.00  0.00    +0.000 A 
ATOM      5  N   UNL     1      -0.501  11.632  19.971  0.00  0.00    +0.000 NA
ATOM      6  C   UNL     1      -1.065  12.876  20.047  0.00  0.00    +0.000 A 
ENDROOT
BRANCH   4   7
ATOM      7  C   UNL     1       1.224  10.046  19.118  0.00  0.00    +0.000 A 
ATOM      8  C   UNL     1       1.879   9.616  17.955  0.00  0.00    +0.000 A 
ATOM      9  C   UNL     1       2.395   8.311  17.880  0.00  0.00    +0.000 A 
ATOM     10  C   UNL     1       2.293   7.424  18.977  0.00  0.00    +0.000 A 
ATOM     11  C   UNL     1       1.671   7.890  20.147  0.00  0.00    +0.000 A 
ATOM     12  C   UNL     1       1.143   9.171  20.210  0.00  0.00    +0.000 A 
BRANCH  10  13
ATOM     13  C   UNL     1       2.829   6.029  18.875  0.00  0.00    +0.000 C 
ATOM     14  O   UNL     1       2.849   5.492  17.774  0.00  0.00    +0.000 OA
ATOM     15  N   UNL     1       3.300   5.347  19.967  0.00  0.00    +0.000 N 
ATOM     16  H   UNL     1       3.315   5.783  20.895  0.00  0.00    +0.000 HD
BRANCH  15  17
ATOM     17  C   UNL     1       3.854   4.009  19.894  0.00  0.00    +0.000 C 
BRANCH  17  18
ATOM     18  C   UNL     1       2.897   2.887  20.378  0.00  0.00    +0.000 C 
ATOM     19  C   UNL     1       2.264   2.058  19.278  0.00  0.00    +0.000 C 
ATOM     20  C   UNL     1       0.992   2.824  18.977  0.00  0.00    +0.000 C 
ATOM     21  N   UNL     1       0.485   3.269  20.275  0.00  0.00    +0.000 NA
ATOM     22  C   UNL     1       1.666   3.390  21.153  0.00  0.00    +0.000 C 
ATOM     23  H   UNL     1      -0.109   2.491  20.655  0.00  0.00    +0.000 HD
ENDBRANCH  17  18
ENDBRANCH  15  17
ENDBRANCH  10  13
ENDBRANCH   4   7
BRANCH   1  24
ATOM     24  N   UNL     1      -1.019  15.245  19.345  0.00  0.00    +0.000 N 
ATOM     25  H   UNL     1      -1.883  15.441  18.818  0.00  0.00    +0.000 HD
ATOM     26  H   UNL     1      -0.589  16.000  19.896  0.00  0.00    +0.000 HD
ENDBRANCH   1  24
BRANCH   6  27
ATOM     27  O   UNL     1      -2.155  13.097  20.816  0.00  0.00    +0.000 OA
BRANCH  27  28
ATOM     28  C   UNL     1      -3.436  12.732  20.544  0.00  0.00    +0.000 A 
ATOM     29  C   UNL     1      -3.741  12.301  19.234  0.00  0.00    +0.000 A 
ATOM     30  C   UNL     1      -5.041  11.866  18.903  0.00  0.00    +0.000 A 
ATOM     31  C   UNL     1      -5.999  11.856  19.912  0.00  0.00    +0.000 A 
ATOM     32  C   UNL     1      -7.318  11.459  19.891  0.00  0.00    +0.000 A 
ATOM     33  C   UNL     1      -7.781  11.648  21.189  0.00  0.00    +0.000 A 
ATOM     34  N   UNL     1      -6.797  12.145  21.974  0.00  0.00    +0.000 N 
ATOM     35  C   UNL     1      -5.713  12.269  21.185  0.00  0.00    +0.000 A 
ATOM     36  C   UNL     1      -4.442  12.725  21.543  0.00  0.00    +0.000 A 
ATOM     37  H   UNL     1      -6.868  12.376  22.989  0.00  0.00    +0.000 HD
ENDBRANCH  27  28
ENDBRANCH   6  27
TORSDOF 7
ENDMDL
MODEL 5
REMARK VINA RESULT:      -8.8      1.055      1.369
REMARK  Name = 
REMARK  7 active torsions:
REMARK  status: ('A' for Active; 'I' for Inactive)
REMARK    1  A    between atoms: N_1  and  C_2
REMARK    2  A    between atoms: C_5  and  C_6
REMARK    3  A    between atoms: C_9  and  C_10
REMARK    4  A    between atoms: N_12  and  C_13
REMARK    5  A    between atoms: C_13  and  C_14
REMARK    6  A    between atoms: C_22  and  O_23
REMARK    7  A    between atoms: O_23  and  C_24
REMARK                            x       y       z     vdW  Elec       q    Type
REMARK                         _______ _______ _______ _____ _____    ______ ____
ROOT
ATOM      1  C   UNL     1       4.290   3.787  19.549  0.00  0.00    +0.000 A 
ATOM      2  N   UNL     1       3.136   4.006  20.223  0.00  0.00    +0.000 NA
ATOM      3  C   UNL     1       2.481   5.183  20.135  0.00  0.00    +0.000 A 
ATOM      4  C   UNL     1       2.982   6.211  19.325  0.00  0.00    +0.000 A 
ATOM      5  N   UNL     1       4.155   6.005  18.664  0.00  0.00    +0.000 NA
ATOM      6  C   UNL     1       4.823   4.815  18.749  0.00  0.00    +0.000 A 
ENDROOT
BRANCH   4   7
ATOM      7  C   UNL     1       2.243   7.501  19.232  0.00  0.00    +0.000 A 
ATOM      8  C   UNL     1       1.608   8.068  20.348  0.00  0.00    +0.000 A 
ATOM      9  C   UNL     1       0.868   9.254  20.208  0.00  0.00    +0.000 A 
ATOM     10  C   UNL     1       0.775   9.912  18.960  0.00  0.00    +0.000 A 
ATOM     11  C   UNL     1       1.455   9.350  17.866  0.00  0.00    +0.000 A 
ATOM     12  C   UNL     1       2.165   8.167  18.002  0.00  0.00    +0.000 A 
BRANCH  10  13
ATOM     13  C   UNL     1      -0.034  11.165  18.823  0.00  0.00    +0.000 C 
ATOM     14  O   UNL     1      -1.133  11.092  18.289  0.00  0.00    +0.000 OA
ATOM     15  N   UNL     1       0.416  12.377  19.280  0.00  0.00    +0.000 N 
ATOM     16  H   UNL     1       1.323  12.460  19.750  0.00  0.00    +0.000 HD
BRANCH  15  17
ATOM     17  C   UNL     1      -0.358  13.600  19.189  0.00  0.00    +0.000 C 
BRANCH  17  18
ATOM     18  C   UNL     1       0.341  14.850  19.787  0.00  0.00    +0.000 C 
ATOM     19  C   UNL     1      -0.587  15.984  20.178  0.00  0.00    +0.000 C 
ATOM     20  C   UNL     1      -0.661  16.803  18.906  0.00  0.00    +0.000 C 
ATOM     21  N   UNL     1       0.695  16.800  18.356  0.00  0.00    +0.000 NA
ATOM     22  C   UNL     1       1.322  15.549  18.831  0.00  0.00    +0.000 C 
ATOM     23  H   UNL     1       1.210  17.598  18.805  0.00  0.00    +0.000 HD
ENDBRANCH  17  18
ENDBRANCH  15  17
ENDBRANCH  10  13
ENDBRANCH   4   7
BRANCH   1  24
ATOM     24  N   UNL     1       4.911   2.521  19.666  0.00  0.00    +0.000 N 
ATOM     25  H   UNL     1       4.429   1.684  19.306  0.00  0.00    +0.000 HD
ATOM     26  H   UNL     1       5.851   2.418  20.073  0.00  0.00    +0.000 HD
ENDBRANCH   1  24
BRANCH   6  27
ATOM     27  O   UNL     1       5.995   4.629  18.101  0.00  0.00    +0.000 OA
BRANCH  27  28
ATOM     28  C   UNL     1       6.174   4.482  16.762  0.00  0.00    +0.000 A 
ATOM     29  C   UNL     1       5.268   3.661  16.055  0.00  0.00    +0.000 A 
ATOM     30  C   UNL     1       5.375   3.506  14.657  0.00  0.00    +0.000 A 
ATOM     31  C   UNL     1       6.384   4.204  14.002  0.00  0.00    +0.000 A 
ATOM     32  C   UNL     1       6.703   4.272  12.663  0.00  0.00    +0.000 A 
ATOM     33  C   UNL     1       7.788   5.139  12.586  0.00  0.00    +0.000 A 
ATOM     34  N   UNL     1       8.128   5.581  13.819  0.00  0.00    +0.000 N 
ATOM     35  C   UNL     1       7.266   5.005  14.676  0.00  0.00    +0.000 A 
ATOM     36  C   UNL     1       7.202   5.165  16.063  0.00  0.00    +0.000 A 
ATOM     37  H   UNL     1       8.901   6.243  14.050  0.00  0.00    +0.000 HD
ENDBRANCH  27  28
ENDBRANCH   6  27
TORSDOF 7
ENDMDL
MODEL 6
REMARK VINA RESULT:      -8.7      2.708      9.617
REMARK  Name = 
REMARK  7 active torsions:
REMARK  status: ('A' for Active; 'I' for Inactive)
REMARK    1  A    between atoms: N_1  and  C_2
REMARK    2  A    between atoms: C_5  and  C_6
REMARK    3  A    between atoms: C_9  and  C_10
REMARK    4  A    between atoms: N_12  and  C_13
REMARK    5  A    between atoms: C_13  and  C_14
REMARK    6  A    between atoms: C_22  and  O_23
REMARK    7  A    between atoms: O_23  and  C_24
REMARK                            x       y       z     vdW  Elec       q    Type
REMARK                         _______ _______ _______ _____ _____    ______ ____
ROOT
ATOM      1  C   UNL     1      -0.541  11.182  22.449  0.00  0.00    +0.000 A 
ATOM      2  N   UNL     1       0.265  10.289  23.071  0.00  0.00    +0.000 NA
ATOM      3  C   UNL     1       0.897   9.313  22.387  0.00  0.00    +0.000 A 
ATOM      4  C   UNL     1       0.739   9.209  20.998  0.00  0.00    +0.000 A 
ATOM      5  N   UNL     1      -0.090  10.089  20.370  0.00  0.00    +0.000 NA
ATOM      6  C   UNL     1      -0.733  11.080  21.059  0.00  0.00    +0.000 A 
ENDROOT
BRANCH   4   7
ATOM      7  C   UNL     1       1.450   8.131  20.256  0.00  0.00    +0.000 A 
ATOM      8  C   UNL     1       1.998   8.351  18.984  0.00  0.00    +0.000 A 
ATOM      9  C   UNL     1       2.606   7.293  18.287  0.00  0.00    +0.000 A 
ATOM     10  C   UNL     1       2.706   6.005  18.862  0.00  0.00    +0.000 A 
ATOM     11  C   UNL     1       2.189   5.818  20.155  0.00  0.00    +0.000 A 
ATOM     12  C   UNL     1       1.569   6.858  20.830  0.00  0.00    +0.000 A 
BRANCH  10  13
ATOM     13  C   UNL     1       3.339   4.882  18.099  0.00  0.00    +0.000 C 
ATOM     14  O   UNL     1       3.000   3.736  18.363  0.00  0.00    +0.000 OA
ATOM     15  N   UNL     1       4.274   5.101  17.120  0.00  0.00    +0.000 N 
ATOM     16  H   UNL     1       4.557   6.053  16.866  0.00  0.00    +0.000 HD
BRANCH  15  17
ATOM     17  C   UNL     1       4.880   4.038  16.344  0.00  0.00    +0.000 C 
BRANCH  17  18
ATOM     18  C   UNL     1       6.432   4.049  16.337  0.00  0.00    +0.000 C 
ATOM     19  C   UNL     1       7.082   4.545  17.613  0.00  0.00    +0.000 C 
ATOM     20  C   UNL     1       7.207   6.034  17.364  0.00  0.00    +0.000 C 
ATOM     21  N   UNL     1       7.594   6.166  15.959  0.00  0.00    +0.000 NA
ATOM     22  C   UNL     1       7.057   4.972  15.276  0.00  0.00    +0.000 C 
ATOM     23  H   UNL     1       8.642   6.102  15.923  0.00  0.00    +0.000 HD
ENDBRANCH  17  18
ENDBRANCH  15  17
ENDBRANCH  10  13
ENDBRANCH   4   7
BRANCH   1  24
ATOM     24  N   UNL     1      -1.154  12.195  23.224  0.00  0.00    +0.000 N 
ATOM     25  H   UNL     1      -0.865  12.327  24.205  0.00  0.00    +0.000 HD
ATOM     26  H   UNL     1      -1.857  12.830  22.822  0.00  0.00    +0.000 HD
ENDBRANCH   1  24
BRANCH   6  27
ATOM     27  O   UNL     1      -1.566  11.937  20.426  0.00  0.00    +0.000 OA
BRANCH  27  28
ATOM     28  C   UNL     1      -2.290  11.693  19.302  0.00  0.00    +0.000 A 
ATOM     29  C   UNL     1      -3.643  12.099  19.280  0.00  0.00    +0.000 A 
ATOM     30  C   UNL     1      -4.433  11.914  18.126  0.00  0.00    +0.000 A 
ATOM     31  C   UNL     1      -3.829  11.343  17.011  0.00  0.00    +0.000 A 
ATOM     32  C   UNL     1      -4.334  11.076  15.757  0.00  0.00    +0.000 A 
ATOM     33  C   UNL     1      -3.275  10.524  15.043  0.00  0.00    +0.000 A 
ATOM     34  N   UNL     1      -2.170  10.447  15.820  0.00  0.00    +0.000 N 
ATOM     35  C   UNL     1      -2.518  10.949  17.020  0.00  0.00    +0.000 A 
ATOM     36  C   UNL     1      -1.713  11.097  18.151  0.00  0.00    +0.000 A 
ATOM     37  H   UNL     1      -1.236  10.079  15.537  0.00  0.00    +0.000 HD
ENDBRANCH  27  28
ENDBRANCH   6  27
TORSDOF 7
ENDMDL
MODEL 7
REMARK VINA RESULT:      -8.7      3.282     10.492
REMARK  Name = 
REMARK  7 active torsions:
REMARK  status: ('A' for Active; 'I' for Inactive)
REMARK    1  A    between atoms: N_1  and  C_2
REMARK    2  A    between atoms: C_5  and  C_6
REMARK    3  A    between atoms: C_9  and  C_10
REMARK    4  A    between atoms: N_12  and  C_13
REMARK    5  A    between atoms: C_13  and  C_14
REMARK    6  A    between atoms: C_22  and  O_23
REMARK    7  A    between atoms: O_23  and  C_24
REMARK                            x       y       z     vdW  Elec       q    Type
REMARK                         _______ _______ _______ _____ _____    ______ ____
ROOT
ATOM      1  C   UNL     1      -0.944  11.672  22.107  0.00  0.00    +0.000 A 
ATOM      2  N   UNL     1      -0.289  10.773  22.880  0.00  0.00    +0.000 NA
ATOM      3  C   UNL     1       0.395   9.743  22.338  0.00  0.00    +0.000 A 
ATOM      4  C   UNL     1       0.452   9.588  20.947  0.00  0.00    +0.000 A 
ATOM      5  N   UNL     1      -0.225  10.475  20.165  0.00  0.00    +0.000 NA
ATOM      6  C   UNL     1      -0.920  11.521  20.708  0.00  0.00    +0.000 A 
ENDROOT
BRANCH   4   7
ATOM      7  C   UNL     1       1.218   8.451  20.364  0.00  0.00    +0.000 A 
ATOM      8  C   UNL     1       1.366   7.236  21.048  0.00  0.00    +0.000 A 
ATOM      9  C   UNL     1       2.148   6.208  20.494  0.00  0.00    +0.000 A 
ATOM     10  C   UNL     1       2.768   6.364  19.233  0.00  0.00    +0.000 A 
ATOM     11  C   UNL     1       2.571   7.573  18.546  0.00  0.00    +0.000 A 
ATOM     12  C   UNL     1       1.818   8.594  19.105  0.00  0.00    +0.000 A 
BRANCH  10  13
ATOM     13  C   UNL     1       3.615   5.266  18.665  0.00  0.00    +0.000 C 
ATOM     14  O   UNL     1       4.316   4.617  19.431  0.00  0.00    +0.000 OA
ATOM     15  N   UNL     1       3.621   4.968  17.327  0.00  0.00    +0.000 N 
ATOM     16  H   UNL     1       3.026   5.482  16.669  0.00  0.00    +0.000 HD
BRANCH  15  17
ATOM     17  C   UNL     1       4.405   3.892  16.753  0.00  0.00    +0.000 C 
BRANCH  17  18
ATOM     18  C   UNL     1       5.618   4.360  15.905  0.00  0.00    +0.000 C 
ATOM     19  C   UNL     1       6.946   4.384  16.633  0.00  0.00    +0.000 C 
ATOM     20  C   UNL     1       6.983   5.787  17.206  0.00  0.00    +0.000 C 
ATOM     21  N   UNL     1       6.427   6.651  16.165  0.00  0.00    +0.000 NA
ATOM     22  C   UNL     1       5.509   5.802  15.379  0.00  0.00    +0.000 C 
ATOM     23  H   UNL     1       7.222   6.920  15.534  0.00  0.00    +0.000 HD
ENDBRANCH  17  18
ENDBRANCH  15  17
ENDBRANCH  10  13
ENDBRANCH   4   7
BRANCH   1  24
ATOM     24  N   UNL     1      -1.620  12.741  22.740  0.00  0.00    +0.000 N 
ATOM     25  H   UNL     1      -2.507  13.087  22.343  0.00  0.00    +0.000 HD
ATOM     26  H   UNL     1      -1.267  13.162  23.610  0.00  0.00    +0.000 HD
ENDBRANCH   1  24
BRANCH   6  27
ATOM     27  O   UNL     1      -1.601  12.384  19.922  0.00  0.00    +0.000 OA
BRANCH  27  28
ATOM     28  C   UNL     1      -2.841  12.207  19.395  0.00  0.00    +0.000 A 
ATOM     29  C   UNL     1      -2.948  11.531  18.159  0.00  0.00    +0.000 A 
ATOM     30  C   UNL     1      -4.211  11.276  17.584  0.00  0.00    +0.000 A 
ATOM     31  C   UNL     1      -5.339  11.692  18.284  0.00  0.00    +0.000 A 
ATOM     32  C   UNL     1      -6.677  11.553  17.990  0.00  0.00    +0.000 A 
ATOM     33  C   UNL     1      -7.353  12.137  19.056  0.00  0.00    +0.000 A 
ATOM     34  N   UNL     1      -6.473  12.621  19.964  0.00  0.00    +0.000 N 
ATOM     35  C   UNL     1      -5.247  12.345  19.483  0.00  0.00    +0.000 A 
ATOM     36  C   UNL     1      -4.012  12.632  20.072  0.00  0.00    +0.000 A 
ATOM     37  H   UNL     1      -6.707  13.103  20.859  0.00  0.00    +0.000 HD
ENDBRANCH  27  28
ENDBRANCH   6  27
TORSDOF 7
ENDMDL
MODEL 8
REMARK VINA RESULT:      -8.7      1.773      2.252
REMARK  Name = 
REMARK  7 active torsions:
REMARK  status: ('A' for Active; 'I' for Inactive)
REMARK    1  A    between atoms: N_1  and  C_2
REMARK    2  A    between atoms: C_5  and  C_6
REMARK    3  A    between atoms: C_9  and  C_10
REMARK    4  A    between atoms: N_12  and  C_13
REMARK    5  A    between atoms: C_13  and  C_14
REMARK    6  A    between atoms: C_22  and  O_23
REMARK    7  A    between atoms: O_23  and  C_24
REMARK                            x       y       z     vdW  Elec       q    Type
REMARK                         _______ _______ _______ _____ _____    ______ ____
ROOT
ATOM      1  C   UNL     1       4.227   3.487  19.615  0.00  0.00    +0.000 A 
ATOM      2  N   UNL     1       3.072   3.623  20.309  0.00  0.00    +0.000 NA
ATOM      3  C   UNL     1       2.414   4.800  20.360  0.00  0.00    +0.000 A 
ATOM      4  C   UNL     1       2.914   5.918  19.678  0.00  0.00    +0.000 A 
ATOM      5  N   UNL     1       4.089   5.795  18.999  0.00  0.00    +0.000 NA
ATOM      6  C   UNL     1       4.760   4.604  18.944  0.00  0.00    +0.000 A 
ENDROOT
BRANCH   4   7
ATOM      7  C   UNL     1       2.173   7.208  19.738  0.00  0.00    +0.000 A 
ATOM      8  C   UNL     1       1.457   7.594  20.882  0.00  0.00    +0.000 A 
ATOM      9  C   UNL     1       0.719   8.790  20.879  0.00  0.00    +0.000 A 
ATOM     10  C   UNL     1       0.707   9.636  19.746  0.00  0.00    +0.000 A 
ATOM     11  C   UNL     1       1.465   9.251  18.628  0.00  0.00    +0.000 A 
ATOM     12  C   UNL     1       2.175   8.060  18.625  0.00  0.00    +0.000 A 
BRANCH  10  13
ATOM     13  C   UNL     1      -0.102  10.897  19.751  0.00  0.00    +0.000 C 
ATOM     14  O   UNL     1      -0.172  11.547  18.716  0.00  0.00    +0.000 OA
ATOM     15  N   UNL     1      -0.763  11.335  20.870  0.00  0.00    +0.000 N 
ATOM     16  H   UNL     1      -0.737  10.796  21.742  0.00  0.00    +0.000 HD
BRANCH  15  17
ATOM     17  C   UNL     1      -1.577  12.533  20.897  0.00  0.00    +0.000 C 
BRANCH  17  18
ATOM     18  C   UNL     1      -2.195  12.862  22.282  0.00  0.00    +0.000 C 
ATOM     19  C   UNL     1      -3.702  12.716  22.369  0.00  0.00    +0.000 C 
ATOM     20  C   UNL     1      -4.190  14.096  21.977  0.00  0.00    +0.000 C 
ATOM     21  N   UNL     1      -3.264  15.035  22.610  0.00  0.00    +0.000 NA
ATOM     22  C   UNL     1      -1.983  14.314  22.745  0.00  0.00    +0.000 C 
ATOM     23  H   UNL     1      -3.626  15.216  23.579  0.00  0.00    +0.000 HD
ENDBRANCH  17  18
ENDBRANCH  15  17
ENDBRANCH  10  13
ENDBRANCH   4   7
BRANCH   1  24
ATOM     24  N   UNL     1       4.851   2.218  19.583  0.00  0.00    +0.000 N 
ATOM     25  H   UNL     1       5.788   2.124  19.162  0.00  0.00    +0.000 HD
ATOM     26  H   UNL     1       4.408   1.389  20.003  0.00  0.00    +0.000 HD
ENDBRANCH   1  24
BRANCH   6  27
ATOM     27  O   UNL     1       5.933   4.499  18.281  0.00  0.00    +0.000 OA
BRANCH  27  28
ATOM     28  C   UNL     1       6.106   4.413  16.935  0.00  0.00    +0.000 A 
ATOM     29  C   UNL     1       5.158   3.680  16.187  0.00  0.00    +0.000 A 
ATOM     30  C   UNL     1       5.259   3.593  14.783  0.00  0.00    +0.000 A 
ATOM     31  C   UNL     1       6.306   4.269  14.165  0.00  0.00    +0.000 A 
ATOM     32  C   UNL     1       6.631   4.389  12.831  0.00  0.00    +0.000 A 
ATOM     33  C   UNL     1       7.762   5.199  12.798  0.00  0.00    +0.000 A 
ATOM     34  N   UNL     1       8.123   5.557  14.052  0.00  0.00    +0.000 N 
ATOM     35  C   UNL     1       7.229   4.984  14.879  0.00  0.00    +0.000 A 
ATOM     36  C   UNL     1       7.171   5.074  16.272  0.00  0.00    +0.000 A 
ATOM     37  H   UNL     1       8.929   6.163  14.317  0.00  0.00    +0.000 HD
ENDBRANCH  27  28
ENDBRANCH   6  27
TORSDOF 7
ENDMDL
MODEL 9
REMARK VINA RESULT:      -8.6      3.733     11.477
REMARK  Name = 
REMARK  7 active torsions:
REMARK  status: ('A' for Active; 'I' for Inactive)
REMARK    1  A    between atoms: N_1  and  C_2
REMARK    2  A    between atoms: C_5  and  C_6
REMARK    3  A    between atoms: C_9  and  C_10
REMARK    4  A    between atoms: N_12  and  C_13
REMARK    5  A    between atoms: C_13  and  C_14
REMARK    6  A    between atoms: C_22  and  O_23
REMARK    7  A    between atoms: O_23  and  C_24
REMARK                            x       y       z     vdW  Elec       q    Type
REMARK                         _______ _______ _______ _____ _____    ______ ____
ROOT
ATOM      1  C   UNL     1      -0.725  14.041  19.566  0.00  0.00    +0.000 A 
ATOM      2  N   UNL     1       0.273  13.748  18.699  0.00  0.00    +0.000 NA
ATOM      3  C   UNL     1       0.804  12.509  18.626  0.00  0.00    +0.000 A 
ATOM      4  C   UNL     1       0.318  11.484  19.449  0.00  0.00    +0.000 A 
ATOM      5  N   UNL     1      -0.669  11.778  20.342  0.00  0.00    +0.000 NA
ATOM      6  C   UNL     1      -1.210  13.032  20.420  0.00  0.00    +0.000 A 
ENDROOT
BRANCH   4   7
ATOM      7  C   UNL     1       0.909  10.120  19.352  0.00  0.00    +0.000 A 
ATOM      8  C   UNL     1       0.903   9.236  20.440  0.00  0.00    +0.000 A 
ATOM      9  C   UNL     1       1.526   7.981  20.330  0.00  0.00    +0.000 A 
ATOM     10  C   UNL     1       2.137   7.575  19.121  0.00  0.00    +0.000 A 
ATOM     11  C   UNL     1       2.092   8.459  18.030  0.00  0.00    +0.000 A 
ATOM     12  C   UNL     1       1.498   9.706  18.149  0.00  0.00    +0.000 A 
BRANCH  10  13
ATOM     13  C   UNL     1       2.814   6.242  19.025  0.00  0.00    +0.000 C 
ATOM     14  O   UNL     1       3.083   5.805  17.914  0.00  0.00    +0.000 OA
ATOM     15  N   UNL     1       3.142   5.509  20.137  0.00  0.00    +0.000 N 
ATOM     16  H   UNL     1       2.947   5.864  21.079  0.00  0.00    +0.000 HD
BRANCH  15  17
ATOM     17  C   UNL     1       3.824   4.232  20.077  0.00  0.00    +0.000 C 
BRANCH  17  18
ATOM     18  C   UNL     1       2.932   3.007  20.413  0.00  0.00    +0.000 C 
ATOM     19  C   UNL     1       2.395   2.250  19.214  0.00  0.00    +0.000 C 
ATOM     20  C   UNL     1       1.083   2.957  18.939  0.00  0.00    +0.000 C 
ATOM     21  N   UNL     1       0.504   3.237  20.254  0.00  0.00    +0.000 NA
ATOM     22  C   UNL     1       1.645   3.349  21.184  0.00  0.00    +0.000 C 
ATOM     23  H   UNL     1      -0.046   2.388  20.533  0.00  0.00    +0.000 HD
ENDBRANCH  17  18
ENDBRANCH  15  17
ENDBRANCH  10  13
ENDBRANCH   4   7
BRANCH   1  24
ATOM     24  N   UNL     1      -1.252  15.354  19.573  0.00  0.00    +0.000 N 
ATOM     25  H   UNL     1      -1.095  15.967  18.759  0.00  0.00    +0.000 HD
ATOM     26  H   UNL     1      -1.820  15.702  20.356  0.00  0.00    +0.000 HD
ENDBRANCH   1  24
BRANCH   6  27
ATOM     27  O   UNL     1      -2.178  13.315  21.320  0.00  0.00    +0.000 OA
BRANCH  27  28
ATOM     28  C   UNL     1      -3.498  13.006  21.226  0.00  0.00    +0.000 A 
ATOM     29  C   UNL     1      -4.015  12.673  19.955  0.00  0.00    +0.000 A 
ATOM     30  C   UNL     1      -5.366  12.300  19.800  0.00  0.00    +0.000 A 
ATOM     31  C   UNL     1      -6.160  12.250  20.942  0.00  0.00    +0.000 A 
ATOM     32  C   UNL     1      -7.481  11.893  21.099  0.00  0.00    +0.000 A 
ATOM     33  C   UNL     1      -7.735  12.007  22.462  0.00  0.00    +0.000 A 
ATOM     34  N   UNL     1      -6.624  12.421  23.116  0.00  0.00    +0.000 N 
ATOM     35  C   UNL     1      -5.669  12.567  22.179  0.00  0.00    +0.000 A 
ATOM     36  C   UNL     1      -4.341  12.961  22.365  0.00  0.00    +0.000 A 
ATOM     37  H   UNL     1      -6.532  12.585  24.142  0.00  0.00    +0.000 HD
ENDBRANCH  27  28
ENDBRANCH   6  27
TORSDOF 7
ENDMDL
