MODEL 1
REMARK VINA RESULT:      -9.4      0.000      0.000
REMARK  Name = 
REMARK  5 active torsions:
REMARK  status: ('A' for Active; 'I' for Inactive)
REMARK    1  A    between atoms: C_1  and  C_2
REMARK    2  A    between atoms: C_4  and  C_5
REMARK    3  A    between atoms: N_7  and  C_8
REMARK    4  A    between atoms: C_12  and  S_13
REMARK    5  A    between atoms: S_13  and  N_16
REMARK                            x       y       z     vdW  Elec       q    Type
REMARK                         _______ _______ _______ _____ _____    ______ ____
ROOT
ATOM      1  C   UNL     1       2.362   7.435  18.626  0.00  0.00    +0.000 C 
ATOM      2  O   UNL     1       1.843   8.197  17.813  0.00  0.00    +0.000 OA
ATOM      3  N   UNL     1       2.171   7.524  20.005  0.00  0.00    +0.000 N 
ATOM      4  H   UNL     1       2.753   6.973  20.624  0.00  0.00    +0.000 HD
ENDROOT
BRANCH   1   8
ATOM      5  C   UNL     1       6.800   6.080  16.727  0.00  0.00    +0.000 C 
ATOM      6  C   UNL     1       5.419   5.760  17.214  0.00  0.00    +0.000 A 
ATOM      7  C   UNL     1       4.570   6.749  17.682  0.00  0.00    +0.000 A 
ATOM      8  C   UNL     1       3.281   6.383  18.086  0.00  0.00    +0.000 A 
ATOM      9  C   UNL     1       2.882   5.005  18.052  0.00  0.00    +0.000 A 
ATOM     10  C   UNL     1       1.618   4.466  18.442  0.00  0.00    +0.000 A 
ATOM     11  C   UNL     1       1.341   3.095  18.373  0.00  0.00    +0.000 A 
ATOM     12  C   UNL     1       2.309   2.229  17.911  0.00  0.00    +0.000 A 
ATOM     13  C   UNL     1       3.546   2.737  17.516  0.00  0.00    +0.000 A 
ATOM     14  C   UNL     1       3.841   4.092  17.573  0.00  0.00    +0.000 A 
ATOM     15  N   UNL     1       5.061   4.462  17.159  0.00  0.00    +0.000 NA
ENDBRANCH   1   8
BRANCH   3  16
ATOM     16  C   UNL     1       1.324   8.492  20.625  0.00  0.00    +0.000 A 
ATOM     17  C   UNL     1       1.011   8.452  21.989  0.00  0.00    +0.000 A 
ATOM     18  C   UNL     1       0.197   9.417  22.579  0.00  0.00    +0.000 A 
ATOM     19  C   UNL     1      -0.341  10.443  21.811  0.00  0.00    +0.000 A 
ATOM     20  C   UNL     1      -0.086  10.474  20.438  0.00  0.00    +0.000 A 
ATOM     21  C   UNL     1       0.776   9.523  19.852  0.00  0.00    +0.000 A 
BRANCH  20  22
ATOM     22  S   UNL     1      -0.782  11.803  19.462  0.00  0.00    +0.000 S 
ATOM     23  O   UNL     1      -1.359  12.757  20.386  0.00  0.00    +0.000 OA
ATOM     24  O   UNL     1       0.237  12.205  18.513  0.00  0.00    +0.000 OA
BRANCH  22  25
ATOM     25  N   UNL     1      -2.071  11.075  18.584  0.00  0.00    +0.000 NA
ATOM     26  C   UNL     1      -3.363  11.804  18.643  0.00  0.00    +0.000 C 
ATOM     27  C   UNL     1      -4.476  11.134  17.850  0.00  0.00    +0.000 C 
ATOM     28  C   UNL     1      -4.026  10.745  16.454  0.00  0.00    +0.000 C 
ATOM     29  C   UNL     1      -2.842   9.802  16.555  0.00  0.00    +0.000 C 
ATOM     30  C   UNL     1      -1.675  10.438  17.301  0.00  0.00    +0.000 C 
ENDBRANCH  22  25
ENDBRANCH  20  22
ENDBRANCH   3  16
TORSDOF 4
ENDMDL
MODEL 2
REMARK VINA RESULT:      -9.1      1.003      1.376
REMARK  Name = 
REMARK  5 active torsions:
REMARK  status: ('A' for Active; 'I' for Inactive)
REMARK    1  A    between atoms: C_1  and  C_2
REMARK    2  A    between atoms: C_4  and  C_5
REMARK    3  A    between atoms: N_7  and  C_8
REMARK    4  A    between atoms: C_12  and  S_13
REMARK    5  A    between atoms: S_13  and  N_16
REMARK                            x       y       z     vdW  Elec       q    Type
REMARK                         _______ _______ _______ _____ _____    ______ ____
ROOT
ATOM      1  C   UNL     1       2.362   7.136  19.270  0.00  0.00    +0.000 C 
ATOM      2  O   UNL     1       2.016   7.832  18.317  0.00  0.00    +0.000 OA
ATOM      3  N   UNL     1       2.053   7.429  20.598  0.00  0.00    +0.000 N 
ATOM      4  H   UNL     1       2.505   6.909  21.340  0.00  0.00    +0.000 HD
ENDROOT
BRANCH   1   8
ATOM      5  C   UNL     1       6.751   5.087  17.977  0.00  0.00    +0.000 C 
ATOM      6  C   UNL     1       5.312   4.980  18.382  0.00  0.00    +0.000 A 
ATOM      7  C   UNL     1       4.544   6.105  18.629  0.00  0.00    +0.000 A 
ATOM      8  C   UNL     1       3.198   5.931  18.967  0.00  0.00    +0.000 A 
ATOM      9  C   UNL     1       2.655   4.609  19.094  0.00  0.00    +0.000 A 
ATOM     10  C   UNL     1       1.314   4.260  19.445  0.00  0.00    +0.000 A 
ATOM     11  C   UNL     1       0.896   2.927  19.548  0.00  0.00    +0.000 A 
ATOM     12  C   UNL     1       1.795   1.912  19.300  0.00  0.00    +0.000 A 
ATOM     13  C   UNL     1       3.104   2.232  18.946  0.00  0.00    +0.000 A 
ATOM     14  C   UNL     1       3.541   3.546  18.835  0.00  0.00    +0.000 A 
ATOM     15  N   UNL     1       4.820   3.729  18.481  0.00  0.00    +0.000 NA
ENDBRANCH   1   8
BRANCH   3  16
ATOM     16  C   UNL     1       1.271   8.556  20.998  0.00  0.00    +0.000 A 
ATOM     17  C   UNL     1       0.691   8.653  22.269  0.00  0.00    +0.000 A 
ATOM     18  C   UNL     1      -0.054   9.769  22.647  0.00  0.00    +0.000 A 
ATOM     19  C   UNL     1      -0.252  10.813  21.751  0.00  0.00    +0.000 A 
ATOM     20  C   UNL     1       0.272  10.715  20.460  0.00  0.00    +0.000 A 
ATOM     21  C   UNL     1       1.065   9.606  20.096  0.00  0.00    +0.000 A 
BRANCH  20  22
ATOM     22  S   UNL     1       0.013  12.070  19.318  0.00  0.00    +0.000 S 
ATOM     23  O   UNL     1      -0.391  13.219  20.102  0.00  0.00    +0.000 OA
ATOM     24  O   UNL     1       1.179  12.124  18.460  0.00  0.00    +0.000 OA
BRANCH  22  25
ATOM     25  N   UNL     1      -1.333  11.585  18.361  0.00  0.00    +0.000 NA
ATOM     26  C   UNL     1      -1.159  10.299  17.639  0.00  0.00    +0.000 C 
ATOM     27  C   UNL     1      -2.371   9.901  16.808  0.00  0.00    +0.000 C 
ATOM     28  C   UNL     1      -3.665  10.023  17.593  0.00  0.00    +0.000 C 
ATOM     29  C   UNL     1      -3.828  11.454  18.068  0.00  0.00    +0.000 C 
ATOM     30  C   UNL     1      -2.663  11.896  18.945  0.00  0.00    +0.000 C 
ENDBRANCH  22  25
ENDBRANCH  20  22
ENDBRANCH   3  16
TORSDOF 4
ENDMDL
MODEL 3
REMARK VINA RESULT:      -9.1      1.915      3.282
REMARK  Name = 
REMARK  5 active torsions:
REMARK  status: ('A' for Active; 'I' for Inactive)
REMARK    1  A    between atoms: C_1  and  C_2
REMARK    2  A    between atoms: C_4  and  C_5
REMARK    3  A    between atoms: N_7  and  C_8
REMARK    4  A    between atoms: C_12  and  S_13
REMARK    5  A    between atoms: S_13  and  N_16
REMARK                            x       y       z     vdW  Elec       q    Type
REMARK                         _______ _______ _______ _____ _____    ______ ____
ROOT
ATOM      1  C   UNL     1       2.370   7.637  18.583  0.00  0.00    +0.000 C 
ATOM      2  O   UNL     1       2.035   7.549  19.763  0.00  0.00    +0.000 OA
ATOM      3  N   UNL     1       1.869   8.596  17.703  0.00  0.00    +0.000 N 
ATOM      4  H   UNL     1       2.061   8.510  16.713  0.00  0.00    +0.000 HD
ENDROOT
BRANCH   1   8
ATOM      5  C   UNL     1       6.951   6.420  16.949  0.00  0.00    +0.000 C 
ATOM      6  C   UNL     1       5.546   6.062  17.329  0.00  0.00    +0.000 A 
ATOM      7  C   UNL     1       4.649   7.020  17.770  0.00  0.00    +0.000 A 
ATOM      8  C   UNL     1       3.344   6.619  18.072  0.00  0.00    +0.000 A 
ATOM      9  C   UNL     1       2.973   5.238  17.965  0.00  0.00    +0.000 A 
ATOM     10  C   UNL     1       1.695   4.665  18.250  0.00  0.00    +0.000 A 
ATOM     11  C   UNL     1       1.449   3.293  18.117  0.00  0.00    +0.000 A 
ATOM     12  C   UNL     1       2.462   2.459  17.694  0.00  0.00    +0.000 A 
ATOM     13  C   UNL     1       3.713   3.000  17.401  0.00  0.00    +0.000 A 
ATOM     14  C   UNL     1       3.979   4.357  17.524  0.00  0.00    +0.000 A 
ATOM     15  N   UNL     1       5.217   4.761  17.207  0.00  0.00    +0.000 NA
ENDBRANCH   1   8
BRANCH   3  16
ATOM     16  C   UNL     1       0.933   9.605  18.083  0.00  0.00    +0.000 A 
ATOM     17  C   UNL     1      -0.371   9.648  17.575  0.00  0.00    +0.000 A 
ATOM     18  C   UNL     1      -1.276  10.631  17.972  0.00  0.00    +0.000 A 
ATOM     19  C   UNL     1      -0.891  11.611  18.879  0.00  0.00    +0.000 A 
ATOM     20  C   UNL     1       0.421  11.620  19.359  0.00  0.00    +0.000 A 
ATOM     21  C   UNL     1       1.320  10.597  18.992  0.00  0.00    +0.000 A 
BRANCH  20  22
ATOM     22  S   UNL     1       0.902  12.886  20.531  0.00  0.00    +0.000 S 
ATOM     23  O   UNL     1       2.258  12.593  20.945  0.00  0.00    +0.000 OA
ATOM     24  O   UNL     1       0.562  14.162  19.933  0.00  0.00    +0.000 OA
BRANCH  22  25
ATOM     25  N   UNL     1      -0.128  12.641  21.888  0.00  0.00    +0.000 NA
ATOM     26  C   UNL     1      -1.107  13.729  22.137  0.00  0.00    +0.000 C 
ATOM     27  C   UNL     1      -2.004  13.475  23.341  0.00  0.00    +0.000 C 
ATOM     28  C   UNL     1      -2.593  12.076  23.328  0.00  0.00    +0.000 C 
ATOM     29  C   UNL     1      -1.467  11.060  23.315  0.00  0.00    +0.000 C 
ATOM     30  C   UNL     1      -0.559  11.236  22.103  0.00  0.00    +0.000 C 
ENDBRANCH  22  25
ENDBRANCH  20  22
ENDBRANCH   3  16
TORSDOF 4
ENDMDL
MODEL 4
REMARK VINA RESULT:      -9.1      3.101      3.865
REMARK  Name = 
REMARK  5 active torsions:
REMARK  status: ('A' for Active; 'I' for Inactive)
REMARK    1  A    between atoms: C_1  and  C_2
REMARK    2  A    between atoms: C_4  and  C_5
REMARK    3  A    between atoms: N_7  and  C_8
REMARK    4  A    between atoms: C_12  and  S_13
REMARK    5  A    between atoms: S_13  and  N_16
REMARK                            x       y       z     vdW  Elec       q    Type
REMARK                         _______ _______ _______ _____ _____    ______ ____
ROOT
ATOM      1  C   UNL     1       2.365   7.673  18.610  0.00  0.00    +0.000 C 
ATOM      2  O   UNL     1       1.990   7.534  19.772  0.00  0.00    +0.000 OA
ATOM      3  N   UNL     1       1.918   8.690  17.766  0.00  0.00    +0.000 N 
ATOM      4  H   UNL     1       2.139   8.649  16.779  0.00  0.00    +0.000 HD
ENDROOT
BRANCH   1   8
ATOM      5  C   UNL     1       6.916   6.451  16.897  0.00  0.00    +0.000 C 
ATOM      6  C   UNL     1       5.516   6.095  17.295  0.00  0.00    +0.000 A 
ATOM      7  C   UNL     1       4.629   7.053  17.757  0.00  0.00    +0.000 A 
ATOM      8  C   UNL     1       3.327   6.655  18.076  0.00  0.00    +0.000 A 
ATOM      9  C   UNL     1       2.949   5.276  17.964  0.00  0.00    +0.000 A 
ATOM     10  C   UNL     1       1.673   4.706  18.263  0.00  0.00    +0.000 A 
ATOM     11  C   UNL     1       1.420   3.336  18.123  0.00  0.00    +0.000 A 
ATOM     12  C   UNL     1       2.423   2.501  17.678  0.00  0.00    +0.000 A 
ATOM     13  C   UNL     1       3.671   3.040  17.371  0.00  0.00    +0.000 A 
ATOM     14  C   UNL     1       3.945   4.395  17.500  0.00  0.00    +0.000 A 
ATOM     15  N   UNL     1       5.180   4.796  17.168  0.00  0.00    +0.000 NA
ENDBRANCH   1   8
BRANCH   3  16
ATOM     16  C   UNL     1       0.998   9.704  18.170  0.00  0.00    +0.000 A 
ATOM     17  C   UNL     1      -0.365   9.650  17.852  0.00  0.00    +0.000 A 
ATOM     18  C   UNL     1      -1.251  10.641  18.271  0.00  0.00    +0.000 A 
ATOM     19  C   UNL     1      -0.790  11.726  19.007  0.00  0.00    +0.000 A 
ATOM     20  C   UNL     1       0.575  11.830  19.290  0.00  0.00    +0.000 A 
ATOM     21  C   UNL     1       1.461  10.801  18.906  0.00  0.00    +0.000 A 
BRANCH  20  22
ATOM     22  S   UNL     1       1.154  13.230  20.242  0.00  0.00    +0.000 S 
ATOM     23  O   UNL     1      -0.005  13.832  20.868  0.00  0.00    +0.000 OA
ATOM     24  O   UNL     1       2.274  12.764  21.036  0.00  0.00    +0.000 OA
BRANCH  22  25
ATOM     25  N   UNL     1       1.755  14.339  19.071  0.00  0.00    +0.000 NA
ATOM     26  C   UNL     1       1.238  15.725  19.194  0.00  0.00    +0.000 C 
ATOM     27  C   UNL     1       1.797  16.677  18.145  0.00  0.00    +0.000 C 
ATOM     28  C   UNL     1       3.306  16.568  18.023  0.00  0.00    +0.000 C 
ATOM     29  C   UNL     1       3.675  15.143  17.657  0.00  0.00    +0.000 C 
ATOM     30  C   UNL     1       3.180  14.145  18.697  0.00  0.00    +0.000 C 
ENDBRANCH  22  25
ENDBRANCH  20  22
ENDBRANCH   3  16
TORSDOF 4
ENDMDL
MODEL 5
REMARK VINA RESULT:      -8.9      1.738      3.086
REMARK  Name = 
REMARK  5 active torsions:
REMARK  status: ('A' for Active; 'I' for Inactive)
REMARK    1  A    between atoms: C_1  and  C_2
REMARK    2  A    between atoms: C_4  and  C_5
REMARK    3  A    between atoms: N_7  and  C_8
REMARK    4  A    between atoms: C_12  and  S_13
REMARK    5  A    between atoms: S_13  and  N_16
REMARK                            x       y       z     vdW  Elec       q    Type
REMARK                         _______ _______ _______ _____ _____    ______ ____
ROOT
ATOM      1  C   UNL     1       2.233   7.458  18.828  0.00  0.00    +0.000 C 
ATOM      2  O   UNL     1       2.240   7.701  20.033  0.00  0.00    +0.000 OA
ATOM      3  N   UNL     1       1.960   8.411  17.846  0.00  0.00    +0.000 N 
ATOM      4  H   UNL     1       1.809   8.110  16.891  0.00  0.00    +0.000 HD
ENDROOT
BRANCH   1   8
ATOM      5  C   UNL     1       0.938   2.615  18.804  0.00  0.00    +0.000 C 
ATOM      6  C   UNL     1       1.833   3.745  18.392  0.00  0.00    +0.000 A 
ATOM      7  C   UNL     1       1.596   5.044  18.808  0.00  0.00    +0.000 A 
ATOM      8  C   UNL     1       2.494   6.042  18.416  0.00  0.00    +0.000 A 
ATOM      9  C   UNL     1       3.603   5.717  17.566  0.00  0.00    +0.000 A 
ATOM     10  C   UNL     1       4.596   6.615  17.066  0.00  0.00    +0.000 A 
ATOM     11  C   UNL     1       5.636   6.184  16.232  0.00  0.00    +0.000 A 
ATOM     12  C   UNL     1       5.717   4.853  15.881  0.00  0.00    +0.000 A 
ATOM     13  C   UNL     1       4.765   3.960  16.367  0.00  0.00    +0.000 A 
ATOM     14  C   UNL     1       3.727   4.364  17.197  0.00  0.00    +0.000 A 
ATOM     15  N   UNL     1       2.876   3.413  17.606  0.00  0.00    +0.000 NA
ENDBRANCH   1   8
BRANCH   3  16
ATOM     16  C   UNL     1       1.691   9.784  18.130  0.00  0.00    +0.000 A 
ATOM     17  C   UNL     1       2.608  10.803  17.845  0.00  0.00    +0.000 A 
ATOM     18  C   UNL     1       2.319  12.140  18.113  0.00  0.00    +0.000 A 
ATOM     19  C   UNL     1       1.105  12.490  18.692  0.00  0.00    +0.000 A 
ATOM     20  C   UNL     1       0.195  11.487  19.034  0.00  0.00    +0.000 A 
ATOM     21  C   UNL     1       0.471  10.139  18.718  0.00  0.00    +0.000 A 
BRANCH  20  22
ATOM     22  S   UNL     1      -1.366  11.953  19.774  0.00  0.00    +0.000 S 
ATOM     23  O   UNL     1      -1.506  11.189  20.996  0.00  0.00    +0.000 OA
ATOM     24  O   UNL     1      -1.407  13.402  19.791  0.00  0.00    +0.000 OA
BRANCH  22  25
ATOM     25  N   UNL     1      -2.561  11.398  18.666  0.00  0.00    +0.000 NA
ATOM     26  C   UNL     1      -3.957  11.763  19.014  0.00  0.00    +0.000 C 
ATOM     27  C   UNL     1      -4.984  11.261  18.008  0.00  0.00    +0.000 C 
ATOM     28  C   UNL     1      -4.580  11.572  16.578  0.00  0.00    +0.000 C 
ATOM     29  C   UNL     1      -3.236  10.931  16.288  0.00  0.00    +0.000 C 
ATOM     30  C   UNL     1      -2.154  11.431  17.238  0.00  0.00    +0.000 C 
ENDBRANCH  22  25
ENDBRANCH  20  22
ENDBRANCH   3  16
TORSDOF 4
ENDMDL
MODEL 6
REMARK VINA RESULT:      -8.9      1.451      2.619
REMARK  Name = 
REMARK  5 active torsions:
REMARK  status: ('A' for Active; 'I' for Inactive)
REMARK    1  A    between atoms: C_1  and  C_2
REMARK    2  A    between atoms: C_4  and  C_5
REMARK    3  A    between atoms: N_7  and  C_8
REMARK    4  A    between atoms: C_12  and  S_13
REMARK    5  A    between atoms: S_13  and  N_16
REMARK                            x       y       z     vdW  Elec       q    Type
REMARK                         _______ _______ _______ _____ _____    ______ ____
ROOT
ATOM      1  C   UNL     1       1.691   7.584  20.191  0.00  0.00    +0.000 C 
ATOM      2  O   UNL     1       2.057   8.488  19.442  0.00  0.00    +0.000 OA
ATOM      3  N   UNL     1       0.784   7.760  21.236  0.00  0.00    +0.000 N 
ATOM      4  H   UNL     1       0.654   7.018  21.911  0.00  0.00    +0.000 HD
ENDROOT
BRANCH   1   8
ATOM      5  C   UNL     1       2.205   2.775  21.512  0.00  0.00    +0.000 C 
ATOM      6  C   UNL     1       2.499   3.935  20.610  0.00  0.00    +0.000 A 
ATOM      7  C   UNL     1       1.952   5.186  20.839  0.00  0.00    +0.000 A 
ATOM      8  C   UNL     1       2.301   6.232  19.978  0.00  0.00    +0.000 A 
ATOM      9  C   UNL     1       3.169   5.986  18.863  0.00  0.00    +0.000 A 
ATOM     10  C   UNL     1       3.606   6.933  17.887  0.00  0.00    +0.000 A 
ATOM     11  C   UNL     1       4.454   6.576  16.831  0.00  0.00    +0.000 A 
ATOM     12  C   UNL     1       4.890   5.273  16.721  0.00  0.00    +0.000 A 
ATOM     13  C   UNL     1       4.483   4.336  17.669  0.00  0.00    +0.000 A 
ATOM     14  C   UNL     1       3.646   4.668  18.726  0.00  0.00    +0.000 A 
ATOM     15  N   UNL     1       3.328   3.683  19.578  0.00  0.00    +0.000 NA
ENDBRANCH   1   8
BRANCH   3  16
ATOM     16  C   UNL     1       0.151   9.006  21.532  0.00  0.00    +0.000 A 
ATOM     17  C   UNL     1      -0.196   9.380  22.835  0.00  0.00    +0.000 A 
ATOM     18  C   UNL     1      -0.796  10.609  23.106  0.00  0.00    +0.000 A 
ATOM     19  C   UNL     1      -1.081  11.491  22.071  0.00  0.00    +0.000 A 
ATOM     20  C   UNL     1      -0.793  11.118  20.756  0.00  0.00    +0.000 A 
ATOM     21  C   UNL     1      -0.142   9.894  20.490  0.00  0.00    +0.000 A 
BRANCH  20  22
ATOM     22  S   UNL     1      -1.161  12.266  19.433  0.00  0.00    +0.000 S 
ATOM     23  O   UNL     1      -1.587  13.506  20.048  0.00  0.00    +0.000 OA
ATOM     24  O   UNL     1      -0.034  12.232  18.522  0.00  0.00    +0.000 OA
BRANCH  22  25
ATOM     25  N   UNL     1      -2.520  11.584  18.626  0.00  0.00    +0.000 NA
ATOM     26  C   UNL     1      -3.841  12.036  19.129  0.00  0.00    +0.000 C 
ATOM     27  C   UNL     1      -5.018  11.417  18.387  0.00  0.00    +0.000 C 
ATOM     28  C   UNL     1      -4.847  11.497  16.881  0.00  0.00    +0.000 C 
ATOM     29  C   UNL     1      -3.570  10.782  16.485  0.00  0.00    +0.000 C 
ATOM     30  C   UNL     1      -2.348  11.389  17.163  0.00  0.00    +0.000 C 
ENDBRANCH  22  25
ENDBRANCH  20  22
ENDBRANCH   3  16
TORSDOF 4
ENDMDL
MODEL 7
REMARK VINA RESULT:      -8.8      2.732      3.425
REMARK  Name = 
REMARK  5 active torsions:
REMARK  status: ('A' for Active; 'I' for Inactive)
REMARK    1  A    between atoms: C_1  and  C_2
REMARK    2  A    between atoms: C_4  and  C_5
REMARK    3  A    between atoms: N_7  and  C_8
REMARK    4  A    between atoms: C_12  and  S_13
REMARK    5  A    between atoms: S_13  and  N_16
REMARK                            x       y       z     vdW  Elec       q    Type
REMARK                         _______ _______ _______ _____ _____    ______ ____
ROOT
ATOM      1  C   UNL     1       2.509   7.497  18.491  0.00  0.00    +0.000 C 
ATOM      2  O   UNL     1       2.203   7.436  19.680  0.00  0.00    +0.000 OA
ATOM      3  N   UNL     1       2.050   8.486  17.620  0.00  0.00    +0.000 N 
ATOM      4  H   UNL     1       2.207   8.383  16.625  0.00  0.00    +0.000 HD
ENDROOT
BRANCH   1   8
ATOM      5  C   UNL     1       6.886   5.996  16.560  0.00  0.00    +0.000 C 
ATOM      6  C   UNL     1       5.504   5.721  17.070  0.00  0.00    +0.000 A 
ATOM      7  C   UNL     1       4.686   6.739  17.531  0.00  0.00    +0.000 A 
ATOM      8  C   UNL     1       3.394   6.413  17.958  0.00  0.00    +0.000 A 
ATOM      9  C   UNL     1       2.960   5.045  17.954  0.00  0.00    +0.000 A 
ATOM     10  C   UNL     1       1.688   4.546  18.369  0.00  0.00    +0.000 A 
ATOM     11  C   UNL     1       1.375   3.181  18.329  0.00  0.00    +0.000 A 
ATOM     12  C   UNL     1       2.315   2.283  17.870  0.00  0.00    +0.000 A 
ATOM     13  C   UNL     1       3.558   2.752  17.450  0.00  0.00    +0.000 A 
ATOM     14  C   UNL     1       3.889   4.100  17.479  0.00  0.00    +0.000 A 
ATOM     15  N   UNL     1       5.113   4.431  17.044  0.00  0.00    +0.000 NA
ENDBRANCH   1   8
BRANCH   3  16
ATOM     16  C   UNL     1       1.197   9.559  18.022  0.00  0.00    +0.000 A 
ATOM     17  C   UNL     1      -0.191   9.519  17.846  0.00  0.00    +0.000 A 
ATOM     18  C   UNL     1      -1.009  10.569  18.261  0.00  0.00    +0.000 A 
ATOM     19  C   UNL     1      -0.452  11.698  18.849  0.00  0.00    +0.000 A 
ATOM     20  C   UNL     1       0.936  11.784  18.987  0.00  0.00    +0.000 A 
ATOM     21  C   UNL     1       1.756  10.700  18.609  0.00  0.00    +0.000 A 
BRANCH  20  22
ATOM     22  S   UNL     1       1.638  13.242  19.750  0.00  0.00    +0.000 S 
ATOM     23  O   UNL     1       1.834  12.940  21.153  0.00  0.00    +0.000 OA
ATOM     24  O   UNL     1       2.747  13.661  18.915  0.00  0.00    +0.000 OA
BRANCH  22  25
ATOM     25  N   UNL     1       0.404  14.436  19.636  0.00  0.00    +0.000 NA
ATOM     26  C   UNL     1      -0.315  14.720  20.904  0.00  0.00    +0.000 C 
ATOM     27  C   UNL     1      -1.394  15.785  20.765  0.00  0.00    +0.000 C 
ATOM     28  C   UNL     1      -0.892  17.013  20.027  0.00  0.00    +0.000 C 
ATOM     29  C   UNL     1      -0.407  16.604  18.649  0.00  0.00    +0.000 C 
ATOM     30  C   UNL     1       0.710  15.570  18.726  0.00  0.00    +0.000 C 
ENDBRANCH  22  25
ENDBRANCH  20  22
ENDBRANCH   3  16
TORSDOF 4
ENDMDL
MODEL 8
REMARK VINA RESULT:      -8.8      3.243      8.549
REMARK  Name = 
REMARK  5 active torsions:
REMARK  status: ('A' for Active; 'I' for Inactive)
REMARK    1  A    between atoms: C_1  and  C_2
REMARK    2  A    between atoms: C_4  and  C_5
REMARK    3  A    between atoms: N_7  and  C_8
REMARK    4  A    between atoms: C_12  and  S_13
REMARK    5  A    between atoms: S_13  and  N_16
REMARK                            x       y       z     vdW  Elec       q    Type
REMARK                         _______ _______ _______ _____ _____    ______ ____
ROOT
ATOM      1  C   UNL     1       1.508   8.876  18.575  0.00  0.00    +0.000 C 
ATOM      2  O   UNL     1       1.079   8.792  17.426  0.00  0.00    +0.000 OA
ATOM      3  N   UNL     1       2.226   7.863  19.211  0.00  0.00    +0.000 N 
ATOM      4  H   UNL     1       2.405   7.931  20.205  0.00  0.00    +0.000 HD
ENDROOT
BRANCH   1   8
ATOM      5  C   UNL     1       1.521  13.878  18.917  0.00  0.00    +0.000 C 
ATOM      6  C   UNL     1       1.183  12.519  19.451  0.00  0.00    +0.000 A 
ATOM      7  C   UNL     1       1.508  11.367  18.754  0.00  0.00    +0.000 A 
ATOM      8  C   UNL     1       1.195  10.131  19.331  0.00  0.00    +0.000 A 
ATOM      9  C   UNL     1       0.514  10.078  20.592  0.00  0.00    +0.000 A 
ATOM     10  C   UNL     1       0.112   8.907  21.304  0.00  0.00    +0.000 A 
ATOM     11  C   UNL     1      -0.558   8.976  22.533  0.00  0.00    +0.000 A 
ATOM     12  C   UNL     1      -0.838  10.208  23.084  0.00  0.00    +0.000 A 
ATOM     13  C   UNL     1      -0.444  11.363  22.410  0.00  0.00    +0.000 A 
ATOM     14  C   UNL     1       0.223  11.318  21.193  0.00  0.00    +0.000 A 
ATOM     15  N   UNL     1       0.557  12.494  20.644  0.00  0.00    +0.000 NA
ENDBRANCH   1   8
BRANCH   3  16
ATOM     16  C   UNL     1       2.570   6.626  18.587  0.00  0.00    +0.000 A 
ATOM     17  C   UNL     1       1.842   5.450  18.800  0.00  0.00    +0.000 A 
ATOM     18  C   UNL     1       2.183   4.256  18.166  0.00  0.00    +0.000 A 
ATOM     19  C   UNL     1       3.279   4.206  17.313  0.00  0.00    +0.000 A 
ATOM     20  C   UNL     1       4.054   5.353  17.127  0.00  0.00    +0.000 A 
ATOM     21  C   UNL     1       3.678   6.571  17.732  0.00  0.00    +0.000 A 
BRANCH  20  22
ATOM     22  S   UNL     1       5.460   5.275  16.022  0.00  0.00    +0.000 S 
ATOM     23  O   UNL     1       5.642   3.885  15.658  0.00  0.00    +0.000 OA
ATOM     24  O   UNL     1       5.255   6.291  15.009  0.00  0.00    +0.000 OA
BRANCH  22  25
ATOM     25  N   UNL     1       6.804   5.749  16.987  0.00  0.00    +0.000 NA
ATOM     26  C   UNL     1       6.963   7.213  17.168  0.00  0.00    +0.000 C 
ATOM     27  C   UNL     1       8.157   7.593  18.032  0.00  0.00    +0.000 C 
ATOM     28  C   UNL     1       8.213   6.782  19.314  0.00  0.00    +0.000 C 
ATOM     29  C   UNL     1       8.289   5.307  18.969  0.00  0.00    +0.000 C 
ATOM     30  C   UNL     1       7.092   4.857  18.140  0.00  0.00    +0.000 C 
ENDBRANCH  22  25
ENDBRANCH  20  22
ENDBRANCH   3  16
TORSDOF 4
ENDMDL
MODEL 9
REMARK VINA RESULT:      -8.8      1.385      2.665
REMARK  Name = 
REMARK  5 active torsions:
REMARK  status: ('A' for Active; 'I' for Inactive)
REMARK    1  A    between atoms: C_1  and  C_2
REMARK    2  A    between atoms: C_4  and  C_5
REMARK    3  A    between atoms: N_7  and  C_8
REMARK    4  A    between atoms: C_12  and  S_13
REMARK    5  A    between atoms: S_13  and  N_16
REMARK                            x       y       z     vdW  Elec       q    Type
REMARK                         _______ _______ _______ _____ _____    ______ ____
ROOT
ATOM      1  C   UNL     1       1.934   7.327  19.965  0.00  0.00    +0.000 C 
ATOM      2  O   UNL     1       1.976   8.106  19.014  0.00  0.00    +0.000 OA
ATOM      3  N   UNL     1       1.342   7.630  21.191  0.00  0.00    +0.000 N 
ATOM      4  H   UNL     1       1.487   7.011  21.979  0.00  0.00    +0.000 HD
ENDROOT
BRANCH   1   8
ATOM      5  C   UNL     1       2.626   2.573  21.397  0.00  0.00    +0.000 C 
ATOM      6  C   UNL     1       2.884   3.724  20.473  0.00  0.00    +0.000 A 
ATOM      7  C   UNL     1       2.284   4.957  20.669  0.00  0.00    +0.000 A 
ATOM      8  C   UNL     1       2.600   5.997  19.788  0.00  0.00    +0.000 A 
ATOM      9  C   UNL     1       3.490   5.762  18.687  0.00  0.00    +0.000 A 
ATOM     10  C   UNL     1       3.899   6.705  17.695  0.00  0.00    +0.000 A 
ATOM     11  C   UNL     1       4.772   6.359  16.655  0.00  0.00    +0.000 A 
ATOM     12  C   UNL     1       5.261   5.073  16.579  0.00  0.00    +0.000 A 
ATOM     13  C   UNL     1       4.882   4.141  17.544  0.00  0.00    +0.000 A 
ATOM     14  C   UNL     1       4.020   4.462  18.585  0.00  0.00    +0.000 A 
ATOM     15  N   UNL     1       3.734   3.484  19.455  0.00  0.00    +0.000 NA
ENDBRANCH   1   8
BRANCH   3  16
ATOM     16  C   UNL     1       0.689   8.869  21.469  0.00  0.00    +0.000 A 
ATOM     17  C   UNL     1       0.151   9.168  22.727  0.00  0.00    +0.000 A 
ATOM     18  C   UNL     1      -0.467  10.391  22.983  0.00  0.00    +0.000 A 
ATOM     19  C   UNL     1      -0.578  11.343  21.977  0.00  0.00    +0.000 A 
ATOM     20  C   UNL     1      -0.097  11.047  20.700  0.00  0.00    +0.000 A 
ATOM     21  C   UNL     1       0.570   9.828  20.455  0.00  0.00    +0.000 A 
BRANCH  20  22
ATOM     22  S   UNL     1      -0.243  12.285  19.415  0.00  0.00    +0.000 S 
ATOM     23  O   UNL     1      -0.675  13.513  20.049  0.00  0.00    +0.000 OA
ATOM     24  O   UNL     1       0.983  12.235  18.642  0.00  0.00    +0.000 OA
BRANCH  22  25
ATOM     25  N   UNL     1      -1.527  11.728  18.413  0.00  0.00    +0.000 NA
ATOM     26  C   UNL     1      -1.241  10.482  17.659  0.00  0.00    +0.000 C 
ATOM     27  C   UNL     1      -2.402  10.017  16.790  0.00  0.00    +0.000 C 
ATOM     28  C   UNL     1      -3.717  10.017  17.549  0.00  0.00    +0.000 C 
ATOM     29  C   UNL     1      -3.999  11.417  18.060  0.00  0.00    +0.000 C 
ATOM     30  C   UNL     1      -2.889  11.919  18.976  0.00  0.00    +0.000 C 
ENDBRANCH  22  25
ENDBRANCH  20  22
ENDBRANCH   3  16
TORSDOF 4
ENDMDL
