MODEL 1
REMARK VINA RESULT:      -7.0      0.000      0.000
REMARK  Name = 
REMARK  5 active torsions:
REMARK  status: ('A' for Active; 'I' for Inactive)
REMARK    1  A    between atoms: C_1  and  C_2
REMARK    2  A    between atoms: C_2  and  C_3
REMARK    3  A    between atoms: C_3  and  O_4
REMARK    4  A    between atoms: O_4  and  C_5
REMARK    5  A    between atoms: C_9  and  C_10
REMARK                            x       y       z     vdW  Elec       q    Type
REMARK                         _______ _______ _______ _____ _____    ______ ____
ROOT
ATOM      1  C   UNL     1       6.312   6.749  17.326  0.00  0.00    +0.000 A 
ATOM      2  C   UNL     1       5.056   6.986  16.766  0.00  0.00    +0.000 A 
ATOM      3  C   UNL     1       3.975   6.139  17.041  0.00  0.00    +0.000 A 
ATOM      4  C   UNL     1       4.118   5.045  17.900  0.00  0.00    +0.000 A 
ATOM      5  C   UNL     1       3.024   4.137  18.278  0.00  0.00    +0.000 A 
ATOM      6  C   UNL     1       1.620   4.304  17.771  0.00  0.00    +0.000 C 
ATOM      7  C   UNL     1       3.299   3.134  19.126  0.00  0.00    +0.000 A 
ATOM      8  C   UNL     1       4.632   2.882  19.696  0.00  0.00    +0.000 A 
ATOM      9  O   UNL     1       4.820   1.942  20.458  0.00  0.00    +0.000 OA
ATOM     10  O   UNL     1       5.638   3.756  19.327  0.00  0.00    +0.000 OA
ATOM     11  C   UNL     1       5.388   4.828  18.444  0.00  0.00    +0.000 A 
ATOM     12  C   UNL     1       6.481   5.658  18.172  0.00  0.00    +0.000 A 
ENDROOT
BRANCH   1  13
ATOM     13  O   UNL     1       7.268   7.682  17.041  0.00  0.00    +0.000 OA
BRANCH  13  14
ATOM     14  C   UNL     1       8.133   8.038  18.121  0.00  0.00    +0.000 C 
BRANCH  14  16
ATOM     15  C   UNL     1       9.214  10.039  19.207  0.00  0.00    +0.000 C 
ATOM     16  C   UNL     1       8.390   9.539  18.034  0.00  0.00    +0.000 C 
ENDBRANCH  14  16
ENDBRANCH  13  14
ENDBRANCH   1  13
TORSDOF 3
ENDMDL
MODEL 2
REMARK VINA RESULT:      -7.0      2.714      5.553
REMARK  Name = 
REMARK  5 active torsions:
REMARK  status: ('A' for Active; 'I' for Inactive)
REMARK    1  A    between atoms: C_1  and  C_2
REMARK    2  A    between atoms: C_2  and  C_3
REMARK    3  A    between atoms: C_3  and  O_4
REMARK    4  A    between atoms: O_4  and  C_5
REMARK    5  A    between atoms: C_9  and  C_10
REMARK                            x       y       z     vdW  Elec       q    Type
REMARK                         _______ _______ _______ _____ _____    ______ ____
ROOT
ATOM      1  C   UNL     1       3.060   5.178  19.944  0.00  0.00    +0.000 A 
ATOM      2  C   UNL     1       2.586   5.967  18.895  0.00  0.00    +0.000 A 
ATOM      3  C   UNL     1       3.396   6.254  17.789  0.00  0.00    +0.000 A 
ATOM      4  C   UNL     1       4.694   5.742  17.695  0.00  0.00    +0.000 A 
ATOM      5  C   UNL     1       5.590   5.955  16.548  0.00  0.00    +0.000 A 
ATOM      6  C   UNL     1       5.189   6.756  15.343  0.00  0.00    +0.000 C 
ATOM      7  C   UNL     1       6.808   5.390  16.583  0.00  0.00    +0.000 A 
ATOM      8  C   UNL     1       7.304   4.576  17.703  0.00  0.00    +0.000 A 
ATOM      9  O   UNL     1       8.430   4.096  17.679  0.00  0.00    +0.000 OA
ATOM     10  O   UNL     1       6.436   4.388  18.764  0.00  0.00    +0.000 OA
ATOM     11  C   UNL     1       5.145   4.958  18.762  0.00  0.00    +0.000 A 
ATOM     12  C   UNL     1       4.353   4.670  19.879  0.00  0.00    +0.000 A 
ENDROOT
BRANCH   1  13
ATOM     13  O   UNL     1       2.156   4.910  20.932  0.00  0.00    +0.000 OA
BRANCH  13  14
ATOM     14  C   UNL     1       0.960   4.246  20.519  0.00  0.00    +0.000 C 
BRANCH  14  16
ATOM     15  C   UNL     1       0.827   2.400  18.807  0.00  0.00    +0.000 C 
ATOM     16  C   UNL     1       1.322   2.802  20.185  0.00  0.00    +0.000 C 
ENDBRANCH  14  16
ENDBRANCH  13  14
ENDBRANCH   1  13
TORSDOF 3
ENDMDL
MODEL 3
REMARK VINA RESULT:      -6.8      2.106      5.768
REMARK  Name = 
REMARK  5 active torsions:
REMARK  status: ('A' for Active; 'I' for Inactive)
REMARK    1  A    between atoms: C_1  and  C_2
REMARK    2  A    between atoms: C_2  and  C_3
REMARK    3  A    between atoms: C_3  and  O_4
REMARK    4  A    between atoms: O_4  and  C_5
REMARK    5  A    between atoms: C_9  and  C_10
REMARK                            x       y       z     vdW  Elec       q    Type
REMARK                         _______ _______ _______ _____ _____    ______ ____
ROOT
ATOM      1  C   UNL     1       3.859   3.013  19.029  0.00  0.00    +0.000 A 
ATOM      2  C   UNL     1       3.672   2.846  17.657  0.00  0.00    +0.000 A 
ATOM      3  C   UNL     1       4.432   3.575  16.733  0.00  0.00    +0.000 A 
ATOM      4  C   UNL     1       5.413   4.477  17.160  0.00  0.00    +0.000 A 
ATOM      5  C   UNL     1       6.284   5.245  16.259  0.00  0.00    +0.000 A 
ATOM      6  C   UNL     1       6.207   5.130  14.763  0.00  0.00    +0.000 C 
ATOM      7  C   UNL     1       7.196   6.065  16.806  0.00  0.00    +0.000 A 
ATOM      8  C   UNL     1       7.371   6.248  18.255  0.00  0.00    +0.000 A 
ATOM      9  O   UNL     1       8.215   7.020  18.692  0.00  0.00    +0.000 OA
ATOM     10  O   UNL     1       6.541   5.507  19.077  0.00  0.00    +0.000 OA
ATOM     11  C   UNL     1       5.575   4.629  18.541  0.00  0.00    +0.000 A 
ATOM     12  C   UNL     1       4.818   3.915  19.477  0.00  0.00    +0.000 A 
ENDROOT
BRANCH   1  13
ATOM     13  O   UNL     1       3.110   2.197  19.827  0.00  0.00    +0.000 OA
BRANCH  13  14
ATOM     14  C   UNL     1       2.834   2.691  21.139  0.00  0.00    +0.000 C 
BRANCH  14  16
ATOM     15  C   UNL     1       0.872   4.049  20.323  0.00  0.00    +0.000 C 
ATOM     16  C   UNL     1       1.329   2.927  21.238  0.00  0.00    +0.000 C 
ENDBRANCH  14  16
ENDBRANCH  13  14
ENDBRANCH   1  13
TORSDOF 3
ENDMDL
MODEL 4
REMARK VINA RESULT:      -6.8      2.494      5.823
REMARK  Name = 
REMARK  5 active torsions:
REMARK  status: ('A' for Active; 'I' for Inactive)
REMARK    1  A    between atoms: C_1  and  C_2
REMARK    2  A    between atoms: C_2  and  C_3
REMARK    3  A    between atoms: C_3  and  O_4
REMARK    4  A    between atoms: O_4  and  C_5
REMARK    5  A    between atoms: C_9  and  C_10
REMARK                            x       y       z     vdW  Elec       q    Type
REMARK                         _______ _______ _______ _____ _____    ______ ____
ROOT
ATOM      1  C   UNL     1       3.143   2.842  18.564  0.00  0.00    +0.000 A 
ATOM      2  C   UNL     1       3.067   3.064  17.189  0.00  0.00    +0.000 A 
ATOM      3  C   UNL     1       4.067   3.783  16.521  0.00  0.00    +0.000 A 
ATOM      4  C   UNL     1       5.179   4.280  17.209  0.00  0.00    +0.000 A 
ATOM      5  C   UNL     1       6.293   5.002  16.577  0.00  0.00    +0.000 A 
ATOM      6  C   UNL     1       6.348   5.276  15.102  0.00  0.00    +0.000 C 
ATOM      7  C   UNL     1       7.306   5.410  17.357  0.00  0.00    +0.000 A 
ATOM      8  C   UNL     1       7.366   5.187  18.810  0.00  0.00    +0.000 A 
ATOM      9  O   UNL     1       8.314   5.594  19.468  0.00  0.00    +0.000 OA
ATOM     10  O   UNL     1       6.306   4.500  19.375  0.00  0.00    +0.000 OA
ATOM     11  C   UNL     1       5.226   4.047  18.588  0.00  0.00    +0.000 A 
ATOM     12  C   UNL     1       4.231   3.339  19.272  0.00  0.00    +0.000 A 
ENDROOT
BRANCH   1  13
ATOM     13  O   UNL     1       2.147   2.069  19.089  0.00  0.00    +0.000 OA
BRANCH  13  14
ATOM     14  C   UNL     1       0.866   2.692  19.196  0.00  0.00    +0.000 C 
BRANCH  14  16
ATOM     15  C   UNL     1       1.366   2.685  21.666  0.00  0.00    +0.000 C 
ATOM     16  C   UNL     1       0.846   3.495  20.494  0.00  0.00    +0.000 C 
ENDBRANCH  14  16
ENDBRANCH  13  14
ENDBRANCH   1  13
TORSDOF 3
ENDMDL
MODEL 5
REMARK VINA RESULT:      -6.7      2.723      5.873
REMARK  Name = 
REMARK  5 active torsions:
REMARK  status: ('A' for Active; 'I' for Inactive)
REMARK    1  A    between atoms: C_1  and  C_2
REMARK    2  A    between atoms: C_2  and  C_3
REMARK    3  A    between atoms: C_3  and  O_4
REMARK    4  A    between atoms: O_4  and  C_5
REMARK    5  A    between atoms: C_9  and  C_10
REMARK                            x       y       z     vdW  Elec       q    Type
REMARK                         _______ _______ _______ _____ _____    ______ ____
ROOT
ATOM      1  C   UNL     1       2.664   4.607  18.684  0.00  0.00    +0.000 A 
ATOM      2  C   UNL     1       3.534   5.183  19.610  0.00  0.00    +0.000 A 
ATOM      3  C   UNL     1       4.890   5.363  19.307  0.00  0.00    +0.000 A 
ATOM      4  C   UNL     1       5.405   4.990  18.060  0.00  0.00    +0.000 A 
ATOM      5  C   UNL     1       6.801   5.189  17.645  0.00  0.00    +0.000 A 
ATOM      6  C   UNL     1       7.829   5.827  18.536  0.00  0.00    +0.000 C 
ATOM      7  C   UNL     1       7.157   4.798  16.411  0.00  0.00    +0.000 A 
ATOM      8  C   UNL     1       6.234   4.174  15.450  0.00  0.00    +0.000 A 
ATOM      9  O   UNL     1       6.623   3.829  14.342  0.00  0.00    +0.000 OA
ATOM     10  O   UNL     1       4.926   4.006  15.867  0.00  0.00    +0.000 OA
ATOM     11  C   UNL     1       4.511   4.411  17.153  0.00  0.00    +0.000 A 
ATOM     12  C   UNL     1       3.156   4.215  17.444  0.00  0.00    +0.000 A 
ENDROOT
BRANCH   1  13
ATOM     13  O   UNL     1       1.354   4.548  19.067  0.00  0.00    +0.000 OA
BRANCH  13  14
ATOM     14  C   UNL     1       1.122   4.377  20.467  0.00  0.00    +0.000 C 
BRANCH  14  16
ATOM     15  C   UNL     1       2.228   2.543  21.795  0.00  0.00    +0.000 C 
ATOM     16  C   UNL     1       1.165   2.881  20.765  0.00  0.00    +0.000 C 
ENDBRANCH  14  16
ENDBRANCH  13  14
ENDBRANCH   1  13
TORSDOF 3
ENDMDL
MODEL 6
REMARK VINA RESULT:      -6.7      3.238      4.232
REMARK  Name = 
REMARK  5 active torsions:
REMARK  status: ('A' for Active; 'I' for Inactive)
REMARK    1  A    between atoms: C_1  and  C_2
REMARK    2  A    between atoms: C_2  and  C_3
REMARK    3  A    between atoms: C_3  and  O_4
REMARK    4  A    between atoms: O_4  and  C_5
REMARK    5  A    between atoms: C_9  and  C_10
REMARK                            x       y       z     vdW  Elec       q    Type
REMARK                         _______ _______ _______ _____ _____    ______ ____
ROOT
ATOM      1  C   UNL     1       4.683   4.106  16.899  0.00  0.00    +0.000 A 
ATOM      2  C   UNL     1       4.317   5.452  16.920  0.00  0.00    +0.000 A 
ATOM      3  C   UNL     1       3.531   5.968  17.959  0.00  0.00    +0.000 A 
ATOM      4  C   UNL     1       3.108   5.152  19.014  0.00  0.00    +0.000 A 
ATOM      5  C   UNL     1       2.323   5.623  20.164  0.00  0.00    +0.000 A 
ATOM      6  C   UNL     1       1.895   7.054  20.323  0.00  0.00    +0.000 C 
ATOM      7  C   UNL     1       1.997   4.733  21.115  0.00  0.00    +0.000 A 
ATOM      8  C   UNL     1       2.372   3.311  21.072  0.00  0.00    +0.000 A 
ATOM      9  O   UNL     1       2.035   2.547  21.967  0.00  0.00    +0.000 OA
ATOM     10  O   UNL     1       3.115   2.899  19.981  0.00  0.00    +0.000 OA
ATOM     11  C   UNL     1       3.484   3.805  18.964  0.00  0.00    +0.000 A 
ATOM     12  C   UNL     1       4.261   3.273  17.929  0.00  0.00    +0.000 A 
ENDROOT
BRANCH   1  13
ATOM     13  O   UNL     1       5.507   3.738  15.874  0.00  0.00    +0.000 OA
BRANCH  13  14
ATOM     14  C   UNL     1       5.554   4.632  14.760  0.00  0.00    +0.000 C 
BRANCH  14  16
ATOM     15  C   UNL     1       5.803   3.431  12.558  0.00  0.00    +0.000 C 
ATOM     16  C   UNL     1       6.528   4.050  13.739  0.00  0.00    +0.000 C 
ENDBRANCH  14  16
ENDBRANCH  13  14
ENDBRANCH   1  13
TORSDOF 3
ENDMDL
MODEL 7
REMARK VINA RESULT:      -6.7      2.340      5.815
REMARK  Name = 
REMARK  5 active torsions:
REMARK  status: ('A' for Active; 'I' for Inactive)
REMARK    1  A    between atoms: C_1  and  C_2
REMARK    2  A    between atoms: C_2  and  C_3
REMARK    3  A    between atoms: C_3  and  O_4
REMARK    4  A    between atoms: O_4  and  C_5
REMARK    5  A    between atoms: C_9  and  C_10
REMARK                            x       y       z     vdW  Elec       q    Type
REMARK                         _______ _______ _______ _____ _____    ______ ____
ROOT
ATOM      1  C   UNL     1       2.722   4.862  18.779  0.00  0.00    +0.000 A 
ATOM      2  C   UNL     1       2.719   3.883  17.785  0.00  0.00    +0.000 A 
ATOM      3  C   UNL     1       3.729   3.840  16.815  0.00  0.00    +0.000 A 
ATOM      4  C   UNL     1       4.778   4.766  16.827  0.00  0.00    +0.000 A 
ATOM      5  C   UNL     1       5.900   4.762  15.876  0.00  0.00    +0.000 A 
ATOM      6  C   UNL     1       6.032   3.741  14.782  0.00  0.00    +0.000 C 
ATOM      7  C   UNL     1       6.849   5.701  16.013  0.00  0.00    +0.000 A 
ATOM      8  C   UNL     1       6.831   6.741  17.054  0.00  0.00    +0.000 A 
ATOM      9  O   UNL     1       7.722   7.578  17.119  0.00  0.00    +0.000 OA
ATOM     10  O   UNL     1       5.766   6.716  17.936  0.00  0.00    +0.000 OA
ATOM     11  C   UNL     1       4.753   5.740  17.831  0.00  0.00    +0.000 A 
ATOM     12  C   UNL     1       3.746   5.802  18.801  0.00  0.00    +0.000 A 
ENDROOT
BRANCH   1  13
ATOM     13  O   UNL     1       1.726   4.758  19.708  0.00  0.00    +0.000 OA
BRANCH  13  14
ATOM     14  C   UNL     1       1.004   3.525  19.713  0.00  0.00    +0.000 C 
BRANCH  14  16
ATOM     15  C   UNL     1       2.567   2.737  21.527  0.00  0.00    +0.000 C 
ATOM     16  C   UNL     1       1.120   2.925  21.111  0.00  0.00    +0.000 C 
ENDBRANCH  14  16
ENDBRANCH  13  14
ENDBRANCH   1  13
TORSDOF 3
ENDMDL
MODEL 8
REMARK VINA RESULT:      -6.6      2.917      4.186
REMARK  Name = 
REMARK  5 active torsions:
REMARK  status: ('A' for Active; 'I' for Inactive)
REMARK    1  A    between atoms: C_1  and  C_2
REMARK    2  A    between atoms: C_2  and  C_3
REMARK    3  A    between atoms: C_3  and  O_4
REMARK    4  A    between atoms: O_4  and  C_5
REMARK    5  A    between atoms: C_9  and  C_10
REMARK                            x       y       z     vdW  Elec       q    Type
REMARK                         _______ _______ _______ _____ _____    ______ ____
ROOT
ATOM      1  C   UNL     1       5.315   5.347  15.752  0.00  0.00    +0.000 A 
ATOM      2  C   UNL     1       5.021   6.633  16.208  0.00  0.00    +0.000 A 
ATOM      3  C   UNL     1       4.136   6.832  17.275  0.00  0.00    +0.000 A 
ATOM      4  C   UNL     1       3.537   5.748  17.926  0.00  0.00    +0.000 A 
ATOM      5  C   UNL     1       2.635   5.868  19.081  0.00  0.00    +0.000 A 
ATOM      6  C   UNL     1       2.267   7.191  19.689  0.00  0.00    +0.000 C 
ATOM      7  C   UNL     1       2.143   4.741  19.619  0.00  0.00    +0.000 A 
ATOM      8  C   UNL     1       2.444   3.391  19.117  0.00  0.00    +0.000 A 
ATOM      9  O   UNL     1       1.954   2.402  19.646  0.00  0.00    +0.000 OA
ATOM     10  O   UNL     1       3.300   3.311  18.033  0.00  0.00    +0.000 OA
ATOM     11  C   UNL     1       3.845   4.471  17.444  0.00  0.00    +0.000 A 
ATOM     12  C   UNL     1       4.720   4.255  16.374  0.00  0.00    +0.000 A 
ENDROOT
BRANCH   1  13
ATOM     13  O   UNL     1       6.244   5.277  14.754  0.00  0.00    +0.000 OA
BRANCH  13  14
ATOM     14  C   UNL     1       6.518   3.968  14.249  0.00  0.00    +0.000 C 
BRANCH  14  16
ATOM     15  C   UNL     1       5.446   3.226  12.091  0.00  0.00    +0.000 C 
ATOM     16  C   UNL     1       6.548   4.056  12.725  0.00  0.00    +0.000 C 
ENDBRANCH  14  16
ENDBRANCH  13  14
ENDBRANCH   1  13
TORSDOF 3
ENDMDL
MODEL 9
REMARK VINA RESULT:      -6.6      2.329      6.120
REMARK  Name = 
REMARK  5 active torsions:
REMARK  status: ('A' for Active; 'I' for Inactive)
REMARK    1  A    between atoms: C_1  and  C_2
REMARK    2  A    between atoms: C_2  and  C_3
REMARK    3  A    between atoms: C_3  and  O_4
REMARK    4  A    between atoms: O_4  and  C_5
REMARK    5  A    between atoms: C_9  and  C_10
REMARK                            x       y       z     vdW  Elec       q    Type
REMARK                         _______ _______ _______ _____ _____    ______ ____
ROOT
ATOM      1  C   UNL     1       3.596   3.168  18.519  0.00  0.00    +0.000 A 
ATOM      2  C   UNL     1       4.291   3.811  19.544  0.00  0.00    +0.000 A 
ATOM      3  C   UNL     1       5.412   4.604  19.266  0.00  0.00    +0.000 A 
ATOM      4  C   UNL     1       5.854   4.790  17.952  0.00  0.00    +0.000 A 
ATOM      5  C   UNL     1       6.990   5.642  17.570  0.00  0.00    +0.000 A 
ATOM      6  C   UNL     1       7.797   6.414  18.574  0.00  0.00    +0.000 C 
ATOM      7  C   UNL     1       7.296   5.743  16.267  0.00  0.00    +0.000 A 
ATOM      8  C   UNL     1       6.568   5.044  15.196  0.00  0.00    +0.000 A 
ATOM      9  O   UNL     1       6.904   5.169  14.025  0.00  0.00    +0.000 OA
ATOM     10  O   UNL     1       5.501   4.255  15.585  0.00  0.00    +0.000 OA
ATOM     11  C   UNL     1       5.142   4.129  16.944  0.00  0.00    +0.000 A 
ATOM     12  C   UNL     1       4.027   3.326  17.206  0.00  0.00    +0.000 A 
ENDROOT
BRANCH   1  13
ATOM     13  O   UNL     1       2.481   2.482  18.906  0.00  0.00    +0.000 OA
BRANCH  13  14
ATOM     14  C   UNL     1       1.241   3.177  18.764  0.00  0.00    +0.000 C 
BRANCH  14  16
ATOM     15  C   UNL     1       1.283   2.785  21.254  0.00  0.00    +0.000 C 
ATOM     16  C   UNL     1       0.853   3.718  20.137  0.00  0.00    +0.000 C 
ENDBRANCH  14  16
ENDBRANCH  13  14
ENDBRANCH   1  13
TORSDOF 3
ENDMDL
