MODEL 1
REMARK VINA RESULT:      -8.1      0.000      0.000
REMARK  Name = 
REMARK  7 active torsions:
REMARK  status: ('A' for Active; 'I' for Inactive)
REMARK    1  A    between atoms: C_1  and  C_2
REMARK    2  A    between atoms: C_5  and  C_6
REMARK    3  A    between atoms: C_7  and  N_8
REMARK    4  A    between atoms: C_12  and  C_14
REMARK    5  A    between atoms: C_14  and  C_15
REMARK    6  A    between atoms: C_14  and  N_22
REMARK    7  A    between atoms: C_15  and  C_16
REMARK                            x       y       z     vdW  Elec       q    Type
REMARK                         _______ _______ _______ _____ _____    ______ ____
ROOT
ATOM      1  N   UNL     1       0.035   9.561  19.051  0.00  0.00    +0.000 N 
ATOM      2  C   UNL     1       0.892   8.869  18.076  0.00  0.00    +0.000 C 
ATOM      3  C   UNL     1       2.253   8.549  18.724  0.00  0.00    +0.000 C 
ATOM      4  N   UNL     1       2.065   7.756  19.947  0.00  0.00    +0.000 N 
ATOM      5  C   UNL     1       2.312   6.392  20.106  0.00  0.00    +0.000 C 
ATOM      6  O   UNL     1       2.054   5.825  21.171  0.00  0.00    +0.000 OA
ATOM      7  C   UNL     1       1.222   8.452  20.936  0.00  0.00    +0.000 C 
ATOM      8  C   UNL     1      -0.157   8.823  20.323  0.00  0.00    +0.000 C 
ENDROOT
BRANCH   1  15
ATOM      9  C   UNL     1      -3.288  10.246  15.516  0.00  0.00    +0.000 C 
ATOM     10  C   UNL     1      -2.740  10.646  16.854  0.00  0.00    +0.000 A 
ATOM     11  C   UNL     1      -3.328  11.668  17.591  0.00  0.00    +0.000 A 
ATOM     12  C   UNL     1      -2.767  12.053  18.807  0.00  0.00    +0.000 A 
ATOM     13  C   UNL     1      -1.610  11.428  19.319  0.00  0.00    +0.000 A 
ATOM     14  C   UNL     1      -1.025  12.022  20.573  0.00  0.00    +0.000 C 
ATOM     15  C   UNL     1      -1.030  10.351  18.616  0.00  0.00    +0.000 A 
ATOM     16  C   UNL     1      -1.606  10.005  17.373  0.00  0.00    +0.000 A 
ENDBRANCH   1  15
BRANCH   5  17
ATOM     17  C   UNL     1       2.818   5.583  18.893  0.00  0.00    +0.000 C 
BRANCH  17  18
ATOM     18  N   UNL     1       2.276   4.216  18.980  0.00  0.00    +0.000 N 
ATOM     19  C   UNL     1       1.148   3.765  18.340  0.00  0.00    +0.000 A 
ATOM     20  C   UNL     1       0.992   2.430  18.654  0.00  0.00    +0.000 A 
ATOM     21  C   UNL     1       2.063   2.060  19.497  0.00  0.00    +0.000 A 
ATOM     22  C   UNL     1       2.839   3.181  19.686  0.00  0.00    +0.000 A 
ENDBRANCH  17  18
BRANCH  17  23
ATOM     23  C   UNL     1       4.353   5.505  18.770  0.00  0.00    +0.000 C 
BRANCH  23  24
ATOM     24  C   UNL     1       4.838   5.298  17.355  0.00  0.00    +0.000 A 
ATOM     25  C   UNL     1       5.241   4.022  16.942  0.00  0.00    +0.000 A 
ATOM     26  C   UNL     1       5.742   3.815  15.659  0.00  0.00    +0.000 A 
ATOM     27  C   UNL     1       5.839   4.881  14.769  0.00  0.00    +0.000 A 
ATOM     28  C   UNL     1       5.417   6.152  15.157  0.00  0.00    +0.000 A 
ATOM     29  C   UNL     1       4.917   6.362  16.444  0.00  0.00    +0.000 A 
ENDBRANCH  23  24
ENDBRANCH  17  23
ENDBRANCH   5  17
TORSDOF 5
ENDMDL
MODEL 2
REMARK VINA RESULT:      -7.9      0.335      1.174
REMARK  Name = 
REMARK  7 active torsions:
REMARK  status: ('A' for Active; 'I' for Inactive)
REMARK    1  A    between atoms: C_1  and  C_2
REMARK    2  A    between atoms: C_5  and  C_6
REMARK    3  A    between atoms: C_7  and  N_8
REMARK    4  A    between atoms: C_12  and  C_14
REMARK    5  A    between atoms: C_14  and  C_15
REMARK    6  A    between atoms: C_14  and  N_22
REMARK    7  A    between atoms: C_15  and  C_16
REMARK                            x       y       z     vdW  Elec       q    Type
REMARK                         _______ _______ _______ _____ _____    ______ ____
ROOT
ATOM      1  N   UNL     1       0.337   9.483  18.916  0.00  0.00    +0.000 N 
ATOM      2  C   UNL     1       1.186   8.762  17.956  0.00  0.00    +0.000 C 
ATOM      3  C   UNL     1       2.520   8.388  18.631  0.00  0.00    +0.000 C 
ATOM      4  N   UNL     1       2.278   7.600  19.847  0.00  0.00    +0.000 N 
ATOM      5  C   UNL     1       2.470   6.227  20.006  0.00  0.00    +0.000 C 
ATOM      6  O   UNL     1       2.168   5.668  21.065  0.00  0.00    +0.000 OA
ATOM      7  C   UNL     1       1.442   8.326  20.821  0.00  0.00    +0.000 C 
ATOM      8  C   UNL     1       0.091   8.750  20.182  0.00  0.00    +0.000 C 
ENDROOT
BRANCH   1  15
ATOM      9  C   UNL     1      -3.186  10.067  15.561  0.00  0.00    +0.000 C 
ATOM     10  C   UNL     1      -2.502  10.565  16.799  0.00  0.00    +0.000 A 
ATOM     11  C   UNL     1      -2.940  11.715  17.445  0.00  0.00    +0.000 A 
ATOM     12  C   UNL     1      -2.254  12.183  18.564  0.00  0.00    +0.000 A 
ATOM     13  C   UNL     1      -1.117  11.515  19.068  0.00  0.00    +0.000 A 
ATOM     14  C   UNL     1      -0.386  12.192  20.196  0.00  0.00    +0.000 C 
ATOM     15  C   UNL     1      -0.689  10.315  18.462  0.00  0.00    +0.000 A 
ATOM     16  C   UNL     1      -1.389   9.884  17.313  0.00  0.00    +0.000 A 
ENDBRANCH   1  15
BRANCH   5  17
ATOM     17  C   UNL     1       2.968   5.402  18.801  0.00  0.00    +0.000 C 
BRANCH  17  18
ATOM     18  N   UNL     1       2.354   4.065  18.860  0.00  0.00    +0.000 N 
ATOM     19  C   UNL     1       2.951   2.936  19.364  0.00  0.00    +0.000 A 
ATOM     20  C   UNL     1       2.045   1.900  19.263  0.00  0.00    +0.000 A 
ATOM     21  C   UNL     1       0.862   2.420  18.692  0.00  0.00    +0.000 A 
ATOM     22  C   UNL     1       1.080   3.756  18.449  0.00  0.00    +0.000 A 
ENDBRANCH  17  18
BRANCH  17  23
ATOM     23  C   UNL     1       4.500   5.245  18.722  0.00  0.00    +0.000 C 
BRANCH  23  24
ATOM     24  C   UNL     1       5.026   5.123  17.312  0.00  0.00    +0.000 A 
ATOM     25  C   UNL     1       4.941   6.221  16.446  0.00  0.00    +0.000 A 
ATOM     26  C   UNL     1       5.371   6.119  15.125  0.00  0.00    +0.000 A 
ATOM     27  C   UNL     1       5.899   4.919  14.655  0.00  0.00    +0.000 A 
ATOM     28  C   UNL     1       6.014   3.827  15.513  0.00  0.00    +0.000 A 
ATOM     29  C   UNL     1       5.581   3.926  16.838  0.00  0.00    +0.000 A 
ENDBRANCH  23  24
ENDBRANCH  17  23
ENDBRANCH   5  17
TORSDOF 5
ENDMDL
MODEL 3
REMARK VINA RESULT:      -7.2      1.482      1.963
REMARK  Name = 
REMARK  7 active torsions:
REMARK  status: ('A' for Active; 'I' for Inactive)
REMARK    1  A    between atoms: C_1  and  C_2
REMARK    2  A    between atoms: C_5  and  C_6
REMARK    3  A    between atoms: C_7  and  N_8
REMARK    4  A    between atoms: C_12  and  C_14
REMARK    5  A    between atoms: C_14  and  C_15
REMARK    6  A    between atoms: C_14  and  N_22
REMARK    7  A    between atoms: C_15  and  C_16
REMARK                            x       y       z     vdW  Elec       q    Type
REMARK                         _______ _______ _______ _____ _____    ______ ____
ROOT
ATOM      1  N   UNL     1       1.062   9.180  18.716  0.00  0.00    +0.000 N 
ATOM      2  C   UNL     1       1.747   8.345  17.718  0.00  0.00    +0.000 C 
ATOM      3  C   UNL     1       3.099   7.871  18.285  0.00  0.00    +0.000 C 
ATOM      4  N   UNL     1       2.901   7.156  19.554  0.00  0.00    +0.000 N 
ATOM      5  C   UNL     1       2.981   5.778  19.758  0.00  0.00    +0.000 C 
ATOM      6  O   UNL     1       2.731   5.290  20.864  0.00  0.00    +0.000 OA
ATOM      7  C   UNL     1       2.232   7.994  20.565  0.00  0.00    +0.000 C 
ATOM      8  C   UNL     1       0.871   8.522  20.032  0.00  0.00    +0.000 C 
ENDROOT
BRANCH   1  15
ATOM      9  C   UNL     1      -3.022   9.795  16.080  0.00  0.00    +0.000 C 
ATOM     10  C   UNL     1      -2.015  10.366  17.034  0.00  0.00    +0.000 A 
ATOM     11  C   UNL     1      -2.141  11.665  17.513  0.00  0.00    +0.000 A 
ATOM     12  C   UNL     1      -1.163  12.187  18.358  0.00  0.00    +0.000 A 
ATOM     13  C   UNL     1      -0.040  11.427  18.748  0.00  0.00    +0.000 A 
ATOM     14  C   UNL     1       1.011  12.146  19.552  0.00  0.00    +0.000 C 
ATOM     15  C   UNL     1       0.079  10.088  18.320  0.00  0.00    +0.000 A 
ATOM     16  C   UNL     1      -0.914   9.599  17.441  0.00  0.00    +0.000 A 
ENDBRANCH   1  15
BRANCH   5  17
ATOM     17  C   UNL     1       3.285   4.864  18.552  0.00  0.00    +0.000 C 
BRANCH  17  18
ATOM     18  N   UNL     1       2.356   3.722  18.581  0.00  0.00    +0.000 N 
ATOM     19  C   UNL     1       2.717   2.406  18.730  0.00  0.00    +0.000 A 
ATOM     20  C   UNL     1       1.562   1.651  18.732  0.00  0.00    +0.000 A 
ATOM     21  C   UNL     1       0.470   2.536  18.591  0.00  0.00    +0.000 A 
ATOM     22  C   UNL     1       0.987   3.807  18.496  0.00  0.00    +0.000 A 
ENDBRANCH  17  18
BRANCH  17  23
ATOM     23  C   UNL     1       4.731   4.331  18.501  0.00  0.00    +0.000 C 
BRANCH  23  24
ATOM     24  C   UNL     1       5.765   5.403  18.255  0.00  0.00    +0.000 A 
ATOM     25  C   UNL     1       5.625   6.258  17.155  0.00  0.00    +0.000 A 
ATOM     26  C   UNL     1       6.592   7.221  16.875  0.00  0.00    +0.000 A 
ATOM     27  C   UNL     1       7.708   7.347  17.698  0.00  0.00    +0.000 A 
ATOM     28  C   UNL     1       7.846   6.521  18.812  0.00  0.00    +0.000 A 
ATOM     29  C   UNL     1       6.880   5.552  19.093  0.00  0.00    +0.000 A 
ENDBRANCH  23  24
ENDBRANCH  17  23
ENDBRANCH   5  17
TORSDOF 5
ENDMDL
MODEL 4
REMARK VINA RESULT:      -7.2      2.639      9.077
REMARK  Name = 
REMARK  7 active torsions:
REMARK  status: ('A' for Active; 'I' for Inactive)
REMARK    1  A    between atoms: C_1  and  C_2
REMARK    2  A    between atoms: C_5  and  C_6
REMARK    3  A    between atoms: C_7  and  N_8
REMARK    4  A    between atoms: C_12  and  C_14
REMARK    5  A    between atoms: C_14  and  C_15
REMARK    6  A    between atoms: C_14  and  N_22
REMARK    7  A    between atoms: C_15  and  C_16
REMARK                            x       y       z     vdW  Elec       q    Type
REMARK                         _______ _______ _______ _____ _____    ______ ____
ROOT
ATOM      1  N   UNL     1       1.947   8.952  19.068  0.00  0.00    +0.000 N 
ATOM      2  C   UNL     1       0.711   8.991  19.865  0.00  0.00    +0.000 C 
ATOM      3  C   UNL     1       0.548  10.390  20.491  0.00  0.00    +0.000 C 
ATOM      4  N   UNL     1       0.561  11.424  19.448  0.00  0.00    +0.000 N 
ATOM      5  C   UNL     1      -0.537  12.139  18.966  0.00  0.00    +0.000 C 
ATOM      6  O   UNL     1      -0.407  12.942  18.038  0.00  0.00    +0.000 OA
ATOM      7  C   UNL     1       1.805  11.401  18.658  0.00  0.00    +0.000 C 
ATOM      8  C   UNL     1       2.032  10.001  18.024  0.00  0.00    +0.000 C 
ENDROOT
BRANCH   1  15
ATOM      9  C   UNL     1       4.985   6.585  16.039  0.00  0.00    +0.000 C 
ATOM     10  C   UNL     1       4.145   6.568  17.282  0.00  0.00    +0.000 A 
ATOM     11  C   UNL     1       4.084   5.437  18.088  0.00  0.00    +0.000 A 
ATOM     12  C   UNL     1       3.256   5.431  19.208  0.00  0.00    +0.000 A 
ATOM     13  C   UNL     1       2.473   6.553  19.555  0.00  0.00    +0.000 A 
ATOM     14  C   UNL     1       1.521   6.377  20.708  0.00  0.00    +0.000 C 
ATOM     15  C   UNL     1       2.563   7.731  18.784  0.00  0.00    +0.000 A 
ATOM     16  C   UNL     1       3.388   7.693  17.638  0.00  0.00    +0.000 A 
ENDBRANCH   1  15
BRANCH   5  17
ATOM     17  C   UNL     1      -1.935  11.832  19.543  0.00  0.00    +0.000 C 
BRANCH  17  18
ATOM     18  N   UNL     1      -2.755  11.214  18.488  0.00  0.00    +0.000 N 
ATOM     19  C   UNL     1      -4.000  11.640  18.096  0.00  0.00    +0.000 A 
ATOM     20  C   UNL     1      -4.421  10.819  17.069  0.00  0.00    +0.000 A 
ATOM     21  C   UNL     1      -3.396   9.877  16.826  0.00  0.00    +0.000 A 
ATOM     22  C   UNL     1      -2.382  10.140  17.717  0.00  0.00    +0.000 A 
ENDBRANCH  17  18
BRANCH  17  23
ATOM     23  C   UNL     1      -2.681  13.061  20.100  0.00  0.00    +0.000 C 
BRANCH  23  24
ATOM     24  C   UNL     1      -3.248  12.852  21.484  0.00  0.00    +0.000 A 
ATOM     25  C   UNL     1      -4.575  13.214  21.749  0.00  0.00    +0.000 A 
ATOM     26  C   UNL     1      -5.106  13.079  23.030  0.00  0.00    +0.000 A 
ATOM     27  C   UNL     1      -4.320  12.573  24.061  0.00  0.00    +0.000 A 
ATOM     28  C   UNL     1      -3.005  12.183  23.805  0.00  0.00    +0.000 A 
ATOM     29  C   UNL     1      -2.470  12.320  22.522  0.00  0.00    +0.000 A 
ENDBRANCH  23  24
ENDBRANCH  17  23
ENDBRANCH   5  17
TORSDOF 5
ENDMDL
MODEL 5
REMARK VINA RESULT:      -7.2      1.269      1.584
REMARK  Name = 
REMARK  7 active torsions:
REMARK  status: ('A' for Active; 'I' for Inactive)
REMARK    1  A    between atoms: C_1  and  C_2
REMARK    2  A    between atoms: C_5  and  C_6
REMARK    3  A    between atoms: C_7  and  N_8
REMARK    4  A    between atoms: C_12  and  C_14
REMARK    5  A    between atoms: C_14  and  C_15
REMARK    6  A    between atoms: C_14  and  N_22
REMARK    7  A    between atoms: C_15  and  C_16
REMARK                            x       y       z     vdW  Elec       q    Type
REMARK                         _______ _______ _______ _____ _____    ______ ____
ROOT
ATOM      1  N   UNL     1       0.593   9.304  18.839  0.00  0.00    +0.000 N 
ATOM      2  C   UNL     1       1.410   8.484  17.932  0.00  0.00    +0.000 C 
ATOM      3  C   UNL     1       2.734   8.112  18.627  0.00  0.00    +0.000 C 
ATOM      4  N   UNL     1       2.471   7.425  19.898  0.00  0.00    +0.000 N 
ATOM      5  C   UNL     1       2.614   6.061  20.156  0.00  0.00    +0.000 C 
ATOM      6  O   UNL     1       2.300   5.591  21.254  0.00  0.00    +0.000 OA
ATOM      7  C   UNL     1       1.668   8.249  20.820  0.00  0.00    +0.000 C 
ATOM      8  C   UNL     1       0.329   8.675  20.157  0.00  0.00    +0.000 C 
ENDROOT
BRANCH   1  15
ATOM      9  C   UNL     1      -2.995   9.730  15.530  0.00  0.00    +0.000 C 
ATOM     10  C   UNL     1      -2.252  10.313  16.695  0.00  0.00    +0.000 A 
ATOM     11  C   UNL     1      -2.616  11.541  17.234  0.00  0.00    +0.000 A 
ATOM     12  C   UNL     1      -1.876  12.083  18.283  0.00  0.00    +0.000 A 
ATOM     13  C   UNL     1      -0.758  11.411  18.823  0.00  0.00    +0.000 A 
ATOM     14  C   UNL     1       0.037  12.159  19.860  0.00  0.00    +0.000 C 
ATOM     15  C   UNL     1      -0.405  10.137  18.330  0.00  0.00    +0.000 A 
ATOM     16  C   UNL     1      -1.157   9.631  17.247  0.00  0.00    +0.000 A 
ENDBRANCH   1  15
BRANCH   5  17
ATOM     17  C   UNL     1       3.075   5.133  19.013  0.00  0.00    +0.000 C 
BRANCH  17  18
ATOM     18  N   UNL     1       2.143   3.995  18.924  0.00  0.00    +0.000 N 
ATOM     19  C   UNL     1       2.321   2.881  18.143  0.00  0.00    +0.000 A 
ATOM     20  C   UNL     1       1.247   2.041  18.360  0.00  0.00    +0.000 A 
ATOM     21  C   UNL     1       0.401   2.661  19.307  0.00  0.00    +0.000 A 
ATOM     22  C   UNL     1       0.975   3.867  19.636  0.00  0.00    +0.000 A 
ENDBRANCH  17  18
BRANCH  17  23
ATOM     23  C   UNL     1       4.511   4.591  19.166  0.00  0.00    +0.000 C 
BRANCH  23  24
ATOM     24  C   UNL     1       5.564   5.483  18.557  0.00  0.00    +0.000 A 
ATOM     25  C   UNL     1       6.824   5.577  19.162  0.00  0.00    +0.000 A 
ATOM     26  C   UNL     1       7.797   6.433  18.650  0.00  0.00    +0.000 A 
ATOM     27  C   UNL     1       7.526   7.200  17.521  0.00  0.00    +0.000 A 
ATOM     28  C   UNL     1       6.285   7.097  16.892  0.00  0.00    +0.000 A 
ATOM     29  C   UNL     1       5.307   6.241  17.405  0.00  0.00    +0.000 A 
ENDBRANCH  23  24
ENDBRANCH  17  23
ENDBRANCH   5  17
TORSDOF 5
ENDMDL
MODEL 6
REMARK VINA RESULT:      -7.0      2.793      4.791
REMARK  Name = 
REMARK  7 active torsions:
REMARK  status: ('A' for Active; 'I' for Inactive)
REMARK    1  A    between atoms: C_1  and  C_2
REMARK    2  A    between atoms: C_5  and  C_6
REMARK    3  A    between atoms: C_7  and  N_8
REMARK    4  A    between atoms: C_12  and  C_14
REMARK    5  A    between atoms: C_14  and  C_15
REMARK    6  A    between atoms: C_14  and  N_22
REMARK    7  A    between atoms: C_15  and  C_16
REMARK                            x       y       z     vdW  Elec       q    Type
REMARK                         _______ _______ _______ _____ _____    ______ ____
ROOT
ATOM      1  N   UNL     1       1.232   9.159  19.822  0.00  0.00    +0.000 N 
ATOM      2  C   UNL     1       1.851   7.990  20.465  0.00  0.00    +0.000 C 
ATOM      3  C   UNL     1       1.771   6.779  19.515  0.00  0.00    +0.000 C 
ATOM      4  N   UNL     1       2.404   7.095  18.227  0.00  0.00    +0.000 N 
ATOM      5  C   UNL     1       3.645   6.645  17.773  0.00  0.00    +0.000 C 
ATOM      6  O   UNL     1       4.098   7.033  16.692  0.00  0.00    +0.000 OA
ATOM      7  C   UNL     1       1.776   8.255  17.569  0.00  0.00    +0.000 C 
ATOM      8  C   UNL     1       1.806   9.500  18.497  0.00  0.00    +0.000 C 
ENDROOT
BRANCH   1  15
ATOM      9  C   UNL     1       1.235  14.024  20.402  0.00  0.00    +0.000 C 
ATOM     10  C   UNL     1       0.725  12.683  20.838  0.00  0.00    +0.000 A 
ATOM     11  C   UNL     1      -0.195  12.570  21.874  0.00  0.00    +0.000 A 
ATOM     12  C   UNL     1      -0.612  11.308  22.293  0.00  0.00    +0.000 A 
ATOM     13  C   UNL     1      -0.127  10.130  21.687  0.00  0.00    +0.000 A 
ATOM     14  C   UNL     1      -0.550   8.829  22.315  0.00  0.00    +0.000 C 
ATOM     15  C   UNL     1       0.763  10.222  20.596  0.00  0.00    +0.000 A 
ATOM     16  C   UNL     1       1.189  11.515  20.216  0.00  0.00    +0.000 A 
ENDBRANCH   1  15
BRANCH   5  17
ATOM     17  C   UNL     1       4.488   5.736  18.692  0.00  0.00    +0.000 C 
BRANCH  17  18
ATOM     18  N   UNL     1       5.904   6.119  18.562  0.00  0.00    +0.000 N 
ATOM     19  C   UNL     1       6.938   5.605  19.305  0.00  0.00    +0.000 A 
ATOM     20  C   UNL     1       8.105   6.196  18.866  0.00  0.00    +0.000 A 
ATOM     21  C   UNL     1       7.769   7.085  17.821  0.00  0.00    +0.000 A 
ATOM     22  C   UNL     1       6.404   7.021  17.655  0.00  0.00    +0.000 A 
ENDBRANCH  17  18
BRANCH  17  23
ATOM     23  C   UNL     1       4.349   4.228  18.403  0.00  0.00    +0.000 C 
BRANCH  23  24
ATOM     24  C   UNL     1       3.088   3.616  18.963  0.00  0.00    +0.000 A 
ATOM     25  C   UNL     1       2.983   3.390  20.341  0.00  0.00    +0.000 A 
ATOM     26  C   UNL     1       1.852   2.779  20.877  0.00  0.00    +0.000 A 
ATOM     27  C   UNL     1       0.806   2.393  20.043  0.00  0.00    +0.000 A 
ATOM     28  C   UNL     1       0.886   2.637  18.672  0.00  0.00    +0.000 A 
ATOM     29  C   UNL     1       2.020   3.247  18.132  0.00  0.00    +0.000 A 
ENDBRANCH  23  24
ENDBRANCH  17  23
ENDBRANCH   5  17
TORSDOF 5
ENDMDL
MODEL 7
REMARK VINA RESULT:      -7.0      2.780      4.760
REMARK  Name = 
REMARK  7 active torsions:
REMARK  status: ('A' for Active; 'I' for Inactive)
REMARK    1  A    between atoms: C_1  and  C_2
REMARK    2  A    between atoms: C_5  and  C_6
REMARK    3  A    between atoms: C_7  and  N_8
REMARK    4  A    between atoms: C_12  and  C_14
REMARK    5  A    between atoms: C_14  and  C_15
REMARK    6  A    between atoms: C_14  and  N_22
REMARK    7  A    between atoms: C_15  and  C_16
REMARK                            x       y       z     vdW  Elec       q    Type
REMARK                         _______ _______ _______ _____ _____    ______ ____
ROOT
ATOM      1  N   UNL     1       1.262   9.112  19.803  0.00  0.00    +0.000 N 
ATOM      2  C   UNL     1       1.921   7.986  20.483  0.00  0.00    +0.000 C 
ATOM      3  C   UNL     1       1.833   6.728  19.597  0.00  0.00    +0.000 C 
ATOM      4  N   UNL     1       2.420   6.989  18.276  0.00  0.00    +0.000 N 
ATOM      5  C   UNL     1       3.654   6.537  17.805  0.00  0.00    +0.000 C 
ATOM      6  O   UNL     1       4.066   6.878  16.692  0.00  0.00    +0.000 OA
ATOM      7  C   UNL     1       1.752   8.104  17.581  0.00  0.00    +0.000 C 
ATOM      8  C   UNL     1       1.788   9.394  18.445  0.00  0.00    +0.000 C 
ENDROOT
BRANCH   1  15
ATOM      9  C   UNL     1       1.265  13.996  20.187  0.00  0.00    +0.000 C 
ATOM     10  C   UNL     1       0.760  12.673  20.681  0.00  0.00    +0.000 A 
ATOM     11  C   UNL     1      -0.150  12.601  21.729  0.00  0.00    +0.000 A 
ATOM     12  C   UNL     1      -0.562  11.357  22.202  0.00  0.00    +0.000 A 
ATOM     13  C   UNL     1      -0.081  10.155  21.639  0.00  0.00    +0.000 A 
ATOM     14  C   UNL     1      -0.497   8.880  22.323  0.00  0.00    +0.000 C 
ATOM     15  C   UNL     1       0.799  10.205  20.537  0.00  0.00    +0.000 A 
ATOM     16  C   UNL     1       1.220  11.481  20.102  0.00  0.00    +0.000 A 
ENDBRANCH   1  15
BRANCH   5  17
ATOM     17  C   UNL     1       4.541   5.689  18.740  0.00  0.00    +0.000 C 
BRANCH  17  18
ATOM     18  N   UNL     1       5.942   6.107  18.568  0.00  0.00    +0.000 N 
ATOM     19  C   UNL     1       6.394   7.010  17.638  0.00  0.00    +0.000 A 
ATOM     20  C   UNL     1       7.756   7.149  17.815  0.00  0.00    +0.000 A 
ATOM     21  C   UNL     1       8.136   6.315  18.890  0.00  0.00    +0.000 A 
ATOM     22  C   UNL     1       6.999   5.679  19.334  0.00  0.00    +0.000 A 
ENDBRANCH  17  18
BRANCH  17  23
ATOM     23  C   UNL     1       4.441   4.167  18.512  0.00  0.00    +0.000 C 
BRANCH  23  24
ATOM     24  C   UNL     1       3.178   3.552  19.064  0.00  0.00    +0.000 A 
ATOM     25  C   UNL     1       2.128   3.234  18.194  0.00  0.00    +0.000 A 
ATOM     26  C   UNL     1       0.932   2.713  18.683  0.00  0.00    +0.000 A 
ATOM     27  C   UNL     1       0.774   2.496  20.049  0.00  0.00    +0.000 A 
ATOM     28  C   UNL     1       1.822   2.782  20.924  0.00  0.00    +0.000 A 
ATOM     29  C   UNL     1       3.020   3.307  20.436  0.00  0.00    +0.000 A 
ENDBRANCH  23  24
ENDBRANCH  17  23
ENDBRANCH   5  17
TORSDOF 5
ENDMDL
MODEL 8
REMARK VINA RESULT:      -6.9      1.475      2.042
REMARK  Name = 
REMARK  7 active torsions:
REMARK  status: ('A' for Active; 'I' for Inactive)
REMARK    1  A    between atoms: C_1  and  C_2
REMARK    2  A    between atoms: C_5  and  C_6
REMARK    3  A    between atoms: C_7  and  N_8
REMARK    4  A    between atoms: C_12  and  C_14
REMARK    5  A    between atoms: C_14  and  C_15
REMARK    6  A    between atoms: C_14  and  N_22
REMARK    7  A    between atoms: C_15  and  C_16
REMARK                            x       y       z     vdW  Elec       q    Type
REMARK                         _______ _______ _______ _____ _____    ______ ____
ROOT
ATOM      1  N   UNL     1       0.874   9.481  18.848  0.00  0.00    +0.000 N 
ATOM      2  C   UNL     1       1.182   8.723  17.625  0.00  0.00    +0.000 C 
ATOM      3  C   UNL     1       2.649   8.253  17.669  0.00  0.00    +0.000 C 
ATOM      4  N   UNL     1       2.898   7.461  18.881  0.00  0.00    +0.000 N 
ATOM      5  C   UNL     1       3.050   6.076  18.959  0.00  0.00    +0.000 C 
ATOM      6  O   UNL     1       3.193   5.519  20.051  0.00  0.00    +0.000 OA
ATOM      7  C   UNL     1       2.608   8.221  20.111  0.00  0.00    +0.000 C 
ATOM      8  C   UNL     1       1.145   8.743  20.106  0.00  0.00    +0.000 C 
ENDROOT
BRANCH   1  15
ATOM      9  C   UNL     1      -3.627  10.436  17.163  0.00  0.00    +0.000 C 
ATOM     10  C   UNL     1      -2.485  10.821  18.056  0.00  0.00    +0.000 A 
ATOM     11  C   UNL     1      -2.563  11.945  18.871  0.00  0.00    +0.000 A 
ATOM     12  C   UNL     1      -1.468  12.309  19.651  0.00  0.00    +0.000 A 
ATOM     13  C   UNL     1      -0.271  11.560  19.643  0.00  0.00    +0.000 A 
ATOM     14  C   UNL     1       0.883  12.129  20.424  0.00  0.00    +0.000 C 
ATOM     15  C   UNL     1      -0.190  10.384  18.867  0.00  0.00    +0.000 A 
ATOM     16  C   UNL     1      -1.307  10.060  18.065  0.00  0.00    +0.000 A 
ENDBRANCH   1  15
BRANCH   5  17
ATOM     17  C   UNL     1       2.930   5.242  17.666  0.00  0.00    +0.000 C 
BRANCH  17  18
ATOM     18  N   UNL     1       2.518   3.874  18.024  0.00  0.00    +0.000 N 
ATOM     19  C   UNL     1       1.279   3.513  18.491  0.00  0.00    +0.000 A 
ATOM     20  C   UNL     1       1.284   2.146  18.682  0.00  0.00    +0.000 A 
ATOM     21  C   UNL     1       2.559   1.666  18.309  0.00  0.00    +0.000 A 
ATOM     22  C   UNL     1       3.303   2.752  17.911  0.00  0.00    +0.000 A 
ENDBRANCH  17  18
BRANCH  17  23
ATOM     23  C   UNL     1       4.222   5.172  16.827  0.00  0.00    +0.000 C 
BRANCH  23  24
ATOM     24  C   UNL     1       5.445   5.680  17.552  0.00  0.00    +0.000 A 
ATOM     25  C   UNL     1       6.079   6.845  17.102  0.00  0.00    +0.000 A 
ATOM     26  C   UNL     1       7.239   7.307  17.720  0.00  0.00    +0.000 A 
ATOM     27  C   UNL     1       7.775   6.615  18.802  0.00  0.00    +0.000 A 
ATOM     28  C   UNL     1       7.139   5.468  19.278  0.00  0.00    +0.000 A 
ATOM     29  C   UNL     1       5.977   5.002  18.658  0.00  0.00    +0.000 A 
ENDBRANCH  23  24
ENDBRANCH  17  23
ENDBRANCH   5  17
TORSDOF 5
ENDMDL
MODEL 9
REMARK VINA RESULT:      -6.8      2.426      8.839
REMARK  Name = 
REMARK  7 active torsions:
REMARK  status: ('A' for Active; 'I' for Inactive)
REMARK    1  A    between atoms: C_1  and  C_2
REMARK    2  A    between atoms: C_5  and  C_6
REMARK    3  A    between atoms: C_7  and  N_8
REMARK    4  A    between atoms: C_12  and  C_14
REMARK    5  A    between atoms: C_14  and  C_15
REMARK    6  A    between atoms: C_14  and  N_22
REMARK    7  A    between atoms: C_15  and  C_16
REMARK                            x       y       z     vdW  Elec       q    Type
REMARK                         _______ _______ _______ _____ _____    ______ ____
ROOT
ATOM      1  N   UNL     1       1.870   8.811  19.024  0.00  0.00    +0.000 N 
ATOM      2  C   UNL     1       0.537   8.758  19.644  0.00  0.00    +0.000 C 
ATOM      3  C   UNL     1       0.238  10.102  20.335  0.00  0.00    +0.000 C 
ATOM      4  N   UNL     1       0.352  11.209  19.377  0.00  0.00    +0.000 N 
ATOM      5  C   UNL     1      -0.697  11.926  18.798  0.00  0.00    +0.000 C 
ATOM      6  O   UNL     1      -0.473  12.798  17.954  0.00  0.00    +0.000 OA
ATOM      7  C   UNL     1       1.692  11.280  18.766  0.00  0.00    +0.000 C 
ATOM      8  C   UNL     1       2.055   9.937  18.075  0.00  0.00    +0.000 C 
ENDROOT
BRANCH   1  15
ATOM      9  C   UNL     1       5.030   6.626  15.984  0.00  0.00    +0.000 C 
ATOM     10  C   UNL     1       4.207   6.565  17.236  0.00  0.00    +0.000 A 
ATOM     11  C   UNL     1       4.231   5.440  18.053  0.00  0.00    +0.000 A 
ATOM     12  C   UNL     1       3.417   5.390  19.183  0.00  0.00    +0.000 A 
ATOM     13  C   UNL     1       2.562   6.459  19.527  0.00  0.00    +0.000 A 
ATOM     14  C   UNL     1       1.637   6.230  20.692  0.00  0.00    +0.000 C 
ATOM     15  C   UNL     1       2.564   7.633  18.744  0.00  0.00    +0.000 A 
ATOM     16  C   UNL     1       3.379   7.640  17.590  0.00  0.00    +0.000 A 
ENDBRANCH   1  15
BRANCH   5  17
ATOM     17  C   UNL     1      -2.147  11.539  19.155  0.00  0.00    +0.000 C 
BRANCH  17  18
ATOM     18  N   UNL     1      -2.832  11.093  17.930  0.00  0.00    +0.000 N 
ATOM     19  C   UNL     1      -4.009  11.606  17.445  0.00  0.00    +0.000 A 
ATOM     20  C   UNL     1      -4.303  10.944  16.270  0.00  0.00    +0.000 A 
ATOM     21  C   UNL     1      -3.268  10.013  16.032  0.00  0.00    +0.000 A 
ATOM     22  C   UNL     1      -2.375  10.122  17.072  0.00  0.00    +0.000 A 
ENDBRANCH  17  18
BRANCH  17  23
ATOM     23  C   UNL     1      -2.971  12.670  19.804  0.00  0.00    +0.000 C 
BRANCH  23  24
ATOM     24  C   UNL     1      -2.372  13.198  21.085  0.00  0.00    +0.000 A 
ATOM     25  C   UNL     1      -2.037  14.555  21.183  0.00  0.00    +0.000 A 
ATOM     26  C   UNL     1      -1.436  15.058  22.334  0.00  0.00    +0.000 A 
ATOM     27  C   UNL     1      -1.169  14.212  23.407  0.00  0.00    +0.000 A 
ATOM     28  C   UNL     1      -1.522  12.865  23.335  0.00  0.00    +0.000 A 
ATOM     29  C   UNL     1      -2.123  12.358  22.180  0.00  0.00    +0.000 A 
ENDBRANCH  23  24
ENDBRANCH  17  23
ENDBRANCH   5  17
TORSDOF 5
ENDMDL
