MODEL 1
REMARK VINA RESULT:      -7.6      0.000      0.000
REMARK  Name = 
REMARK  12 active torsions:
REMARK  status: ('A' for Active; 'I' for Inactive)
REMARK    1  A    between atoms: C_1  and  O_2
REMARK    2  A    between atoms: O_2  and  C_3
REMARK    3  A    between atoms: C_8  and  C_9
REMARK    4  A    between atoms: C_9  and  N_10
REMARK    5  A    between atoms: N_10  and  C_11
REMARK    6  A    between atoms: C_11  and  C_12
REMARK    7  A    between atoms: C_12  and  C_13
REMARK    8  A    between atoms: C_13  and  C_14
REMARK    9  A    between atoms: C_14  and  C_15
REMARK   10  A    between atoms: C_15  and  O_16
REMARK   11  A    between atoms: O_16  and  C_17
REMARK   12  A    between atoms: N_19  and  C_20
REMARK                            x       y       z     vdW  Elec       q    Type
REMARK                         _______ _______ _______ _____ _____    ______ ____
ROOT
ATOM      1  C   UNL     1       1.844   3.839  18.520  0.00  0.00    +0.000 C 
ENDROOT
BRANCH   1   2
ATOM      2  C   UNL     1       1.046   4.030  19.812  0.00  0.00    +0.000 C 
BRANCH   2   3
ATOM      3  C   UNL     1       1.754   4.991  20.772  0.00  0.00    +0.000 C 
BRANCH   3   4
ATOM      4  C   UNL     1       2.450   6.147  20.037  0.00  0.00    +0.000 C 
BRANCH   4   5
ATOM      5  N   UNL     1       2.125   7.401  20.715  0.00  0.00    +0.000 NA
ATOM      6  H   UNL     1       2.789   7.568  21.470  0.00  0.00    +0.000 HD
BRANCH   5   7
ATOM      7  C   UNL     1       0.773   7.421  21.296  0.00  0.00    +0.000 C 
BRANCH   7  13
ATOM      8  C   UNL     1       0.399   9.857  20.531  0.00  0.00    +0.000 A 
ATOM      9  C   UNL     1      -0.138  11.129  20.789  0.00  0.00    +0.000 A 
ATOM     10  C   UNL     1      -0.665  11.445  22.038  0.00  0.00    +0.000 A 
ATOM     11  C   UNL     1      -0.680  10.485  23.042  0.00  0.00    +0.000 A 
ATOM     12  C   UNL     1      -0.205   9.201  22.778  0.00  0.00    +0.000 A 
ATOM     13  C   UNL     1       0.314   8.853  21.514  0.00  0.00    +0.000 A 
BRANCH   8  15
ATOM     14  C   UNL     1       0.262   9.977  18.185  0.00  0.00    +0.000 C 
ATOM     15  O   UNL     1       0.996   9.546  19.335  0.00  0.00    +0.000 OA
ENDBRANCH   8  15
ENDBRANCH   7  13
ENDBRANCH   5   7
ENDBRANCH   4   5
ENDBRANCH   3   4
ENDBRANCH   2   3
ENDBRANCH   1   2
BRANCH   1  16
ATOM     16  C   UNL     1       2.089   2.359  18.218  0.00  0.00    +0.000 C 
BRANCH  16  17
ATOM     17  O   UNL     1       3.356   1.943  18.765  0.00  0.00    +0.000 OA
BRANCH  17  18
ATOM     18  C   UNL     1       4.345   2.865  18.616  0.00  0.00    +0.000 C 
ATOM     19  O   UNL     1       4.904   3.408  19.560  0.00  0.00    +0.000 OA
ATOM     20  N   UNL     1       4.570   3.111  17.291  0.00  0.00    +0.000 N 
ATOM     21  H   UNL     1       3.929   2.642  16.659  0.00  0.00    +0.000 HD
BRANCH  20  22
ATOM     22  C   UNL     1       5.509   4.029  16.768  0.00  0.00    +0.000 A 
ATOM     23  C   UNL     1       6.054   5.061  17.530  0.00  0.00    +0.000 A 
ATOM     24  C   UNL     1       6.931   5.941  16.925  0.00  0.00    +0.000 A 
ATOM     25 CL   UNL     1       7.629   7.230  17.812  0.00  0.00    +0.000 Cl
ATOM     26  N   UNL     1       7.310   5.871  15.637  0.00  0.00    +0.000 NA
ATOM     27  C   UNL     1       6.780   4.856  14.933  0.00  0.00    +0.000 A 
ATOM     28 CL   UNL     1       7.265   4.814  13.287  0.00  0.00    +0.000 Cl
ATOM     29  C   UNL     1       5.900   3.909  15.436  0.00  0.00    +0.000 A 
ENDBRANCH  20  22
ENDBRANCH  17  18
ENDBRANCH  16  17
ENDBRANCH   1  16
TORSDOF 11
ENDMDL
MODEL 2
REMARK VINA RESULT:      -7.5      1.182      1.264
REMARK  Name = 
REMARK  12 active torsions:
REMARK  status: ('A' for Active; 'I' for Inactive)
REMARK    1  A    between atoms: C_1  and  O_2
REMARK    2  A    between atoms: O_2  and  C_3
REMARK    3  A    between atoms: C_8  and  C_9
REMARK    4  A    between atoms: C_9  and  N_10
REMARK    5  A    between atoms: N_10  and  C_11
REMARK    6  A    between atoms: C_11  and  C_12
REMARK    7  A    between atoms: C_12  and  C_13
REMARK    8  A    between atoms: C_13  and  C_14
REMARK    9  A    between atoms: C_14  and  C_15
REMARK   10  A    between atoms: C_15  and  O_16
REMARK   11  A    between atoms: O_16  and  C_17
REMARK   12  A    between atoms: N_19  and  C_20
REMARK                            x       y       z     vdW  Elec       q    Type
REMARK                         _______ _______ _______ _____ _____    ______ ____
ROOT
ATOM      1  C   UNL     1       1.808   2.643  19.964  0.00  0.00    +0.000 C 
ENDROOT
BRANCH   1   2
ATOM      2  C   UNL     1       1.198   3.755  20.822  0.00  0.00    +0.000 C 
BRANCH   2   3
ATOM      3  C   UNL     1       2.206   4.879  21.084  0.00  0.00    +0.000 C 
BRANCH   3   4
ATOM      4  C   UNL     1       2.042   6.053  20.107  0.00  0.00    +0.000 C 
BRANCH   4   5
ATOM      5  N   UNL     1       1.056   6.986  20.651  0.00  0.00    +0.000 NA
ATOM      6  H   UNL     1       0.561   7.450  19.891  0.00  0.00    +0.000 HD
BRANCH   5   7
ATOM      7  C   UNL     1       1.646   8.031  21.504  0.00  0.00    +0.000 C 
BRANCH   7  13
ATOM      8  C   UNL     1       0.311  10.043  20.594  0.00  0.00    +0.000 A 
ATOM      9  C   UNL     1      -0.661  11.035  20.804  0.00  0.00    +0.000 A 
ATOM     10  C   UNL     1      -1.194  11.260  22.071  0.00  0.00    +0.000 A 
ATOM     11  C   UNL     1      -0.775  10.481  23.142  0.00  0.00    +0.000 A 
ATOM     12  C   UNL     1       0.144   9.454  22.933  0.00  0.00    +0.000 A 
ATOM     13  C   UNL     1       0.681   9.195  21.655  0.00  0.00    +0.000 A 
BRANCH   8  15
ATOM     14  C   UNL     1       0.056  10.119  18.256  0.00  0.00    +0.000 C 
ATOM     15  O   UNL     1       0.910   9.856  19.373  0.00  0.00    +0.000 OA
ENDBRANCH   8  15
ENDBRANCH   7  13
ENDBRANCH   5   7
ENDBRANCH   4   5
ENDBRANCH   3   4
ENDBRANCH   2   3
ENDBRANCH   1   2
BRANCH   1  16
ATOM     16  C   UNL     1       0.976   2.371  18.711  0.00  0.00    +0.000 C 
BRANCH  16  17
ATOM     17  O   UNL     1       1.474   3.149  17.604  0.00  0.00    +0.000 OA
BRANCH  17  18
ATOM     18  C   UNL     1       2.821   3.064  17.438  0.00  0.00    +0.000 C 
ATOM     19  O   UNL     1       3.435   2.005  17.466  0.00  0.00    +0.000 OA
ATOM     20  N   UNL     1       3.361   4.310  17.288  0.00  0.00    +0.000 N 
ATOM     21  H   UNL     1       2.702   5.073  17.403  0.00  0.00    +0.000 HD
BRANCH  20  22
ATOM     22  C   UNL     1       4.734   4.600  17.119  0.00  0.00    +0.000 A 
ATOM     23  C   UNL     1       5.563   4.960  18.180  0.00  0.00    +0.000 A 
ATOM     24  C   UNL     1       6.882   5.272  17.916  0.00  0.00    +0.000 A 
ATOM     25 CL   UNL     1       7.946   5.723  19.182  0.00  0.00    +0.000 Cl
ATOM     26  N   UNL     1       7.439   5.246  16.693  0.00  0.00    +0.000 NA
ATOM     27  C   UNL     1       6.620   4.880  15.692  0.00  0.00    +0.000 A 
ATOM     28 CL   UNL     1       7.357   4.885  14.143  0.00  0.00    +0.000 Cl
ATOM     29  C   UNL     1       5.284   4.536  15.840  0.00  0.00    +0.000 A 
ENDBRANCH  20  22
ENDBRANCH  17  18
ENDBRANCH  16  17
ENDBRANCH   1  16
TORSDOF 11
ENDMDL
MODEL 3
REMARK VINA RESULT:      -7.4      5.024      7.790
REMARK  Name = 
REMARK  12 active torsions:
REMARK  status: ('A' for Active; 'I' for Inactive)
REMARK    1  A    between atoms: C_1  and  O_2
REMARK    2  A    between atoms: O_2  and  C_3
REMARK    3  A    between atoms: C_8  and  C_9
REMARK    4  A    between atoms: C_9  and  N_10
REMARK    5  A    between atoms: N_10  and  C_11
REMARK    6  A    between atoms: C_11  and  C_12
REMARK    7  A    between atoms: C_12  and  C_13
REMARK    8  A    between atoms: C_13  and  C_14
REMARK    9  A    between atoms: C_14  and  C_15
REMARK   10  A    between atoms: C_15  and  O_16
REMARK   11  A    between atoms: O_16  and  C_17
REMARK   12  A    between atoms: N_19  and  C_20
REMARK                            x       y       z     vdW  Elec       q    Type
REMARK                         _______ _______ _______ _____ _____    ______ ____
ROOT
ATOM      1  C   UNL     1       7.171   5.805  16.843  0.00  0.00    +0.000 C 
ENDROOT
BRANCH   1   2
ATOM      2  C   UNL     1       5.953   5.904  15.921  0.00  0.00    +0.000 C 
BRANCH   2   3
ATOM      3  C   UNL     1       5.420   4.519  15.543  0.00  0.00    +0.000 C 
BRANCH   3   4
ATOM      4  C   UNL     1       4.235   4.088  16.423  0.00  0.00    +0.000 C 
BRANCH   4   5
ATOM      5  N   UNL     1       4.700   3.084  17.380  0.00  0.00    +0.000 NA
ATOM      6  H   UNL     1       5.536   2.624  17.021  0.00  0.00    +0.000 HD
BRANCH   5   7
ATOM      7  C   UNL     1       3.703   2.041  17.667  0.00  0.00    +0.000 C 
BRANCH   7  13
ATOM      8  C   UNL     1       3.496   2.579  20.182  0.00  0.00    +0.000 A 
ATOM      9  C   UNL     1       2.700   3.000  21.260  0.00  0.00    +0.000 A 
ATOM     10  C   UNL     1       1.321   3.142  21.120  0.00  0.00    +0.000 A 
ATOM     11  C   UNL     1       0.723   2.885  19.894  0.00  0.00    +0.000 A 
ATOM     12  C   UNL     1       1.512   2.526  18.801  0.00  0.00    +0.000 A 
ATOM     13  C   UNL     1       2.911   2.396  18.915  0.00  0.00    +0.000 A 
BRANCH   8  15
ATOM     14  C   UNL     1       5.170   1.182  21.069  0.00  0.00    +0.000 C 
ATOM     15  O   UNL     1       4.844   2.353  20.315  0.00  0.00    +0.000 OA
ENDBRANCH   8  15
ENDBRANCH   7  13
ENDBRANCH   5   7
ENDBRANCH   4   5
ENDBRANCH   3   4
ENDBRANCH   2   3
ENDBRANCH   1   2
BRANCH   1  16
ATOM     16  C   UNL     1       7.002   6.657  18.101  0.00  0.00    +0.000 C 
BRANCH  16  17
ATOM     17  O   UNL     1       8.260   7.259  18.467  0.00  0.00    +0.000 OA
BRANCH  17  18
ATOM     18  C   UNL     1       8.266   8.616  18.364  0.00  0.00    +0.000 C 
ATOM     19  O   UNL     1       7.522   9.235  17.616  0.00  0.00    +0.000 OA
ATOM     20  N   UNL     1       9.234   9.149  19.167  0.00  0.00    +0.000 N 
ATOM     21  H   UNL     1       9.823   8.464  19.631  0.00  0.00    +0.000 HD
BRANCH  20  22
ATOM     22  C   UNL     1       9.540  10.523  19.293  0.00  0.00    +0.000 A 
ATOM     23  C   UNL     1       9.363  11.226  20.483  0.00  0.00    +0.000 A 
ATOM     24  C   UNL     1       9.644  12.579  20.503  0.00  0.00    +0.000 A 
ATOM     25 CL   UNL     1       9.442  13.494  21.938  0.00  0.00    +0.000 Cl
ATOM     26  N   UNL     1      10.090  13.278  19.446  0.00  0.00    +0.000 NA
ATOM     27  C   UNL     1      10.265  12.570  18.317  0.00  0.00    +0.000 A 
ATOM     28 CL   UNL     1      10.809  13.500  16.981  0.00  0.00    +0.000 Cl
ATOM     29  C   UNL     1      10.027  11.210  18.182  0.00  0.00    +0.000 A 
ENDBRANCH  20  22
ENDBRANCH  17  18
ENDBRANCH  16  17
ENDBRANCH   1  16
TORSDOF 11
ENDMDL
MODEL 4
REMARK VINA RESULT:      -7.3      1.213      2.237
REMARK  Name = 
REMARK  12 active torsions:
REMARK  status: ('A' for Active; 'I' for Inactive)
REMARK    1  A    between atoms: C_1  and  O_2
REMARK    2  A    between atoms: O_2  and  C_3
REMARK    3  A    between atoms: C_8  and  C_9
REMARK    4  A    between atoms: C_9  and  N_10
REMARK    5  A    between atoms: N_10  and  C_11
REMARK    6  A    between atoms: C_11  and  C_12
REMARK    7  A    between atoms: C_12  and  C_13
REMARK    8  A    between atoms: C_13  and  C_14
REMARK    9  A    between atoms: C_14  and  C_15
REMARK   10  A    between atoms: C_15  and  O_16
REMARK   11  A    between atoms: O_16  and  C_17
REMARK   12  A    between atoms: N_19  and  C_20
REMARK                            x       y       z     vdW  Elec       q    Type
REMARK                         _______ _______ _______ _____ _____    ______ ____
ROOT
ATOM      1  C   UNL     1       1.489   3.068  21.291  0.00  0.00    +0.000 C 
ENDROOT
BRANCH   1   2
ATOM      2  C   UNL     1       1.140   4.347  20.525  0.00  0.00    +0.000 C 
BRANCH   2   3
ATOM      3  C   UNL     1       2.062   5.506  20.917  0.00  0.00    +0.000 C 
BRANCH   3   4
ATOM      4  C   UNL     1       1.833   6.755  20.051  0.00  0.00    +0.000 C 
BRANCH   4   5
ATOM      5  N   UNL     1       1.065   7.730  20.824  0.00  0.00    +0.000 NA
ATOM      6  H   UNL     1       0.067   7.571  20.688  0.00  0.00    +0.000 HD
BRANCH   5   7
ATOM      7  C   UNL     1       1.349   9.126  20.455  0.00  0.00    +0.000 C 
BRANCH   7  13
ATOM      8  C   UNL     1       0.426  11.458  21.060  0.00  0.00    +0.000 A 
ATOM      9  C   UNL     1      -0.439  12.244  21.840  0.00  0.00    +0.000 A 
ATOM     10  C   UNL     1      -1.131  11.695  22.916  0.00  0.00    +0.000 A 
ATOM     11  C   UNL     1      -0.981  10.348  23.216  0.00  0.00    +0.000 A 
ATOM     12  C   UNL     1      -0.172   9.545  22.412  0.00  0.00    +0.000 A 
ATOM     13  C   UNL     1       0.521  10.075  21.305  0.00  0.00    +0.000 A 
BRANCH   8  15
ATOM     14  C   UNL     1       1.681  13.304  20.315  0.00  0.00    +0.000 C 
ATOM     15  O   UNL     1       1.180  11.992  20.045  0.00  0.00    +0.000 OA
ENDBRANCH   8  15
ENDBRANCH   7  13
ENDBRANCH   5   7
ENDBRANCH   4   5
ENDBRANCH   3   4
ENDBRANCH   2   3
ENDBRANCH   1   2
BRANCH   1  16
ATOM     16  C   UNL     1       2.786   2.438  20.782  0.00  0.00    +0.000 C 
BRANCH  16  17
ATOM     17  O   UNL     1       2.933   2.674  19.367  0.00  0.00    +0.000 OA
BRANCH  17  18
ATOM     18  C   UNL     1       4.158   3.151  19.017  0.00  0.00    +0.000 C 
ATOM     19  O   UNL     1       5.172   2.937  19.668  0.00  0.00    +0.000 OA
ATOM     20  N   UNL     1       4.065   3.917  17.890  0.00  0.00    +0.000 N 
ATOM     21  H   UNL     1       3.118   4.066  17.557  0.00  0.00    +0.000 HD
BRANCH  20  22
ATOM     22  C   UNL     1       5.136   4.589  17.258  0.00  0.00    +0.000 A 
ATOM     23  C   UNL     1       5.503   4.341  15.936  0.00  0.00    +0.000 A 
ATOM     24  C   UNL     1       6.592   5.011  15.413  0.00  0.00    +0.000 A 
ATOM     25 CL   UNL     1       7.090   4.743  13.795  0.00  0.00    +0.000 Cl
ATOM     26  N   UNL     1       7.331   5.906  16.090  0.00  0.00    +0.000 NA
ATOM     27  C   UNL     1       6.944   6.136  17.356  0.00  0.00    +0.000 A 
ATOM     28 CL   UNL     1       7.926   7.262  18.199  0.00  0.00    +0.000 Cl
ATOM     29  C   UNL     1       5.863   5.531  17.983  0.00  0.00    +0.000 A 
ENDBRANCH  20  22
ENDBRANCH  17  18
ENDBRANCH  16  17
ENDBRANCH   1  16
TORSDOF 11
ENDMDL
MODEL 5
REMARK VINA RESULT:      -7.2      1.305      2.135
REMARK  Name = 
REMARK  12 active torsions:
REMARK  status: ('A' for Active; 'I' for Inactive)
REMARK    1  A    between atoms: C_1  and  O_2
REMARK    2  A    between atoms: O_2  and  C_3
REMARK    3  A    between atoms: C_8  and  C_9
REMARK    4  A    between atoms: C_9  and  N_10
REMARK    5  A    between atoms: N_10  and  C_11
REMARK    6  A    between atoms: C_11  and  C_12
REMARK    7  A    between atoms: C_12  and  C_13
REMARK    8  A    between atoms: C_13  and  C_14
REMARK    9  A    between atoms: C_14  and  C_15
REMARK   10  A    between atoms: C_15  and  O_16
REMARK   11  A    between atoms: O_16  and  C_17
REMARK   12  A    between atoms: N_19  and  C_20
REMARK                            x       y       z     vdW  Elec       q    Type
REMARK                         _______ _______ _______ _____ _____    ______ ____
ROOT
ATOM      1  C   UNL     1       2.089   2.655  20.072  0.00  0.00    +0.000 C 
ENDROOT
BRANCH   1   2
ATOM      2  C   UNL     1       1.586   3.509  21.238  0.00  0.00    +0.000 C 
BRANCH   2   3
ATOM      3  C   UNL     1       1.302   4.949  20.799  0.00  0.00    +0.000 C 
BRANCH   3   4
ATOM      4  C   UNL     1       2.362   5.484  19.823  0.00  0.00    +0.000 C 
BRANCH   4   5
ATOM      5  N   UNL     1       2.548   6.914  20.066  0.00  0.00    +0.000 NA
ATOM      6  H   UNL     1       3.445   7.073  20.525  0.00  0.00    +0.000 HD
BRANCH   5   7
ATOM      7  C   UNL     1       1.501   7.506  20.914  0.00  0.00    +0.000 C 
BRANCH   7  13
ATOM      8  C   UNL     1       0.140   9.697  20.980  0.00  0.00    +0.000 A 
ATOM      9  C   UNL     1      -0.168  10.940  20.400  0.00  0.00    +0.000 A 
ATOM     10  C   UNL     1       0.311  11.280  19.138  0.00  0.00    +0.000 A 
ATOM     11  C   UNL     1       1.122  10.390  18.446  0.00  0.00    +0.000 A 
ATOM     12  C   UNL     1       1.484   9.180  19.038  0.00  0.00    +0.000 A 
ATOM     13  C   UNL     1       1.028   8.824  20.323  0.00  0.00    +0.000 A 
BRANCH   8  15
ATOM     14  C   UNL     1      -0.838  10.386  23.007  0.00  0.00    +0.000 C 
ATOM     15  O   UNL     1      -0.384   9.305  22.186  0.00  0.00    +0.000 OA
ENDBRANCH   8  15
ENDBRANCH   7  13
ENDBRANCH   5   7
ENDBRANCH   4   5
ENDBRANCH   3   4
ENDBRANCH   2   3
ENDBRANCH   1   2
BRANCH   1  16
ATOM     16  C   UNL     1       1.127   2.694  18.884  0.00  0.00    +0.000 C 
BRANCH  16  17
ATOM     17  O   UNL     1       1.761   2.144  17.712  0.00  0.00    +0.000 OA
BRANCH  17  18
ATOM     18  C   UNL     1       3.111   2.311  17.691  0.00  0.00    +0.000 C 
ATOM     19  O   UNL     1       3.896   1.490  18.145  0.00  0.00    +0.000 OA
ATOM     20  N   UNL     1       3.431   3.522  17.144  0.00  0.00    +0.000 N 
ATOM     21  H   UNL     1       2.634   4.111  16.925  0.00  0.00    +0.000 HD
BRANCH  20  22
ATOM     22  C   UNL     1       4.737   4.037  16.986  0.00  0.00    +0.000 A 
ATOM     23  C   UNL     1       5.506   4.479  18.062  0.00  0.00    +0.000 A 
ATOM     24  C   UNL     1       6.755   5.011  17.811  0.00  0.00    +0.000 A 
ATOM     25 CL   UNL     1       7.743   5.571  19.094  0.00  0.00    +0.000 Cl
ATOM     26  N   UNL     1       7.299   5.130  16.587  0.00  0.00    +0.000 NA
ATOM     27  C   UNL     1       6.541   4.681  15.572  0.00  0.00    +0.000 A 
ATOM     28 CL   UNL     1       7.255   4.874  14.023  0.00  0.00    +0.000 Cl
ATOM     29  C   UNL     1       5.279   4.120  15.705  0.00  0.00    +0.000 A 
ENDBRANCH  20  22
ENDBRANCH  17  18
ENDBRANCH  16  17
ENDBRANCH   1  16
TORSDOF 11
ENDMDL
MODEL 6
REMARK VINA RESULT:      -7.2      5.735      8.454
REMARK  Name = 
REMARK  12 active torsions:
REMARK  status: ('A' for Active; 'I' for Inactive)
REMARK    1  A    between atoms: C_1  and  O_2
REMARK    2  A    between atoms: O_2  and  C_3
REMARK    3  A    between atoms: C_8  and  C_9
REMARK    4  A    between atoms: C_9  and  N_10
REMARK    5  A    between atoms: N_10  and  C_11
REMARK    6  A    between atoms: C_11  and  C_12
REMARK    7  A    between atoms: C_12  and  C_13
REMARK    8  A    between atoms: C_13  and  C_14
REMARK    9  A    between atoms: C_14  and  C_15
REMARK   10  A    between atoms: C_15  and  O_16
REMARK   11  A    between atoms: O_16  and  C_17
REMARK   12  A    between atoms: N_19  and  C_20
REMARK                            x       y       z     vdW  Elec       q    Type
REMARK                         _______ _______ _______ _____ _____    ______ ____
ROOT
ATOM      1  C   UNL     1       7.900   7.534  18.127  0.00  0.00    +0.000 C 
ENDROOT
BRANCH   1   2
ATOM      2  C   UNL     1       6.694   7.173  17.256  0.00  0.00    +0.000 C 
BRANCH   2   3
ATOM      3  C   UNL     1       6.698   5.689  16.877  0.00  0.00    +0.000 C 
BRANCH   3   4
ATOM      4  C   UNL     1       7.060   4.783  18.065  0.00  0.00    +0.000 C 
BRANCH   4   5
ATOM      5  N   UNL     1       5.960   4.805  19.027  0.00  0.00    +0.000 NA
ATOM      6  H   UNL     1       5.944   3.932  19.554  0.00  0.00    +0.000 HD
BRANCH   5   7
ATOM      7  C   UNL     1       4.638   4.975  18.404  0.00  0.00    +0.000 C 
BRANCH   7  13
ATOM      8  C   UNL     1       3.419   3.187  19.808  0.00  0.00    +0.000 A 
ATOM      9  C   UNL     1       2.434   2.870  20.759  0.00  0.00    +0.000 A 
ATOM     10  C   UNL     1       1.513   3.825  21.182  0.00  0.00    +0.000 A 
ATOM     11  C   UNL     1       1.577   5.116  20.675  0.00  0.00    +0.000 A 
ATOM     12  C   UNL     1       2.589   5.457  19.778  0.00  0.00    +0.000 A 
ATOM     13  C   UNL     1       3.544   4.512  19.352  0.00  0.00    +0.000 A 
BRANCH   8  15
ATOM     14  C   UNL     1       3.691   1.323  18.398  0.00  0.00    +0.000 C 
ATOM     15  O   UNL     1       4.287   2.245  19.315  0.00  0.00    +0.000 OA
ENDBRANCH   8  15
ENDBRANCH   7  13
ENDBRANCH   5   7
ENDBRANCH   4   5
ENDBRANCH   3   4
ENDBRANCH   2   3
ENDBRANCH   1   2
BRANCH   1  16
ATOM     16  C   UNL     1       8.229   9.026  18.050  0.00  0.00    +0.000 C 
BRANCH  16  17
ATOM     17  O   UNL     1       9.236   9.364  19.026  0.00  0.00    +0.000 OA
BRANCH  17  18
ATOM     18  C   UNL     1       9.311  10.696  19.294  0.00  0.00    +0.000 C 
ATOM     19  O   UNL     1       9.329  11.151  20.430  0.00  0.00    +0.000 OA
ATOM     20  N   UNL     1       9.314  11.415  18.132  0.00  0.00    +0.000 N 
ATOM     21  H   UNL     1       9.183  10.861  17.292  0.00  0.00    +0.000 HD
BRANCH  20  22
ATOM     22  C   UNL     1       9.359  12.824  18.033  0.00  0.00    +0.000 A 
ATOM     23  C   UNL     1       8.247  13.630  18.269  0.00  0.00    +0.000 A 
ATOM     24  C   UNL     1       8.370  14.996  18.105  0.00  0.00    +0.000 A 
ATOM     25 CL   UNL     1       7.035  16.034  18.379  0.00  0.00    +0.000 Cl
ATOM     26  N   UNL     1       9.503  15.618  17.735  0.00  0.00    +0.000 NA
ATOM     27  C   UNL     1      10.562  14.817  17.530  0.00  0.00    +0.000 A 
ATOM     28 CL   UNL     1      11.982  15.642  17.033  0.00  0.00    +0.000 Cl
ATOM     29  C   UNL     1      10.559  13.436  17.675  0.00  0.00    +0.000 A 
ENDBRANCH  20  22
ENDBRANCH  17  18
ENDBRANCH  16  17
ENDBRANCH   1  16
TORSDOF 11
ENDMDL
MODEL 7
REMARK VINA RESULT:      -7.0      1.261      2.169
REMARK  Name = 
REMARK  12 active torsions:
REMARK  status: ('A' for Active; 'I' for Inactive)
REMARK    1  A    between atoms: C_1  and  O_2
REMARK    2  A    between atoms: O_2  and  C_3
REMARK    3  A    between atoms: C_8  and  C_9
REMARK    4  A    between atoms: C_9  and  N_10
REMARK    5  A    between atoms: N_10  and  C_11
REMARK    6  A    between atoms: C_11  and  C_12
REMARK    7  A    between atoms: C_12  and  C_13
REMARK    8  A    between atoms: C_13  and  C_14
REMARK    9  A    between atoms: C_14  and  C_15
REMARK   10  A    between atoms: C_15  and  O_16
REMARK   11  A    between atoms: O_16  and  C_17
REMARK   12  A    between atoms: N_19  and  C_20
REMARK                            x       y       z     vdW  Elec       q    Type
REMARK                         _______ _______ _______ _____ _____    ______ ____
ROOT
ATOM      1  C   UNL     1       3.064   2.506  20.694  0.00  0.00    +0.000 C 
ENDROOT
BRANCH   1   2
ATOM      2  C   UNL     1       1.862   3.390  21.038  0.00  0.00    +0.000 C 
BRANCH   2   3
ATOM      3  C   UNL     1       2.301   4.797  21.455  0.00  0.00    +0.000 C 
BRANCH   3   4
ATOM      4  C   UNL     1       1.927   5.861  20.410  0.00  0.00    +0.000 C 
BRANCH   4   5
ATOM      5  N   UNL     1       1.847   7.163  21.070  0.00  0.00    +0.000 NA
ATOM      6  H   UNL     1       1.220   7.106  21.873  0.00  0.00    +0.000 HD
BRANCH   5   7
ATOM      7  C   UNL     1       1.353   8.236  20.193  0.00  0.00    +0.000 C 
BRANCH   7  13
ATOM      8  C   UNL     1       0.577  10.661  20.607  0.00  0.00    +0.000 A 
ATOM      9  C   UNL     1      -0.155  11.574  21.386  0.00  0.00    +0.000 A 
ATOM     10  C   UNL     1      -0.705  11.193  22.608  0.00  0.00    +0.000 A 
ATOM     11  C   UNL     1      -0.547   9.889  23.058  0.00  0.00    +0.000 A 
ATOM     12  C   UNL     1       0.125   8.960  22.264  0.00  0.00    +0.000 A 
ATOM     13  C   UNL     1       0.672   9.318  21.015  0.00  0.00    +0.000 A 
BRANCH   8  15
ATOM     14  C   UNL     1       0.646  12.204  18.831  0.00  0.00    +0.000 C 
ATOM     15  O   UNL     1       1.196  11.032  19.439  0.00  0.00    +0.000 OA
ENDBRANCH   8  15
ENDBRANCH   7  13
ENDBRANCH   5   7
ENDBRANCH   4   5
ENDBRANCH   3   4
ENDBRANCH   2   3
ENDBRANCH   1   2
BRANCH   1  16
ATOM     16  C   UNL     1       2.979   1.962  19.268  0.00  0.00    +0.000 C 
BRANCH  16  17
ATOM     17  O   UNL     1       2.167   2.829  18.451  0.00  0.00    +0.000 OA
BRANCH  17  18
ATOM     18  C   UNL     1       2.858   3.446  17.455  0.00  0.00    +0.000 C 
ATOM     19  O   UNL     1       2.432   3.559  16.313  0.00  0.00    +0.000 OA
ATOM     20  N   UNL     1       4.078   3.861  17.909  0.00  0.00    +0.000 N 
ATOM     21  H   UNL     1       4.293   3.579  18.860  0.00  0.00    +0.000 HD
BRANCH  20  22
ATOM     22  C   UNL     1       5.066   4.517  17.140  0.00  0.00    +0.000 A 
ATOM     23  C   UNL     1       5.381   4.135  15.838  0.00  0.00    +0.000 A 
ATOM     24  C   UNL     1       6.393   4.803  15.176  0.00  0.00    +0.000 A 
ATOM     25 CL   UNL     1       6.825   4.374  13.575  0.00  0.00    +0.000 Cl
ATOM     26  N   UNL     1       7.103   5.817  15.700  0.00  0.00    +0.000 NA
ATOM     27  C   UNL     1       6.767   6.173  16.951  0.00  0.00    +0.000 A 
ATOM     28 CL   UNL     1       7.712   7.450  17.598  0.00  0.00    +0.000 Cl
ATOM     29  C   UNL     1       5.763   5.583  17.707  0.00  0.00    +0.000 A 
ENDBRANCH  20  22
ENDBRANCH  17  18
ENDBRANCH  16  17
ENDBRANCH   1  16
TORSDOF 11
ENDMDL
MODEL 8
REMARK VINA RESULT:      -7.0      1.320      2.252
REMARK  Name = 
REMARK  12 active torsions:
REMARK  status: ('A' for Active; 'I' for Inactive)
REMARK    1  A    between atoms: C_1  and  O_2
REMARK    2  A    between atoms: O_2  and  C_3
REMARK    3  A    between atoms: C_8  and  C_9
REMARK    4  A    between atoms: C_9  and  N_10
REMARK    5  A    between atoms: N_10  and  C_11
REMARK    6  A    between atoms: C_11  and  C_12
REMARK    7  A    between atoms: C_12  and  C_13
REMARK    8  A    between atoms: C_13  and  C_14
REMARK    9  A    between atoms: C_14  and  C_15
REMARK   10  A    between atoms: C_15  and  O_16
REMARK   11  A    between atoms: O_16  and  C_17
REMARK   12  A    between atoms: N_19  and  C_20
REMARK                            x       y       z     vdW  Elec       q    Type
REMARK                         _______ _______ _______ _____ _____    ______ ____
ROOT
ATOM      1  C   UNL     1       1.537   3.270  20.425  0.00  0.00    +0.000 C 
ENDROOT
BRANCH   1   2
ATOM      2  C   UNL     1       2.192   4.463  21.126  0.00  0.00    +0.000 C 
BRANCH   2   3
ATOM      3  C   UNL     1       1.919   5.773  20.380  0.00  0.00    +0.000 C 
BRANCH   3   4
ATOM      4  C   UNL     1       1.064   6.749  21.203  0.00  0.00    +0.000 C 
BRANCH   4   5
ATOM      5  N   UNL     1       1.184   8.086  20.624  0.00  0.00    +0.000 NA
ATOM      6  H   UNL     1       1.824   8.063  19.830  0.00  0.00    +0.000 HD
BRANCH   5   7
ATOM      7  C   UNL     1       1.685   9.093  21.573  0.00  0.00    +0.000 C 
BRANCH   7  13
ATOM      8  C   UNL     1       0.480  11.343  21.196  0.00  0.00    +0.000 A 
ATOM      9  C   UNL     1      -0.608  12.187  21.476  0.00  0.00    +0.000 A 
ATOM     10  C   UNL     1      -1.513  11.875  22.488  0.00  0.00    +0.000 A 
ATOM     11  C   UNL     1      -1.353  10.707  23.220  0.00  0.00    +0.000 A 
ATOM     12  C   UNL     1      -0.312   9.833  22.909  0.00  0.00    +0.000 A 
ATOM     13  C   UNL     1       0.603  10.117  21.875  0.00  0.00    +0.000 A 
BRANCH   8  15
ATOM     14  C   UNL     1       0.908  11.871  18.943  0.00  0.00    +0.000 C 
ATOM     15  O   UNL     1       1.430  11.666  20.259  0.00  0.00    +0.000 OA
ENDBRANCH   8  15
ENDBRANCH   7  13
ENDBRANCH   5   7
ENDBRANCH   4   5
ENDBRANCH   3   4
ENDBRANCH   2   3
ENDBRANCH   1   2
BRANCH   1  16
ATOM     16  C   UNL     1       1.164   3.597  18.979  0.00  0.00    +0.000 C 
BRANCH  16  17
ATOM     17  O   UNL     1       1.625   2.553  18.097  0.00  0.00    +0.000 OA
BRANCH  17  18
ATOM     18  C   UNL     1       2.960   2.606  17.840  0.00  0.00    +0.000 C 
ATOM     19  O   UNL     1       3.701   1.637  17.938  0.00  0.00    +0.000 OA
ATOM     20  N   UNL     1       3.330   3.880  17.512  0.00  0.00    +0.000 N 
ATOM     21  H   UNL     1       2.590   4.569  17.592  0.00  0.00    +0.000 HD
BRANCH  20  22
ATOM     22  C   UNL     1       4.643   4.306  17.207  0.00  0.00    +0.000 A 
ATOM     23  C   UNL     1       5.144   4.322  15.907  0.00  0.00    +0.000 A 
ATOM     24  C   UNL     1       6.455   4.711  15.705  0.00  0.00    +0.000 A 
ATOM     25 CL   UNL     1       7.124   4.748  14.128  0.00  0.00    +0.000 Cl
ATOM     26  N   UNL     1       7.295   5.087  16.684  0.00  0.00    +0.000 NA
ATOM     27  C   UNL     1       6.779   5.076  17.925  0.00  0.00    +0.000 A 
ATOM     28 CL   UNL     1       7.887   5.535  19.152  0.00  0.00    +0.000 Cl
ATOM     29  C   UNL     1       5.477   4.716  18.245  0.00  0.00    +0.000 A 
ENDBRANCH  20  22
ENDBRANCH  17  18
ENDBRANCH  16  17
ENDBRANCH   1  16
TORSDOF 11
ENDMDL
MODEL 9
REMARK VINA RESULT:      -7.0      2.150      3.270
REMARK  Name = 
REMARK  12 active torsions:
REMARK  status: ('A' for Active; 'I' for Inactive)
REMARK    1  A    between atoms: C_1  and  O_2
REMARK    2  A    between atoms: O_2  and  C_3
REMARK    3  A    between atoms: C_8  and  C_9
REMARK    4  A    between atoms: C_9  and  N_10
REMARK    5  A    between atoms: N_10  and  C_11
REMARK    6  A    between atoms: C_11  and  C_12
REMARK    7  A    between atoms: C_12  and  C_13
REMARK    8  A    between atoms: C_13  and  C_14
REMARK    9  A    between atoms: C_14  and  C_15
REMARK   10  A    between atoms: C_15  and  O_16
REMARK   11  A    between atoms: O_16  and  C_17
REMARK   12  A    between atoms: N_19  and  C_20
REMARK                            x       y       z     vdW  Elec       q    Type
REMARK                         _______ _______ _______ _____ _____    ______ ____
ROOT
ATOM      1  C   UNL     1       1.678   5.500  19.853  0.00  0.00    +0.000 C 
ENDROOT
BRANCH   1   2
ATOM      2  C   UNL     1       2.335   6.870  20.037  0.00  0.00    +0.000 C 
BRANCH   2   3
ATOM      3  C   UNL     1       2.012   7.810  18.871  0.00  0.00    +0.000 C 
BRANCH   3   4
ATOM      4  C   UNL     1       1.310   9.097  19.334  0.00  0.00    +0.000 C 
BRANCH   4   5
ATOM      5  N   UNL     1       0.923   9.872  18.156  0.00  0.00    +0.000 NA
ATOM      6  H   UNL     1       1.752  10.111  17.611  0.00  0.00    +0.000 HD
BRANCH   5   7
ATOM      7  C   UNL     1       0.225  11.126  18.482  0.00  0.00    +0.000 C 
BRANCH   7  13
ATOM      8  C   UNL     1      -2.241  11.809  18.810  0.00  0.00    +0.000 A 
ATOM      9  C   UNL     1      -3.589  11.666  18.439  0.00  0.00    +0.000 A 
ATOM     10  C   UNL     1      -3.989  10.651  17.573  0.00  0.00    +0.000 A 
ATOM     11  C   UNL     1      -3.044   9.778  17.052  0.00  0.00    +0.000 A 
ATOM     12  C   UNL     1      -1.696   9.949  17.365  0.00  0.00    +0.000 A 
ATOM     13  C   UNL     1      -1.266  10.982  18.223  0.00  0.00    +0.000 A 
BRANCH   8  15
ATOM     14  C   UNL     1      -1.983  12.346  21.087  0.00  0.00    +0.000 C 
ATOM     15  O   UNL     1      -1.832  12.750  19.722  0.00  0.00    +0.000 OA
ENDBRANCH   8  15
ENDBRANCH   7  13
ENDBRANCH   5   7
ENDBRANCH   4   5
ENDBRANCH   3   4
ENDBRANCH   2   3
ENDBRANCH   1   2
BRANCH   1  16
ATOM     16  C   UNL     1       2.419   4.406  20.623  0.00  0.00    +0.000 C 
BRANCH  16  17
ATOM     17  O   UNL     1       2.894   3.392  19.715  0.00  0.00    +0.000 OA
BRANCH  17  18
ATOM     18  C   UNL     1       4.130   3.648  19.208  0.00  0.00    +0.000 C 
ATOM     19  O   UNL     1       5.156   3.155  19.658  0.00  0.00    +0.000 OA
ATOM     20  N   UNL     1       4.045   4.547  18.182  0.00  0.00    +0.000 N 
ATOM     21  H   UNL     1       3.116   4.924  18.027  0.00  0.00    +0.000 HD
BRANCH  20  22
ATOM     22  C   UNL     1       5.134   5.059  17.440  0.00  0.00    +0.000 A 
ATOM     23  C   UNL     1       5.935   6.101  17.904  0.00  0.00    +0.000 A 
ATOM     24  C   UNL     1       6.950   6.569  17.092  0.00  0.00    +0.000 A 
ATOM     25 CL   UNL     1       7.965   7.849  17.609  0.00  0.00    +0.000 Cl
ATOM     26  N   UNL     1       7.233   6.082  15.872  0.00  0.00    +0.000 NA
ATOM     27  C   UNL     1       6.454   5.068  15.459  0.00  0.00    +0.000 A 
ATOM     28 CL   UNL     1       6.826   4.491  13.886  0.00  0.00    +0.000 Cl
ATOM     29  C   UNL     1       5.415   4.510  16.190  0.00  0.00    +0.000 A 
ENDBRANCH  20  22
ENDBRANCH  17  18
ENDBRANCH  16  17
ENDBRANCH   1  16
TORSDOF 11
ENDMDL
