MODEL 1
REMARK VINA RESULT:     -10.2      0.000      0.000
REMARK  Name = 
REMARK  5 active torsions:
REMARK  status: ('A' for Active; 'I' for Inactive)
REMARK    1  A    between atoms: O_1  and  C_2
REMARK    2  A    between atoms: C_6  and  N_7
REMARK    3  A    between atoms: N_7  and  C_8
REMARK    4  A    between atoms: C_10  and  C_11
REMARK    5  A    between atoms: C_12  and  C_13
REMARK                            x       y       z     vdW  Elec       q    Type
REMARK                         _______ _______ _______ _____ _____    ______ ____
ROOT
ATOM      1  C   UNL     1       6.317   4.866  18.156  0.00  0.00    +0.000 A 
ATOM      2  N   UNL     1       6.962   5.918  18.685  0.00  0.00    +0.000 NA
ATOM      3  C   UNL     1       7.587   6.742  17.845  0.00  0.00    +0.000 A 
ATOM      4  N   UNL     1       7.624   6.611  16.514  0.00  0.00    +0.000 NA
ATOM      5  C   UNL     1       6.966   5.573  15.992  0.00  0.00    +0.000 A 
ATOM      6  C   UNL     1       7.022   5.387  14.617  0.00  0.00    +0.000 A 
ATOM      7  C   UNL     1       6.368   4.324  13.989  0.00  0.00    +0.000 A 
ATOM      8  C   UNL     1       5.629   3.426  14.749  0.00  0.00    +0.000 A 
ATOM      9  C   UNL     1       5.568   3.585  16.133  0.00  0.00    +0.000 A 
ATOM     10  C   UNL     1       6.246   4.655  16.769  0.00  0.00    +0.000 A 
ENDROOT
BRANCH   1  11
ATOM     11  N   UNL     1       5.708   3.950  19.051  0.00  0.00    +0.000 N 
ATOM     12  H   UNL     1       6.148   3.042  18.963  0.00  0.00    +0.000 HD
BRANCH  11  17
ATOM     13  C   UNL     1       2.199   2.692  19.233  0.00  0.00    +0.000 A 
ATOM     14  C   UNL     1       1.520   3.816  19.684  0.00  0.00    +0.000 A 
ATOM     15  C   UNL     1       2.237   4.985  19.938  0.00  0.00    +0.000 A 
ATOM     16  C   UNL     1       3.623   5.022  19.743  0.00  0.00    +0.000 A 
ATOM     17  C   UNL     1       4.319   3.882  19.320  0.00  0.00    +0.000 A 
ATOM     18  C   UNL     1       3.578   2.721  19.047  0.00  0.00    +0.000 A 
BRANCH  13  19
ATOM     19  O   UNL     1       1.544   1.531  18.943  0.00  0.00    +0.000 OA
ATOM     20  H   UNL     1       1.753   0.876  19.628  0.00  0.00    +0.000 HD
ENDBRANCH  13  19
ENDBRANCH  11  17
ENDBRANCH   1  11
BRANCH   3  21
ATOM     21  C   UNL     1       8.277   7.866  18.469  0.00  0.00    +0.000 C 
ATOM     22  C   UNL     1       8.323   9.111  17.971  0.00  0.00    +0.000 C 
BRANCH  22  23
ATOM     23  C   UNL     1       9.016  10.226  18.628  0.00  0.00    +0.000 A 
ATOM     24  C   UNL     1       9.198  10.285  20.019  0.00  0.00    +0.000 A 
ATOM     25  C   UNL     1       9.858  11.365  20.608  0.00  0.00    +0.000 A 
ATOM     26  C   UNL     1      10.357  12.392  19.812  0.00  0.00    +0.000 A 
ATOM     27  C   UNL     1      10.204  12.329  18.429  0.00  0.00    +0.000 A 
ATOM     28 CL   UNL     1      10.833  13.593  17.444  0.00  0.00    +0.000 Cl
ATOM     29  C   UNL     1       9.543  11.253  17.835  0.00  0.00    +0.000 A 
ENDBRANCH  22  23
ENDBRANCH   3  21
TORSDOF 5
ENDMDL
MODEL 2
REMARK VINA RESULT:      -9.9      1.034      1.385
REMARK  Name = 
REMARK  5 active torsions:
REMARK  status: ('A' for Active; 'I' for Inactive)
REMARK    1  A    between atoms: O_1  and  C_2
REMARK    2  A    between atoms: C_6  and  N_7
REMARK    3  A    between atoms: N_7  and  C_8
REMARK    4  A    between atoms: C_10  and  C_11
REMARK    5  A    between atoms: C_12  and  C_13
REMARK                            x       y       z     vdW  Elec       q    Type
REMARK                         _______ _______ _______ _____ _____    ______ ____
ROOT
ATOM      1  C   UNL     1       6.250   4.889  18.066  0.00  0.00    +0.000 A 
ATOM      2  N   UNL     1       6.871   5.947  18.613  0.00  0.00    +0.000 NA
ATOM      3  C   UNL     1       7.516   6.774  17.791  0.00  0.00    +0.000 A 
ATOM      4  N   UNL     1       7.596   6.640  16.462  0.00  0.00    +0.000 NA
ATOM      5  C   UNL     1       6.963   5.596  15.922  0.00  0.00    +0.000 A 
ATOM      6  C   UNL     1       7.062   5.408  14.550  0.00  0.00    +0.000 A 
ATOM      7  C   UNL     1       6.436   4.339  13.904  0.00  0.00    +0.000 A 
ATOM      8  C   UNL     1       5.680   3.438  14.642  0.00  0.00    +0.000 A 
ATOM      9  C   UNL     1       5.575   3.599  16.023  0.00  0.00    +0.000 A 
ATOM     10  C   UNL     1       6.225   4.675  16.678  0.00  0.00    +0.000 A 
ENDROOT
BRANCH   1  11
ATOM     11  N   UNL     1       5.620   3.971  18.944  0.00  0.00    +0.000 N 
ATOM     12  H   UNL     1       5.954   3.033  18.755  0.00  0.00    +0.000 HD
BRANCH  11  17
ATOM     13  C   UNL     1       2.364   5.216  20.274  0.00  0.00    +0.000 A 
ATOM     14  C   UNL     1       1.593   4.062  20.258  0.00  0.00    +0.000 A 
ATOM     15  C   UNL     1       2.158   2.876  19.792  0.00  0.00    +0.000 A 
ATOM     16  C   UNL     1       3.485   2.852  19.343  0.00  0.00    +0.000 A 
ATOM     17  C   UNL     1       4.257   4.020  19.325  0.00  0.00    +0.000 A 
ATOM     18  C   UNL     1       3.679   5.200  19.820  0.00  0.00    +0.000 A 
BRANCH  13  19
ATOM     19  O   UNL     1       1.870   6.398  20.745  0.00  0.00    +0.000 OA
ATOM     20  H   UNL     1       1.637   6.961  19.990  0.00  0.00    +0.000 HD
ENDBRANCH  13  19
ENDBRANCH  11  17
ENDBRANCH   1  11
BRANCH   3  21
ATOM     21  C   UNL     1       8.179   7.904  18.434  0.00  0.00    +0.000 C 
ATOM     22  C   UNL     1       8.297   9.129  17.900  0.00  0.00    +0.000 C 
BRANCH  22  23
ATOM     23  C   UNL     1       8.959  10.252  18.577  0.00  0.00    +0.000 A 
ATOM     24  C   UNL     1       9.299  10.215  19.939  0.00  0.00    +0.000 A 
ATOM     25  C   UNL     1       9.924  11.304  20.549  0.00  0.00    +0.000 A 
ATOM     26  C   UNL     1      10.229  12.439  19.800  0.00  0.00    +0.000 A 
ATOM     27  C   UNL     1       9.918  12.473  18.443  0.00  0.00    +0.000 A 
ATOM     28 CL   UNL     1      10.307  13.870  17.515  0.00  0.00    +0.000 Cl
ATOM     29  C   UNL     1       9.292  11.388  17.829  0.00  0.00    +0.000 A 
ENDBRANCH  22  23
ENDBRANCH   3  21
TORSDOF 5
ENDMDL
MODEL 3
REMARK VINA RESULT:      -9.8      1.275      1.473
REMARK  Name = 
REMARK  5 active torsions:
REMARK  status: ('A' for Active; 'I' for Inactive)
REMARK    1  A    between atoms: O_1  and  C_2
REMARK    2  A    between atoms: C_6  and  N_7
REMARK    3  A    between atoms: N_7  and  C_8
REMARK    4  A    between atoms: C_10  and  C_11
REMARK    5  A    between atoms: C_12  and  C_13
REMARK                            x       y       z     vdW  Elec       q    Type
REMARK                         _______ _______ _______ _____ _____    ______ ____
ROOT
ATOM      1  C   UNL     1       5.251   6.105  17.348  0.00  0.00    +0.000 A 
ATOM      2  N   UNL     1       6.075   6.966  17.969  0.00  0.00    +0.000 NA
ATOM      3  C   UNL     1       7.281   7.155  17.436  0.00  0.00    +0.000 A 
ATOM      4  N   UNL     1       7.743   6.560  16.330  0.00  0.00    +0.000 NA
ATOM      5  C   UNL     1       6.914   5.718  15.708  0.00  0.00    +0.000 A 
ATOM      6  C   UNL     1       7.380   5.054  14.582  0.00  0.00    +0.000 A 
ATOM      7  C   UNL     1       6.582   4.152  13.874  0.00  0.00    +0.000 A 
ATOM      8  C   UNL     1       5.280   3.912  14.291  0.00  0.00    +0.000 A 
ATOM      9  C   UNL     1       4.792   4.558  15.426  0.00  0.00    +0.000 A 
ATOM     10  C   UNL     1       5.611   5.461  16.153  0.00  0.00    +0.000 A 
ENDROOT
BRANCH   1  11
ATOM     11  N   UNL     1       3.992   5.851  17.948  0.00  0.00    +0.000 N 
ATOM     12  H   UNL     1       3.733   6.631  18.541  0.00  0.00    +0.000 HD
BRANCH  11  17
ATOM     13  C   UNL     1       4.072   2.457  19.498  0.00  0.00    +0.000 A 
ATOM     14  C   UNL     1       2.773   2.017  19.281  0.00  0.00    +0.000 A 
ATOM     15  C   UNL     1       1.873   2.860  18.631  0.00  0.00    +0.000 A 
ATOM     16  C   UNL     1       2.274   4.133  18.205  0.00  0.00    +0.000 A 
ATOM     17  C   UNL     1       3.573   4.595  18.450  0.00  0.00    +0.000 A 
ATOM     18  C   UNL     1       4.473   3.724  19.086  0.00  0.00    +0.000 A 
BRANCH  13  19
ATOM     19  O   UNL     1       5.002   1.664  20.105  0.00  0.00    +0.000 OA
ATOM     20  H   UNL     1       5.048   1.901  21.045  0.00  0.00    +0.000 HD
ENDBRANCH  13  19
ENDBRANCH  11  17
ENDBRANCH   1  11
BRANCH   3  21
ATOM     21  C   UNL     1       8.139   8.095  18.150  0.00  0.00    +0.000 C 
ATOM     22  C   UNL     1       8.296   9.388  17.828  0.00  0.00    +0.000 C 
BRANCH  22  23
ATOM     23  C   UNL     1       9.158  10.314  18.574  0.00  0.00    +0.000 A 
ATOM     24  C   UNL     1       9.134  10.402  19.974  0.00  0.00    +0.000 A 
ATOM     25  C   UNL     1       9.966  11.299  20.648  0.00  0.00    +0.000 A 
ATOM     26  C   UNL     1      10.841  12.109  19.928  0.00  0.00    +0.000 A 
ATOM     27  C   UNL     1      10.889  12.010  18.540  0.00  0.00    +0.000 A 
ATOM     28 CL   UNL     1      11.981  13.001  17.652  0.00  0.00    +0.000 Cl
ATOM     29  C   UNL     1      10.059  11.116  17.862  0.00  0.00    +0.000 A 
ENDBRANCH  22  23
ENDBRANCH   3  21
TORSDOF 5
ENDMDL
MODEL 4
REMARK VINA RESULT:      -9.5      1.466      1.950
REMARK  Name = 
REMARK  5 active torsions:
REMARK  status: ('A' for Active; 'I' for Inactive)
REMARK    1  A    between atoms: O_1  and  C_2
REMARK    2  A    between atoms: C_6  and  N_7
REMARK    3  A    between atoms: N_7  and  C_8
REMARK    4  A    between atoms: C_10  and  C_11
REMARK    5  A    between atoms: C_12  and  C_13
REMARK                            x       y       z     vdW  Elec       q    Type
REMARK                         _______ _______ _______ _____ _____    ______ ____
ROOT
ATOM      1  C   UNL     1       6.262   4.922  18.166  0.00  0.00    +0.000 A 
ATOM      2  N   UNL     1       6.919   5.968  18.693  0.00  0.00    +0.000 NA
ATOM      3  C   UNL     1       7.570   6.772  17.853  0.00  0.00    +0.000 A 
ATOM      4  N   UNL     1       7.624   6.625  16.524  0.00  0.00    +0.000 NA
ATOM      5  C   UNL     1       6.955   5.593  16.004  0.00  0.00    +0.000 A 
ATOM      6  C   UNL     1       7.027   5.392  14.632  0.00  0.00    +0.000 A 
ATOM      7  C   UNL     1       6.363   4.334  14.006  0.00  0.00    +0.000 A 
ATOM      8  C   UNL     1       5.598   3.458  14.765  0.00  0.00    +0.000 A 
ATOM      9  C   UNL     1       5.520   3.632  16.146  0.00  0.00    +0.000 A 
ATOM     10  C   UNL     1       6.208   4.697  16.780  0.00  0.00    +0.000 A 
ENDROOT
BRANCH   1  11
ATOM     11  N   UNL     1       5.624   4.027  19.062  0.00  0.00    +0.000 N 
ATOM     12  H   UNL     1       5.989   3.092  18.928  0.00  0.00    +0.000 HD
BRANCH  11  17
ATOM     13  C   UNL     1       2.308   5.218  20.288  0.00  0.00    +0.000 A 
ATOM     14  C   UNL     1       1.550   4.057  20.227  0.00  0.00    +0.000 A 
ATOM     15  C   UNL     1       2.146   2.883  19.765  0.00  0.00    +0.000 A 
ATOM     16  C   UNL     1       3.488   2.880  19.365  0.00  0.00    +0.000 A 
ATOM     17  C   UNL     1       4.248   4.056  19.393  0.00  0.00    +0.000 A 
ATOM     18  C   UNL     1       3.639   5.223  19.884  0.00  0.00    +0.000 A 
BRANCH  13  19
ATOM     19  O   UNL     1       1.783   6.387  20.758  0.00  0.00    +0.000 OA
ATOM     20  H   UNL     1       2.512   6.973  21.019  0.00  0.00    +0.000 HD
ENDBRANCH  13  19
ENDBRANCH  11  17
ENDBRANCH   1  11
BRANCH   3  21
ATOM     21  C   UNL     1       8.272   7.890  18.475  0.00  0.00    +0.000 C 
ATOM     22  C   UNL     1       8.406   9.110  17.932  0.00  0.00    +0.000 C 
BRANCH  22  23
ATOM     23  C   UNL     1       9.108  10.221  18.588  0.00  0.00    +0.000 A 
ATOM     24  C   UNL     1       9.993  11.063  17.898  0.00  0.00    +0.000 A 
ATOM     25  C   UNL     1      10.647  12.106  18.557  0.00  0.00    +0.000 A 
ATOM     26  C   UNL     1      10.411  12.327  19.912  0.00  0.00    +0.000 A 
ATOM     27  C   UNL     1       9.514  11.512  20.598  0.00  0.00    +0.000 A 
ATOM     28 CL   UNL     1       9.212  11.794  22.269  0.00  0.00    +0.000 Cl
ATOM     29  C   UNL     1       8.860  10.467  19.944  0.00  0.00    +0.000 A 
ENDBRANCH  22  23
ENDBRANCH   3  21
TORSDOF 5
ENDMDL
MODEL 5
REMARK VINA RESULT:      -9.4      1.149      1.409
REMARK  Name = 
REMARK  5 active torsions:
REMARK  status: ('A' for Active; 'I' for Inactive)
REMARK    1  A    between atoms: O_1  and  C_2
REMARK    2  A    between atoms: C_6  and  N_7
REMARK    3  A    between atoms: N_7  and  C_8
REMARK    4  A    between atoms: C_10  and  C_11
REMARK    5  A    between atoms: C_12  and  C_13
REMARK                            x       y       z     vdW  Elec       q    Type
REMARK                         _______ _______ _______ _____ _____    ______ ____
ROOT
ATOM      1  C   UNL     1       5.161   6.165  17.335  0.00  0.00    +0.000 A 
ATOM      2  N   UNL     1       6.003   7.017  17.944  0.00  0.00    +0.000 NA
ATOM      3  C   UNL     1       7.231   7.134  17.437  0.00  0.00    +0.000 A 
ATOM      4  N   UNL     1       7.695   6.476  16.370  0.00  0.00    +0.000 NA
ATOM      5  C   UNL     1       6.849   5.644  15.759  0.00  0.00    +0.000 A 
ATOM      6  C   UNL     1       7.316   4.915  14.674  0.00  0.00    +0.000 A 
ATOM      7  C   UNL     1       6.500   4.018  13.980  0.00  0.00    +0.000 A 
ATOM      8  C   UNL     1       5.178   3.849  14.371  0.00  0.00    +0.000 A 
ATOM      9  C   UNL     1       4.688   4.561  15.465  0.00  0.00    +0.000 A 
ATOM     10  C   UNL     1       5.524   5.458  16.177  0.00  0.00    +0.000 A 
ENDROOT
BRANCH   1  11
ATOM     11  N   UNL     1       3.877   5.988  17.910  0.00  0.00    +0.000 N 
ATOM     12  H   UNL     1       3.547   6.869  18.286  0.00  0.00    +0.000 HD
BRANCH  11  17
ATOM     13  C   UNL     1       1.785   3.640  19.918  0.00  0.00    +0.000 A 
ATOM     14  C   UNL     1       2.729   2.714  20.342  0.00  0.00    +0.000 A 
ATOM     15  C   UNL     1       4.057   2.869  19.945  0.00  0.00    +0.000 A 
ATOM     16  C   UNL     1       4.431   3.944  19.128  0.00  0.00    +0.000 A 
ATOM     17  C   UNL     1       3.478   4.862  18.670  0.00  0.00    +0.000 A 
ATOM     18  C   UNL     1       2.150   4.703  19.098  0.00  0.00    +0.000 A 
BRANCH  13  19
ATOM     19  O   UNL     1       0.478   3.551  20.298  0.00  0.00    +0.000 OA
ATOM     20  H   UNL     1      -0.083   3.779  19.540  0.00  0.00    +0.000 HD
ENDBRANCH  13  19
ENDBRANCH  11  17
ENDBRANCH   1  11
BRANCH   3  21
ATOM     21  C   UNL     1       8.108   8.067  18.137  0.00  0.00    +0.000 C 
ATOM     22  C   UNL     1       8.245   9.367  17.833  0.00  0.00    +0.000 C 
BRANCH  22  23
ATOM     23  C   UNL     1       9.128  10.285  18.564  0.00  0.00    +0.000 A 
ATOM     24  C   UNL     1       9.112  10.391  19.963  0.00  0.00    +0.000 A 
ATOM     25  C   UNL     1       9.964  11.280  20.622  0.00  0.00    +0.000 A 
ATOM     26  C   UNL     1      10.851  12.064  19.889  0.00  0.00    +0.000 A 
ATOM     27  C   UNL     1      10.892  11.946  18.502  0.00  0.00    +0.000 A 
ATOM     28 CL   UNL     1      11.998  12.905  17.597  0.00  0.00    +0.000 Cl
ATOM     29  C   UNL     1      10.041  11.061  17.839  0.00  0.00    +0.000 A 
ENDBRANCH  22  23
ENDBRANCH   3  21
TORSDOF 5
ENDMDL
MODEL 6
REMARK VINA RESULT:      -9.4      2.471      2.854
REMARK  Name = 
REMARK  5 active torsions:
REMARK  status: ('A' for Active; 'I' for Inactive)
REMARK    1  A    between atoms: O_1  and  C_2
REMARK    2  A    between atoms: C_6  and  N_7
REMARK    3  A    between atoms: N_7  and  C_8
REMARK    4  A    between atoms: C_10  and  C_11
REMARK    5  A    between atoms: C_12  and  C_13
REMARK                            x       y       z     vdW  Elec       q    Type
REMARK                         _______ _______ _______ _____ _____    ______ ____
ROOT
ATOM      1  C   UNL     1       5.190   6.081  17.383  0.00  0.00    +0.000 A 
ATOM      2  N   UNL     1       6.018   6.947  17.990  0.00  0.00    +0.000 NA
ATOM      3  C   UNL     1       7.226   7.121  17.455  0.00  0.00    +0.000 A 
ATOM      4  N   UNL     1       7.685   6.504  16.360  0.00  0.00    +0.000 NA
ATOM      5  C   UNL     1       6.852   5.657  15.751  0.00  0.00    +0.000 A 
ATOM      6  C   UNL     1       7.315   4.971  14.637  0.00  0.00    +0.000 A 
ATOM      7  C   UNL     1       6.512   4.062  13.943  0.00  0.00    +0.000 A 
ATOM      8  C   UNL     1       5.208   3.837  14.363  0.00  0.00    +0.000 A 
ATOM      9  C   UNL     1       4.723   4.505  15.487  0.00  0.00    +0.000 A 
ATOM     10  C   UNL     1       5.547   5.415  16.199  0.00  0.00    +0.000 A 
ENDROOT
BRANCH   1  11
ATOM     11  N   UNL     1       3.929   5.844  17.987  0.00  0.00    +0.000 N 
ATOM     12  H   UNL     1       3.462   5.081  17.512  0.00  0.00    +0.000 HD
BRANCH  11  17
ATOM     13  C   UNL     1       1.998   9.032  18.169  0.00  0.00    +0.000 A 
ATOM     14  C   UNL     1       1.432   8.947  19.434  0.00  0.00    +0.000 A 
ATOM     15  C   UNL     1       1.688   7.821  20.216  0.00  0.00    +0.000 A 
ATOM     16  C   UNL     1       2.501   6.790  19.729  0.00  0.00    +0.000 A 
ATOM     17  C   UNL     1       3.046   6.854  18.441  0.00  0.00    +0.000 A 
ATOM     18  C   UNL     1       2.798   8.006  17.677  0.00  0.00    +0.000 A 
BRANCH  13  19
ATOM     19  O   UNL     1       1.803  10.123  17.373  0.00  0.00    +0.000 OA
ATOM     20  H   UNL     1       2.668  10.470  17.104  0.00  0.00    +0.000 HD
ENDBRANCH  13  19
ENDBRANCH  11  17
ENDBRANCH   1  11
BRANCH   3  21
ATOM     21  C   UNL     1       8.089   8.067  18.154  0.00  0.00    +0.000 C 
ATOM     22  C   UNL     1       8.264   9.350  17.803  0.00  0.00    +0.000 C 
BRANCH  22  23
ATOM     23  C   UNL     1       9.130  10.284  18.534  0.00  0.00    +0.000 A 
ATOM     24  C   UNL     1       9.131  10.371  19.935  0.00  0.00    +0.000 A 
ATOM     25  C   UNL     1       9.966  11.275  20.594  0.00  0.00    +0.000 A 
ATOM     26  C   UNL     1      10.821  12.094  19.859  0.00  0.00    +0.000 A 
ATOM     27  C   UNL     1      10.845  11.995  18.471  0.00  0.00    +0.000 A 
ATOM     28 CL   UNL     1      11.911  12.997  17.564  0.00  0.00    +0.000 Cl
ATOM     29  C   UNL     1      10.011  11.095  17.807  0.00  0.00    +0.000 A 
ENDBRANCH  22  23
ENDBRANCH   3  21
TORSDOF 5
ENDMDL
MODEL 7
REMARK VINA RESULT:      -9.4      1.199      1.486
REMARK  Name = 
REMARK  5 active torsions:
REMARK  status: ('A' for Active; 'I' for Inactive)
REMARK    1  A    between atoms: O_1  and  C_2
REMARK    2  A    between atoms: C_6  and  N_7
REMARK    3  A    between atoms: N_7  and  C_8
REMARK    4  A    between atoms: C_10  and  C_11
REMARK    5  A    between atoms: C_12  and  C_13
REMARK                            x       y       z     vdW  Elec       q    Type
REMARK                         _______ _______ _______ _____ _____    ______ ____
ROOT
ATOM      1  C   UNL     1       6.185   5.086  18.380  0.00  0.00    +0.000 A 
ATOM      2  N   UNL     1       6.939   6.103  18.830  0.00  0.00    +0.000 NA
ATOM      3  C   UNL     1       7.593   6.830  17.924  0.00  0.00    +0.000 A 
ATOM      4  N   UNL     1       7.560   6.634  16.601  0.00  0.00    +0.000 NA
ATOM      5  C   UNL     1       6.796   5.633  16.159  0.00  0.00    +0.000 A 
ATOM      6  C   UNL     1       6.775   5.378  14.794  0.00  0.00    +0.000 A 
ATOM      7  C   UNL     1       6.008   4.347  14.247  0.00  0.00    +0.000 A 
ATOM      8  C   UNL     1       5.230   3.553  15.080  0.00  0.00    +0.000 A 
ATOM      9  C   UNL     1       5.243   3.781  16.455  0.00  0.00    +0.000 A 
ATOM     10  C   UNL     1       6.036   4.818  17.009  0.00  0.00    +0.000 A 
ENDROOT
BRANCH   1  11
ATOM     11  N   UNL     1       5.541   4.270  19.344  0.00  0.00    +0.000 N 
ATOM     12  H   UNL     1       5.844   3.309  19.234  0.00  0.00    +0.000 HD
BRANCH  11  17
ATOM     13  C   UNL     1       2.072   3.394  20.404  0.00  0.00    +0.000 A 
ATOM     14  C   UNL     1       1.438   4.627  20.340  0.00  0.00    +0.000 A 
ATOM     15  C   UNL     1       2.173   5.748  19.955  0.00  0.00    +0.000 A 
ATOM     16  C   UNL     1       3.533   5.630  19.642  0.00  0.00    +0.000 A 
ATOM     17  C   UNL     1       4.187   4.395  19.737  0.00  0.00    +0.000 A 
ATOM     18  C   UNL     1       3.425   3.273  20.103  0.00  0.00    +0.000 A 
BRANCH  13  19
ATOM     19  O   UNL     1       1.394   2.261  20.748  0.00  0.00    +0.000 OA
ATOM     20  H   UNL     1       0.445   2.417  20.626  0.00  0.00    +0.000 HD
ENDBRANCH  13  19
ENDBRANCH  11  17
ENDBRANCH   1  11
BRANCH   3  21
ATOM     21  C   UNL     1       8.402   7.919  18.463  0.00  0.00    +0.000 C 
ATOM     22  C   UNL     1       8.355   9.192  18.041  0.00  0.00    +0.000 C 
BRANCH  22  23
ATOM     23  C   UNL     1       9.173  10.269  18.611  0.00  0.00    +0.000 A 
ATOM     24  C   UNL     1      10.158  10.939  17.869  0.00  0.00    +0.000 A 
ATOM     25  C   UNL     1      10.920  11.956  18.447  0.00  0.00    +0.000 A 
ATOM     26  C   UNL     1      10.696  12.324  19.772  0.00  0.00    +0.000 A 
ATOM     27  C   UNL     1       9.704  11.682  20.507  0.00  0.00    +0.000 A 
ATOM     28 CL   UNL     1       9.418  12.146  22.140  0.00  0.00    +0.000 Cl
ATOM     29  C   UNL     1       8.941  10.664  19.935  0.00  0.00    +0.000 A 
ENDBRANCH  22  23
ENDBRANCH   3  21
TORSDOF 5
ENDMDL
MODEL 8
REMARK VINA RESULT:      -9.3      0.895      1.015
REMARK  Name = 
REMARK  5 active torsions:
REMARK  status: ('A' for Active; 'I' for Inactive)
REMARK    1  A    between atoms: O_1  and  C_2
REMARK    2  A    between atoms: C_6  and  N_7
REMARK    3  A    between atoms: N_7  and  C_8
REMARK    4  A    between atoms: C_10  and  C_11
REMARK    5  A    between atoms: C_12  and  C_13
REMARK                            x       y       z     vdW  Elec       q    Type
REMARK                         _______ _______ _______ _____ _____    ______ ____
ROOT
ATOM      1  C   UNL     1       6.303   4.728  18.011  0.00  0.00    +0.000 A 
ATOM      2  N   UNL     1       6.899   5.790  18.577  0.00  0.00    +0.000 NA
ATOM      3  C   UNL     1       7.508   6.657  17.768  0.00  0.00    +0.000 A 
ATOM      4  N   UNL     1       7.574   6.560  16.436  0.00  0.00    +0.000 NA
ATOM      5  C   UNL     1       6.966   5.511  15.877  0.00  0.00    +0.000 A 
ATOM      6  C   UNL     1       7.053   5.361  14.500  0.00  0.00    +0.000 A 
ATOM      7  C   UNL     1       6.452   4.290  13.834  0.00  0.00    +0.000 A 
ATOM      8  C   UNL     1       5.733   3.347  14.558  0.00  0.00    +0.000 A 
ATOM      9  C   UNL     1       5.641   3.470  15.944  0.00  0.00    +0.000 A 
ATOM     10  C   UNL     1       6.267   4.549  16.618  0.00  0.00    +0.000 A 
ENDROOT
BRANCH   1  11
ATOM     11  N   UNL     1       5.713   3.769  18.872  0.00  0.00    +0.000 N 
ATOM     12  H   UNL     1       6.248   2.910  18.845  0.00  0.00    +0.000 HD
BRANCH  11  17
ATOM     13  C   UNL     1       2.029   3.973  18.315  0.00  0.00    +0.000 A 
ATOM     14  C   UNL     1       1.538   3.309  19.430  0.00  0.00    +0.000 A 
ATOM     15  C   UNL     1       2.438   2.785  20.358  0.00  0.00    +0.000 A 
ATOM     16  C   UNL     1       3.818   2.925  20.163  0.00  0.00    +0.000 A 
ATOM     17  C   UNL     1       4.320   3.564  19.023  0.00  0.00    +0.000 A 
ATOM     18  C   UNL     1       3.399   4.106  18.111  0.00  0.00    +0.000 A 
BRANCH  13  19
ATOM     19  O   UNL     1       1.193   4.528  17.390  0.00  0.00    +0.000 OA
ATOM     20  H   UNL     1       0.290   4.524  17.744  0.00  0.00    +0.000 HD
ENDBRANCH  13  19
ENDBRANCH  11  17
ENDBRANCH   1  11
BRANCH   3  21
ATOM     21  C   UNL     1       8.144   7.791  18.433  0.00  0.00    +0.000 C 
ATOM     22  C   UNL     1       8.267   9.018  17.905  0.00  0.00    +0.000 C 
BRANCH  22  23
ATOM     23  C   UNL     1       8.903  10.144  18.603  0.00  0.00    +0.000 A 
ATOM     24  C   UNL     1       9.101  10.153  19.992  0.00  0.00    +0.000 A 
ATOM     25  C   UNL     1       9.704  11.244  20.620  0.00  0.00    +0.000 A 
ATOM     26  C   UNL     1      10.129  12.333  19.864  0.00  0.00    +0.000 A 
ATOM     27  C   UNL     1       9.960  12.321  18.482  0.00  0.00    +0.000 A 
ATOM     28 CL   UNL     1      10.498  13.661  17.545  0.00  0.00    +0.000 Cl
ATOM     29  C   UNL     1       9.355  11.234  17.849  0.00  0.00    +0.000 A 
ENDBRANCH  22  23
ENDBRANCH   3  21
TORSDOF 5
ENDMDL
MODEL 9
REMARK VINA RESULT:      -9.3      4.532      7.392
REMARK  Name = 
REMARK  5 active torsions:
REMARK  status: ('A' for Active; 'I' for Inactive)
REMARK    1  A    between atoms: O_1  and  C_2
REMARK    2  A    between atoms: C_6  and  N_7
REMARK    3  A    between atoms: N_7  and  C_8
REMARK    4  A    between atoms: C_10  and  C_11
REMARK    5  A    between atoms: C_12  and  C_13
REMARK                            x       y       z     vdW  Elec       q    Type
REMARK                         _______ _______ _______ _____ _____    ______ ____
ROOT
ATOM      1  C   UNL     1       3.243   5.597  18.684  0.00  0.00    +0.000 A 
ATOM      2  N   UNL     1       2.719   6.612  19.392  0.00  0.00    +0.000 NA
ATOM      3  C   UNL     1       1.756   6.319  20.265  0.00  0.00    +0.000 A 
ATOM      4  N   UNL     1       1.266   5.096  20.499  0.00  0.00    +0.000 NA
ATOM      5  C   UNL     1       1.802   4.090  19.805  0.00  0.00    +0.000 A 
ATOM      6  C   UNL     1       1.285   2.815  19.996  0.00  0.00    +0.000 A 
ATOM      7  C   UNL     1       1.783   1.706  19.307  0.00  0.00    +0.000 A 
ATOM      8  C   UNL     1       2.831   1.867  18.411  0.00  0.00    +0.000 A 
ATOM      9  C   UNL     1       3.360   3.139  18.193  0.00  0.00    +0.000 A 
ATOM     10  C   UNL     1       2.841   4.265  18.882  0.00  0.00    +0.000 A 
ENDROOT
BRANCH   1  11
ATOM     11  N   UNL     1       4.221   5.913  17.707  0.00  0.00    +0.000 N 
ATOM     12  H   UNL     1       4.075   5.343  16.882  0.00  0.00    +0.000 HD
BRANCH  11  17
ATOM     13  C   UNL     1       7.556   5.903  19.381  0.00  0.00    +0.000 A 
ATOM     14  C   UNL     1       8.249   6.846  18.633  0.00  0.00    +0.000 A 
ATOM     15  C   UNL     1       7.605   7.471  17.566  0.00  0.00    +0.000 A 
ATOM     16  C   UNL     1       6.278   7.150  17.252  0.00  0.00    +0.000 A 
ATOM     17  C   UNL     1       5.584   6.176  17.981  0.00  0.00    +0.000 A 
ATOM     18  C   UNL     1       6.241   5.573  19.067  0.00  0.00    +0.000 A 
BRANCH  13  19
ATOM     19  O   UNL     1       8.128   5.281  20.451  0.00  0.00    +0.000 OA
ATOM     20  H   UNL     1       8.923   4.812  20.151  0.00  0.00    +0.000 HD
ENDBRANCH  13  19
ENDBRANCH  11  17
ENDBRANCH   1  11
BRANCH   3  21
ATOM     21  C   UNL     1       1.217   7.456  21.004  0.00  0.00    +0.000 C 
ATOM     22  C   UNL     1       0.820   8.613  20.451  0.00  0.00    +0.000 C 
BRANCH  22  23
ATOM     23  C   UNL     1       0.270   9.737  21.220  0.00  0.00    +0.000 A 
ATOM     24  C   UNL     1      -0.423   9.555  22.426  0.00  0.00    +0.000 A 
ATOM     25  C   UNL     1      -0.937  10.648  23.127  0.00  0.00    +0.000 A 
ATOM     26  C   UNL     1      -0.750  11.938  22.635  0.00  0.00    +0.000 A 
ATOM     27  C   UNL     1      -0.041  12.129  21.452  0.00  0.00    +0.000 A 
ATOM     28 CL   UNL     1       0.202  13.723  20.851  0.00  0.00    +0.000 Cl
ATOM     29  C   UNL     1       0.472  11.039  20.747  0.00  0.00    +0.000 A 
ENDBRANCH  22  23
ENDBRANCH   3  21
TORSDOF 5
ENDMDL
