MODEL 1
REMARK VINA RESULT:      -7.6      0.000      0.000
REMARK  Name = 
REMARK  5 active torsions:
REMARK  status: ('A' for Active; 'I' for Inactive)
REMARK    1  A    between atoms: C_1  and  C_2
REMARK    2  A    between atoms: C_2  and  C_4
REMARK    3  A    between atoms: C_4  and  C_5
REMARK    4  A    between atoms: C_10  and  C_12
REMARK    5  A    between atoms: C_15  and  C_16
REMARK                            x       y       z     vdW  Elec       q    Type
REMARK                         _______ _______ _______ _____ _____    ______ ____
ROOT
ATOM      1  C   UNL     1      -0.106  11.418  21.898  0.00  0.00    +0.000 A 
ATOM      2  N   UNL     1      -0.571  10.987  23.078  0.00  0.00    +0.000 NA
ATOM      3  S   UNL     1       0.047   9.442  23.294  0.00  0.00    +0.000 S 
ATOM      4  C   UNL     1       0.842   9.448  21.785  0.00  0.00    +0.000 A 
ATOM      5  N   UNL     1       1.452   8.302  21.364  0.00  0.00    +0.000 N 
ATOM      6  C   UNL     1       1.756   8.119  20.026  0.00  0.00    +0.000 C 
ATOM      7  O   UNL     1       1.516   8.929  19.131  0.00  0.00    +0.000 OA
ATOM      8  N   UNL     1       0.732  10.594  21.161  0.00  0.00    +0.000 NA
ATOM      9  H   UNL     1       1.595   7.543  22.019  0.00  0.00    +0.000 HD
ENDROOT
BRANCH   6  10
ATOM     10  C   UNL     1       2.390   6.846  19.741  0.00  0.00    +0.000 A 
ATOM     11  C   UNL     1       2.196   5.586  20.274  0.00  0.00    +0.000 A 
ATOM     12  C   UNL     1       3.042   4.709  19.558  0.00  0.00    +0.000 A 
ATOM     13  C   UNL     1       3.726   5.481  18.644  0.00  0.00    +0.000 A 
ATOM     14  O   UNL     1       3.343   6.786  18.763  0.00  0.00    +0.000 OA
BRANCH  13  15
ATOM     15  C   UNL     1       4.759   5.184  17.664  0.00  0.00    +0.000 A 
ATOM     16  C   UNL     1       5.999   5.841  17.741  0.00  0.00    +0.000 A 
ATOM     17  C   UNL     1       6.945   5.692  16.728  0.00  0.00    +0.000 A 
ATOM     18  C   UNL     1       6.656   4.873  15.644  0.00  0.00    +0.000 A 
ATOM     19  F   UNL     1       7.541   4.775  14.643  0.00  0.00    +0.000 F 
ATOM     20  C   UNL     1       5.462   4.172  15.573  0.00  0.00    +0.000 A 
ATOM     21  C   UNL     1       4.516   4.318  16.591  0.00  0.00    +0.000 A 
ENDBRANCH  13  15
ENDBRANCH   6  10
BRANCH   1  22
ATOM     22  C   UNL     1      -0.527  12.726  21.323  0.00  0.00    +0.000 C 
BRANCH  22  24
ATOM     23  C   UNL     1       0.984  14.120  19.769  0.00  0.00    +0.000 C 
ATOM     24  C   UNL     1       0.651  13.655  21.160  0.00  0.00    +0.000 C 
ATOM     25  O   UNL     1       1.322  14.047  22.132  0.00  0.00    +0.000 OA
ENDBRANCH  22  24
ENDBRANCH   1  22
TORSDOF 4
ENDMDL
MODEL 2
REMARK VINA RESULT:      -7.4      4.902      9.252
REMARK  Name = 
REMARK  5 active torsions:
REMARK  status: ('A' for Active; 'I' for Inactive)
REMARK    1  A    between atoms: C_1  and  C_2
REMARK    2  A    between atoms: C_2  and  C_4
REMARK    3  A    between atoms: C_4  and  C_5
REMARK    4  A    between atoms: C_10  and  C_12
REMARK    5  A    between atoms: C_15  and  C_16
REMARK                            x       y       z     vdW  Elec       q    Type
REMARK                         _______ _______ _______ _____ _____    ______ ____
ROOT
ATOM      1  C   UNL     1       4.886   6.073  17.222  0.00  0.00    +0.000 A 
ATOM      2  N   UNL     1       5.029   5.248  18.267  0.00  0.00    +0.000 NA
ATOM      3  S   UNL     1       3.776   5.603  19.326  0.00  0.00    +0.000 S 
ATOM      4  C   UNL     1       3.173   6.856  18.338  0.00  0.00    +0.000 A 
ATOM      5  N   UNL     1       2.149   7.625  18.811  0.00  0.00    +0.000 N 
ATOM      6  C   UNL     1       1.888   8.866  18.257  0.00  0.00    +0.000 C 
ATOM      7  O   UNL     1       2.524   9.374  17.334  0.00  0.00    +0.000 OA
ATOM      8  N   UNL     1       3.823   6.964  17.207  0.00  0.00    +0.000 NA
ATOM      9  H   UNL     1       1.639   7.325  19.632  0.00  0.00    +0.000 HD
ENDROOT
BRANCH   6  10
ATOM     10  C   UNL     1       0.777   9.560  18.879  0.00  0.00    +0.000 A 
ATOM     11  C   UNL     1       0.569   9.978  20.180  0.00  0.00    +0.000 A 
ATOM     12  C   UNL     1      -0.661  10.671  20.190  0.00  0.00    +0.000 A 
ATOM     13  C   UNL     1      -1.154  10.620  18.904  0.00  0.00    +0.000 A 
ATOM     14  O   UNL     1      -0.288   9.930  18.105  0.00  0.00    +0.000 OA
BRANCH  13  15
ATOM     15  C   UNL     1      -2.381  11.097  18.286  0.00  0.00    +0.000 A 
ATOM     16  C   UNL     1      -3.316  11.809  19.057  0.00  0.00    +0.000 A 
ATOM     17  C   UNL     1      -4.564  12.139  18.532  0.00  0.00    +0.000 A 
ATOM     18  C   UNL     1      -4.872  11.770  17.229  0.00  0.00    +0.000 A 
ATOM     19  F   UNL     1      -6.092  12.037  16.744  0.00  0.00    +0.000 F 
ATOM     20  C   UNL     1      -3.947  11.116  16.431  0.00  0.00    +0.000 A 
ATOM     21  C   UNL     1      -2.693  10.789  16.956  0.00  0.00    +0.000 A 
ENDBRANCH  13  15
ENDBRANCH   6  10
BRANCH   1  22
ATOM     22  C   UNL     1       5.883   6.113  16.116  0.00  0.00    +0.000 C 
BRANCH  22  24
ATOM     23  C   UNL     1       6.031   3.724  15.160  0.00  0.00    +0.000 C 
ATOM     24  C   UNL     1       6.633   4.807  16.011  0.00  0.00    +0.000 C 
ATOM     25  O   UNL     1       7.722   4.623  16.586  0.00  0.00    +0.000 OA
ENDBRANCH  22  24
ENDBRANCH   1  22
TORSDOF 4
ENDMDL
MODEL 3
REMARK VINA RESULT:      -7.4      1.171      1.372
REMARK  Name = 
REMARK  5 active torsions:
REMARK  status: ('A' for Active; 'I' for Inactive)
REMARK    1  A    between atoms: C_1  and  C_2
REMARK    2  A    between atoms: C_2  and  C_4
REMARK    3  A    between atoms: C_4  and  C_5
REMARK    4  A    between atoms: C_10  and  C_12
REMARK    5  A    between atoms: C_15  and  C_16
REMARK                            x       y       z     vdW  Elec       q    Type
REMARK                         _______ _______ _______ _____ _____    ______ ____
ROOT
ATOM      1  C   UNL     1      -0.063  11.680  21.837  0.00  0.00    +0.000 A 
ATOM      2  N   UNL     1      -0.642  11.218  22.953  0.00  0.00    +0.000 NA
ATOM      3  S   UNL     1      -0.149   9.623  23.118  0.00  0.00    +0.000 S 
ATOM      4  C   UNL     1       0.753   9.655  21.670  0.00  0.00    +0.000 A 
ATOM      5  N   UNL     1       1.311   8.492  21.223  0.00  0.00    +0.000 N 
ATOM      6  C   UNL     1       1.700   8.363  19.901  0.00  0.00    +0.000 C 
ATOM      7  O   UNL     1       1.582   9.236  19.042  0.00  0.00    +0.000 OA
ATOM      8  N   UNL     1       0.768  10.838  21.111  0.00  0.00    +0.000 NA
ATOM      9  H   UNL     1       1.354   7.690  21.839  0.00  0.00    +0.000 HD
ENDROOT
BRANCH   6  10
ATOM     10  C   UNL     1       2.263   7.065  19.584  0.00  0.00    +0.000 A 
ATOM     11  C   UNL     1       2.102   5.826  20.174  0.00  0.00    +0.000 A 
ATOM     12  C   UNL     1       2.835   4.906  19.392  0.00  0.00    +0.000 A 
ATOM     13  C   UNL     1       3.426   5.632  18.380  0.00  0.00    +0.000 A 
ATOM     14  O   UNL     1       3.092   6.949  18.502  0.00  0.00    +0.000 OA
BRANCH  13  15
ATOM     15  C   UNL     1       4.328   5.278  17.295  0.00  0.00    +0.000 A 
ATOM     16  C   UNL     1       4.824   6.284  16.449  0.00  0.00    +0.000 A 
ATOM     17  C   UNL     1       5.562   5.955  15.313  0.00  0.00    +0.000 A 
ATOM     18  C   UNL     1       5.815   4.619  15.031  0.00  0.00    +0.000 A 
ATOM     19  F   UNL     1       6.474   4.299  13.909  0.00  0.00    +0.000 F 
ATOM     20  C   UNL     1       5.384   3.612  15.880  0.00  0.00    +0.000 A 
ATOM     21  C   UNL     1       4.649   3.942  17.022  0.00  0.00    +0.000 A 
ENDBRANCH  13  15
ENDBRANCH   6  10
BRANCH   1  22
ATOM     22  C   UNL     1      -0.350  13.044  21.315  0.00  0.00    +0.000 C 
BRANCH  22  24
ATOM     23  C   UNL     1      -2.253  12.185  19.804  0.00  0.00    +0.000 C 
ATOM     24  C   UNL     1      -0.986  12.982  19.947  0.00  0.00    +0.000 C 
ATOM     25  O   UNL     1      -0.504  13.579  18.967  0.00  0.00    +0.000 OA
ENDBRANCH  22  24
ENDBRANCH   1  22
TORSDOF 4
ENDMDL
MODEL 4
REMARK VINA RESULT:      -7.4      1.222      1.647
REMARK  Name = 
REMARK  5 active torsions:
REMARK  status: ('A' for Active; 'I' for Inactive)
REMARK    1  A    between atoms: C_1  and  C_2
REMARK    2  A    between atoms: C_2  and  C_4
REMARK    3  A    between atoms: C_4  and  C_5
REMARK    4  A    between atoms: C_10  and  C_12
REMARK    5  A    between atoms: C_15  and  C_16
REMARK                            x       y       z     vdW  Elec       q    Type
REMARK                         _______ _______ _______ _____ _____    ______ ____
ROOT
ATOM      1  C   UNL     1      -0.110  11.532  21.866  0.00  0.00    +0.000 A 
ATOM      2  N   UNL     1      -0.611  11.068  23.018  0.00  0.00    +0.000 NA
ATOM      3  S   UNL     1      -0.039   9.499  23.185  0.00  0.00    +0.000 S 
ATOM      4  C   UNL     1       0.787   9.543  21.693  0.00  0.00    +0.000 A 
ATOM      5  N   UNL     1       1.375   8.397  21.239  0.00  0.00    +0.000 N 
ATOM      6  C   UNL     1       1.703   8.259  19.902  0.00  0.00    +0.000 C 
ATOM      7  O   UNL     1       1.503   9.109  19.035  0.00  0.00    +0.000 OA
ATOM      8  N   UNL     1       0.721  10.714  21.114  0.00  0.00    +0.000 NA
ATOM      9  H   UNL     1       1.485   7.610  21.866  0.00  0.00    +0.000 HD
ENDROOT
BRANCH   6  10
ATOM     10  C   UNL     1       2.308   6.981  19.579  0.00  0.00    +0.000 A 
ATOM     11  C   UNL     1       2.272   5.760  20.226  0.00  0.00    +0.000 A 
ATOM     12  C   UNL     1       2.982   4.850  19.411  0.00  0.00    +0.000 A 
ATOM     13  C   UNL     1       3.437   5.565  18.324  0.00  0.00    +0.000 A 
ATOM     14  O   UNL     1       3.041   6.867  18.431  0.00  0.00    +0.000 OA
BRANCH  13  15
ATOM     15  C   UNL     1       4.256   5.217  17.174  0.00  0.00    +0.000 A 
ATOM     16  C   UNL     1       4.566   3.870  16.923  0.00  0.00    +0.000 A 
ATOM     17  C   UNL     1       5.474   3.525  15.923  0.00  0.00    +0.000 A 
ATOM     18  C   UNL     1       6.060   4.528  15.163  0.00  0.00    +0.000 A 
ATOM     19  F   UNL     1       6.975   4.201  14.240  0.00  0.00    +0.000 F 
ATOM     20  C   UNL     1       5.728   5.860  15.354  0.00  0.00    +0.000 A 
ATOM     21  C   UNL     1       4.815   6.206  16.354  0.00  0.00    +0.000 A 
ENDBRANCH  13  15
ENDBRANCH   6  10
BRANCH   1  22
ATOM     22  C   UNL     1      -0.484  12.872  21.335  0.00  0.00    +0.000 C 
BRANCH  22  24
ATOM     23  C   UNL     1      -2.922  12.636  20.531  0.00  0.00    +0.000 C 
ATOM     24  C   UNL     1      -1.461  12.752  20.191  0.00  0.00    +0.000 C 
ATOM     25  O   UNL     1      -1.092  12.766  19.002  0.00  0.00    +0.000 OA
ENDBRANCH  22  24
ENDBRANCH   1  22
TORSDOF 4
ENDMDL
MODEL 5
REMARK VINA RESULT:      -7.3      1.252      1.330
REMARK  Name = 
REMARK  5 active torsions:
REMARK  status: ('A' for Active; 'I' for Inactive)
REMARK    1  A    between atoms: C_1  and  C_2
REMARK    2  A    between atoms: C_2  and  C_4
REMARK    3  A    between atoms: C_4  and  C_5
REMARK    4  A    between atoms: C_10  and  C_12
REMARK    5  A    between atoms: C_15  and  C_16
REMARK                            x       y       z     vdW  Elec       q    Type
REMARK                         _______ _______ _______ _____ _____    ______ ____
ROOT
ATOM      1  C   UNL     1      -0.388  11.436  21.613  0.00  0.00    +0.000 A 
ATOM      2  N   UNL     1      -0.767  11.083  22.848  0.00  0.00    +0.000 NA
ATOM      3  S   UNL     1      -0.026   9.612  23.169  0.00  0.00    +0.000 S 
ATOM      4  C   UNL     1       0.699   9.535  21.626  0.00  0.00    +0.000 A 
ATOM      5  N   UNL     1       1.373   8.401  21.278  0.00  0.00    +0.000 N 
ATOM      6  C   UNL     1       1.632   8.118  19.948  0.00  0.00    +0.000 C 
ATOM      7  O   UNL     1       1.292   8.823  18.998  0.00  0.00    +0.000 OA
ATOM      8  N   UNL     1       0.476  10.608  20.911  0.00  0.00    +0.000 NA
ATOM      9  H   UNL     1       1.602   7.718  21.989  0.00  0.00    +0.000 HD
ENDROOT
BRANCH   6  10
ATOM     10  C   UNL     1       2.345   6.873  19.745  0.00  0.00    +0.000 A 
ATOM     11  C   UNL     1       2.254   5.649  20.381  0.00  0.00    +0.000 A 
ATOM     12  C   UNL     1       3.141   4.777  19.711  0.00  0.00    +0.000 A 
ATOM     13  C   UNL     1       3.746   5.517  18.719  0.00  0.00    +0.000 A 
ATOM     14  O   UNL     1       3.276   6.798  18.746  0.00  0.00    +0.000 OA
BRANCH  13  15
ATOM     15  C   UNL     1       4.773   5.213  17.734  0.00  0.00    +0.000 A 
ATOM     16  C   UNL     1       6.006   5.885  17.785  0.00  0.00    +0.000 A 
ATOM     17  C   UNL     1       6.943   5.727  16.766  0.00  0.00    +0.000 A 
ATOM     18  C   UNL     1       6.652   4.884  15.700  0.00  0.00    +0.000 A 
ATOM     19  F   UNL     1       7.528   4.776  14.692  0.00  0.00    +0.000 F 
ATOM     20  C   UNL     1       5.466   4.168  15.655  0.00  0.00    +0.000 A 
ATOM     21  C   UNL     1       4.528   4.323  16.680  0.00  0.00    +0.000 A 
ENDBRANCH  13  15
ENDBRANCH   6  10
BRANCH   1  22
ATOM     22  C   UNL     1      -0.931  12.652  20.947  0.00  0.00    +0.000 C 
BRANCH  22  24
ATOM     23  C   UNL     1      -0.603  13.002  18.415  0.00  0.00    +0.000 C 
ATOM     24  C   UNL     1      -1.368  12.351  19.534  0.00  0.00    +0.000 C 
ATOM     25  O   UNL     1      -2.313  11.580  19.285  0.00  0.00    +0.000 OA
ENDBRANCH  22  24
ENDBRANCH   1  22
TORSDOF 4
ENDMDL
MODEL 6
REMARK VINA RESULT:      -7.2      4.788      9.258
REMARK  Name = 
REMARK  5 active torsions:
REMARK  status: ('A' for Active; 'I' for Inactive)
REMARK    1  A    between atoms: C_1  and  C_2
REMARK    2  A    between atoms: C_2  and  C_4
REMARK    3  A    between atoms: C_4  and  C_5
REMARK    4  A    between atoms: C_10  and  C_12
REMARK    5  A    between atoms: C_15  and  C_16
REMARK                            x       y       z     vdW  Elec       q    Type
REMARK                         _______ _______ _______ _____ _____    ______ ____
ROOT
ATOM      1  C   UNL     1       4.238   3.893  19.085  0.00  0.00    +0.000 A 
ATOM      2  N   UNL     1       4.650   3.843  17.811  0.00  0.00    +0.000 NA
ATOM      3  S   UNL     1       4.309   5.345  17.144  0.00  0.00    +0.000 S 
ATOM      4  C   UNL     1       3.599   5.926  18.582  0.00  0.00    +0.000 A 
ATOM      5  N   UNL     1       2.998   7.151  18.564  0.00  0.00    +0.000 N 
ATOM      6  C   UNL     1       2.084   7.500  19.544  0.00  0.00    +0.000 C 
ATOM      7  O   UNL     1       1.739   6.775  20.476  0.00  0.00    +0.000 OA
ATOM      8  N   UNL     1       3.681   5.069  19.568  0.00  0.00    +0.000 NA
ATOM      9  H   UNL     1       3.151   7.771  17.778  0.00  0.00    +0.000 HD
ENDROOT
BRANCH   6  10
ATOM     10  C   UNL     1       1.528   8.828  19.376  0.00  0.00    +0.000 A 
ATOM     11  C   UNL     1       1.673   9.763  18.368  0.00  0.00    +0.000 A 
ATOM     12  C   UNL     1       0.835  10.850  18.700  0.00  0.00    +0.000 A 
ATOM     13  C   UNL     1       0.241  10.537  19.904  0.00  0.00    +0.000 A 
ATOM     14  O   UNL     1       0.673   9.313  20.326  0.00  0.00    +0.000 OA
BRANCH  13  15
ATOM     15  C   UNL     1      -0.672  11.252  20.781  0.00  0.00    +0.000 A 
ATOM     16  C   UNL     1      -0.610  11.042  22.169  0.00  0.00    +0.000 A 
ATOM     17  C   UNL     1      -1.572  11.593  23.014  0.00  0.00    +0.000 A 
ATOM     18  C   UNL     1      -2.589  12.368  22.470  0.00  0.00    +0.000 A 
ATOM     19  F   UNL     1      -3.546  12.850  23.275  0.00  0.00    +0.000 F 
ATOM     20  C   UNL     1      -2.640  12.635  21.111  0.00  0.00    +0.000 A 
ATOM     21  C   UNL     1      -1.672  12.086  20.265  0.00  0.00    +0.000 A 
ENDBRANCH  13  15
ENDBRANCH   6  10
BRANCH   1  22
ATOM     22  C   UNL     1       4.292   2.698  19.971  0.00  0.00    +0.000 C 
BRANCH  22  24
ATOM     23  C   UNL     1       1.762   2.237  19.798  0.00  0.00    +0.000 C 
ATOM     24  C   UNL     1       2.970   2.471  20.663  0.00  0.00    +0.000 C 
ATOM     25  O   UNL     1       2.868   2.457  21.903  0.00  0.00    +0.000 OA
ENDBRANCH  22  24
ENDBRANCH   1  22
TORSDOF 4
ENDMDL
MODEL 7
REMARK VINA RESULT:      -7.1      4.225      8.856
REMARK  Name = 
REMARK  5 active torsions:
REMARK  status: ('A' for Active; 'I' for Inactive)
REMARK    1  A    between atoms: C_1  and  C_2
REMARK    2  A    between atoms: C_2  and  C_4
REMARK    3  A    between atoms: C_4  and  C_5
REMARK    4  A    between atoms: C_10  and  C_12
REMARK    5  A    between atoms: C_15  and  C_16
REMARK                            x       y       z     vdW  Elec       q    Type
REMARK                         _______ _______ _______ _____ _____    ______ ____
ROOT
ATOM      1  C   UNL     1       4.631   3.977  16.717  0.00  0.00    +0.000 A 
ATOM      2  N   UNL     1       4.361   2.854  17.397  0.00  0.00    +0.000 NA
ATOM      3  S   UNL     1       3.210   3.263  18.548  0.00  0.00    +0.000 S 
ATOM      4  C   UNL     1       3.198   4.905  18.087  0.00  0.00    +0.000 A 
ATOM      5  N   UNL     1       2.468   5.786  18.832  0.00  0.00    +0.000 N 
ATOM      6  C   UNL     1       2.723   7.145  18.761  0.00  0.00    +0.000 C 
ATOM      7  O   UNL     1       3.591   7.664  18.061  0.00  0.00    +0.000 OA
ATOM      8  N   UNL     1       3.959   5.144  17.050  0.00  0.00    +0.000 NA
ATOM      9  H   UNL     1       1.801   5.436  19.508  0.00  0.00    +0.000 HD
ENDROOT
BRANCH   6  10
ATOM     10  C   UNL     1       1.870   7.943  19.621  0.00  0.00    +0.000 A 
ATOM     11  C   UNL     1       1.342   7.696  20.874  0.00  0.00    +0.000 A 
ATOM     12  C   UNL     1       0.647   8.865  21.258  0.00  0.00    +0.000 A 
ATOM     13  C   UNL     1       0.764   9.754  20.212  0.00  0.00    +0.000 A 
ATOM     14  O   UNL     1       1.495   9.191  19.206  0.00  0.00    +0.000 OA
BRANCH  13  15
ATOM     15  C   UNL     1       0.239  11.090  19.976  0.00  0.00    +0.000 A 
ATOM     16  C   UNL     1      -0.339  11.400  18.733  0.00  0.00    +0.000 A 
ATOM     17  C   UNL     1      -0.706  12.710  18.429  0.00  0.00    +0.000 A 
ATOM     18  C   UNL     1      -0.508  13.708  19.374  0.00  0.00    +0.000 A 
ATOM     19  F   UNL     1      -0.807  14.976  19.061  0.00  0.00    +0.000 F 
ATOM     20  C   UNL     1       0.009  13.418  20.627  0.00  0.00    +0.000 A 
ATOM     21  C   UNL     1       0.372  12.103  20.934  0.00  0.00    +0.000 A 
ENDBRANCH  13  15
ENDBRANCH   6  10
BRANCH   1  22
ATOM     22  C   UNL     1       5.687   4.020  15.669  0.00  0.00    +0.000 C 
BRANCH  22  24
ATOM     23  C   UNL     1       7.477   4.625  17.422  0.00  0.00    +0.000 C 
ATOM     24  C   UNL     1       6.837   4.903  16.089  0.00  0.00    +0.000 C 
ATOM     25  O   UNL     1       7.266   5.819  15.365  0.00  0.00    +0.000 OA
ENDBRANCH  22  24
ENDBRANCH   1  22
TORSDOF 4
ENDMDL
MODEL 8
REMARK VINA RESULT:      -7.1      4.897      8.937
REMARK  Name = 
REMARK  5 active torsions:
REMARK  status: ('A' for Active; 'I' for Inactive)
REMARK    1  A    between atoms: C_1  and  C_2
REMARK    2  A    between atoms: C_2  and  C_4
REMARK    3  A    between atoms: C_4  and  C_5
REMARK    4  A    between atoms: C_10  and  C_12
REMARK    5  A    between atoms: C_15  and  C_16
REMARK                            x       y       z     vdW  Elec       q    Type
REMARK                         _______ _______ _______ _____ _____    ______ ____
ROOT
ATOM      1  C   UNL     1       4.715   4.961  17.005  0.00  0.00    +0.000 A 
ATOM      2  N   UNL     1       4.384   3.931  17.795  0.00  0.00    +0.000 NA
ATOM      3  S   UNL     1       3.024   4.411  18.654  0.00  0.00    +0.000 S 
ATOM      4  C   UNL     1       3.012   5.964  17.947  0.00  0.00    +0.000 A 
ATOM      5  N   UNL     1       2.116   6.884  18.409  0.00  0.00    +0.000 N 
ATOM      6  C   UNL     1       2.310   8.234  18.172  0.00  0.00    +0.000 C 
ATOM      7  O   UNL     1       3.263   8.712  17.558  0.00  0.00    +0.000 OA
ATOM      8  N   UNL     1       3.936   6.108  17.031  0.00  0.00    +0.000 NA
ATOM      9  H   UNL     1       1.356   6.584  19.007  0.00  0.00    +0.000 HD
ENDROOT
BRANCH   6  10
ATOM     10  C   UNL     1       1.277   9.079  18.738  0.00  0.00    +0.000 A 
ATOM     11  C   UNL     1       1.167   9.694  19.970  0.00  0.00    +0.000 A 
ATOM     12  C   UNL     1      -0.021  10.458  19.938  0.00  0.00    +0.000 A 
ATOM     13  C   UNL     1      -0.589  10.250  18.699  0.00  0.00    +0.000 A 
ATOM     14  O   UNL     1       0.190   9.399  17.971  0.00  0.00    +0.000 OA
BRANCH  13  15
ATOM     15  C   UNL     1      -1.822  10.708  18.079  0.00  0.00    +0.000 A 
ATOM     16  C   UNL     1      -2.643  11.625  18.757  0.00  0.00    +0.000 A 
ATOM     17  C   UNL     1      -3.900  11.958  18.256  0.00  0.00    +0.000 A 
ATOM     18  C   UNL     1      -4.331  11.384  17.066  0.00  0.00    +0.000 A 
ATOM     19  F   UNL     1      -5.562  11.659  16.614  0.00  0.00    +0.000 F 
ATOM     20  C   UNL     1      -3.517  10.520  16.351  0.00  0.00    +0.000 A 
ATOM     21  C   UNL     1      -2.255  10.190  16.851  0.00  0.00    +0.000 A 
ENDBRANCH  13  15
ENDBRANCH   6  10
BRANCH   1  22
ATOM     22  C   UNL     1       5.940   4.934  16.159  0.00  0.00    +0.000 C 
BRANCH  22  24
ATOM     23  C   UNL     1       7.682   4.939  18.059  0.00  0.00    +0.000 C 
ATOM     24  C   UNL     1       7.095   5.616  16.851  0.00  0.00    +0.000 C 
ATOM     25  O   UNL     1       7.570   6.690  16.439  0.00  0.00    +0.000 OA
ENDBRANCH  22  24
ENDBRANCH   1  22
TORSDOF 4
ENDMDL
MODEL 9
REMARK VINA RESULT:      -7.1      4.853      8.974
REMARK  Name = 
REMARK  5 active torsions:
REMARK  status: ('A' for Active; 'I' for Inactive)
REMARK    1  A    between atoms: C_1  and  C_2
REMARK    2  A    between atoms: C_2  and  C_4
REMARK    3  A    between atoms: C_4  and  C_5
REMARK    4  A    between atoms: C_10  and  C_12
REMARK    5  A    between atoms: C_15  and  C_16
REMARK                            x       y       z     vdW  Elec       q    Type
REMARK                         _______ _______ _______ _____ _____    ______ ____
ROOT
ATOM      1  C   UNL     1       4.277   5.007  17.896  0.00  0.00    +0.000 A 
ATOM      2  N   UNL     1       4.195   4.465  19.118  0.00  0.00    +0.000 NA
ATOM      3  S   UNL     1       3.069   5.376  19.966  0.00  0.00    +0.000 S 
ATOM      4  C   UNL     1       2.817   6.447  18.663  0.00  0.00    +0.000 A 
ATOM      5  N   UNL     1       2.023   7.540  18.861  0.00  0.00    +0.000 N 
ATOM      6  C   UNL     1       2.095   8.625  18.004  0.00  0.00    +0.000 C 
ATOM      7  O   UNL     1       2.847   8.708  17.034  0.00  0.00    +0.000 OA
ATOM      8  N   UNL     1       3.480   6.100  17.589  0.00  0.00    +0.000 NA
ATOM      9  H   UNL     1       1.447   7.595  19.692  0.00  0.00    +0.000 HD
ENDROOT
BRANCH   6  10
ATOM     10  C   UNL     1       1.197   9.707  18.358  0.00  0.00    +0.000 A 
ATOM     11  C   UNL     1       1.393  10.857  19.099  0.00  0.00    +0.000 A 
ATOM     12  C   UNL     1       0.182  11.583  19.048  0.00  0.00    +0.000 A 
ATOM     13  C   UNL     1      -0.698  10.829  18.302  0.00  0.00    +0.000 A 
ATOM     14  O   UNL     1      -0.089   9.678  17.893  0.00  0.00    +0.000 OA
BRANCH  13  15
ATOM     15  C   UNL     1      -2.094  11.002  17.932  0.00  0.00    +0.000 A 
ATOM     16  C   UNL     1      -2.507  10.711  16.621  0.00  0.00    +0.000 A 
ATOM     17  C   UNL     1      -3.801  11.016  16.201  0.00  0.00    +0.000 A 
ATOM     18  C   UNL     1      -4.686  11.600  17.097  0.00  0.00    +0.000 A 
ATOM     19  F   UNL     1      -5.911  11.946  16.677  0.00  0.00    +0.000 F 
ATOM     20  C   UNL     1      -4.320  11.846  18.411  0.00  0.00    +0.000 A 
ATOM     21  C   UNL     1      -3.024  11.536  18.834  0.00  0.00    +0.000 A 
ENDBRANCH  13  15
ENDBRANCH   6  10
BRANCH   1  22
ATOM     22  C   UNL     1       5.257   4.517  16.888  0.00  0.00    +0.000 C 
BRANCH  22  24
ATOM     23  C   UNL     1       7.207   6.073  17.533  0.00  0.00    +0.000 C 
ATOM     24  C   UNL     1       6.226   5.605  16.494  0.00  0.00    +0.000 C 
ATOM     25  O   UNL     1       6.239   6.096  15.350  0.00  0.00    +0.000 OA
ENDBRANCH  22  24
ENDBRANCH   1  22
TORSDOF 4
ENDMDL
