MODEL 1
REMARK VINA RESULT:      -6.9      0.000      0.000
REMARK  Name = 
REMARK  11 active torsions:
REMARK  status: ('A' for Active; 'I' for Inactive)
REMARK    1  A    between atoms: C_1  and  N_2
REMARK    2  A    between atoms: N_2  and  C_3
REMARK    3  A    between atoms: N_2  and  C_4
REMARK    4  A    between atoms: C_4  and  C_5
REMARK    5  A    between atoms: C_5  and  N_6
REMARK    6  A    between atoms: N_6  and  C_7
REMARK    7  A    between atoms: C_7  and  C_8
REMARK    8  A    between atoms: C_8  and  C_9
REMARK    9  A    between atoms: C_9  and  N_10
REMARK   10  A    between atoms: N_10  and  C_11
REMARK   11  A    between atoms: C_23  and  N_24
REMARK                            x       y       z     vdW  Elec       q    Type
REMARK                         _______ _______ _______ _____ _____    ______ ____
ROOT
ATOM      1  C   UNL     1       3.193   6.214  18.380  0.00  0.00    +0.000 A 
ATOM      2  C   UNL     1       2.493   7.493  18.598  0.00  0.00    +0.000 A 
ATOM      3  C   UNL     1       2.481   8.720  17.830  0.00  0.00    +0.000 A 
ATOM      4  C   UNL     1       1.817   9.890  18.201  0.00  0.00    +0.000 A 
ATOM      5  C   UNL     1       1.101   9.900  19.368  0.00  0.00    +0.000 A 
ATOM      6  C   UNL     1       1.051   8.733  20.124  0.00  0.00    +0.000 A 
ATOM      7  C   UNL     1       1.718   7.560  19.770  0.00  0.00    +0.000 A 
ATOM      8  N   UNL     1       1.559   6.550  20.617  0.00  0.00    +0.000 NA
ATOM      9  C   UNL     1       2.181   5.391  20.423  0.00  0.00    +0.000 A 
ATOM     10  C   UNL     1       1.904   4.430  21.389  0.00  0.00    +0.000 A 
ATOM     11  C   UNL     1       2.484   3.167  21.390  0.00  0.00    +0.000 A 
ATOM     12  C   UNL     1       3.381   2.856  20.391  0.00  0.00    +0.000 A 
ATOM     13  C   UNL     1       3.656   3.815  19.394  0.00  0.00    +0.000 A 
ATOM     14  C   UNL     1       3.056   5.127  19.351  0.00  0.00    +0.000 A 
ENDROOT
BRANCH  13  15
ATOM     15  N   UNL     1       4.672   3.411  18.439  0.00  0.00    +0.000 N 
ATOM     16  O   UNL     1       5.857   3.580  18.762  0.00  0.00    +0.000 OA
ATOM     17  O   UNL     1       4.282   3.016  17.329  0.00  0.00    +0.000 OA
ENDBRANCH  13  15
BRANCH   1  18
ATOM     18  N   UNL     1       3.981   5.920  17.208  0.00  0.00    +0.000 N 
ATOM     19  H   UNL     1       4.436   5.005  17.326  0.00  0.00    +0.000 HD
BRANCH  18  20
ATOM     20  C   UNL     1       4.965   6.897  16.786  0.00  0.00    +0.000 C 
BRANCH  20  21
ATOM     21  C   UNL     1       6.423   6.568  17.034  0.00  0.00    +0.000 C 
BRANCH  21  22
ATOM     22  C   UNL     1       6.785   5.280  16.257  0.00  0.00    +0.000 C 
BRANCH  22  23
ATOM     23  N   UNL     1       5.934   5.054  15.075  0.00  0.00    +0.000 NA
ATOM     24  H   UNL     1       4.963   4.932  15.372  0.00  0.00    +0.000 HD
BRANCH  23  25
ATOM     25  C   UNL     1       6.273   3.803  14.374  0.00  0.00    +0.000 C 
BRANCH  25  26
ATOM     26  C   UNL     1       6.152   3.878  12.830  0.00  0.00    +0.000 C 
BRANCH  26  28
ATOM     27  C   UNL     1       4.323   3.265  11.352  0.00  0.00    +0.000 C 
ATOM     28  N   UNL     1       5.394   2.758  12.218  0.00  0.00    +0.000 NA
ATOM     29  C   UNL     1       6.309   1.933  11.419  0.00  0.00    +0.000 C 
ENDBRANCH  26  28
ENDBRANCH  25  26
ENDBRANCH  23  25
ENDBRANCH  22  23
ENDBRANCH  21  22
ENDBRANCH  20  21
ENDBRANCH  18  20
ENDBRANCH   1  18
TORSDOF 9
ENDMDL
MODEL 2
REMARK VINA RESULT:      -6.8      2.672      4.699
REMARK  Name = 
REMARK  11 active torsions:
REMARK  status: ('A' for Active; 'I' for Inactive)
REMARK    1  A    between atoms: C_1  and  N_2
REMARK    2  A    between atoms: N_2  and  C_3
REMARK    3  A    between atoms: N_2  and  C_4
REMARK    4  A    between atoms: C_4  and  C_5
REMARK    5  A    between atoms: C_5  and  N_6
REMARK    6  A    between atoms: N_6  and  C_7
REMARK    7  A    between atoms: C_7  and  C_8
REMARK    8  A    between atoms: C_8  and  C_9
REMARK    9  A    between atoms: C_9  and  N_10
REMARK   10  A    between atoms: N_10  and  C_11
REMARK   11  A    between atoms: C_23  and  N_24
REMARK                            x       y       z     vdW  Elec       q    Type
REMARK                         _______ _______ _______ _____ _____    ______ ____
ROOT
ATOM      1  C   UNL     1       3.130   6.293  18.509  0.00  0.00    +0.000 A 
ATOM      2  C   UNL     1       2.389   7.532  18.807  0.00  0.00    +0.000 A 
ATOM      3  C   UNL     1       2.325   8.800  18.110  0.00  0.00    +0.000 A 
ATOM      4  C   UNL     1       1.625   9.922  18.552  0.00  0.00    +0.000 A 
ATOM      5  C   UNL     1       0.921   9.840  19.725  0.00  0.00    +0.000 A 
ATOM      6  C   UNL     1       0.921   8.632  20.414  0.00  0.00    +0.000 A 
ATOM      7  C   UNL     1       1.625   7.505  19.987  0.00  0.00    +0.000 A 
ATOM      8  N   UNL     1       1.511   6.444  20.777  0.00  0.00    +0.000 NA
ATOM      9  C   UNL     1       2.170   5.321  20.512  0.00  0.00    +0.000 A 
ATOM     10  C   UNL     1       1.938   4.298  21.424  0.00  0.00    +0.000 A 
ATOM     11  C   UNL     1       2.562   3.058  21.348  0.00  0.00    +0.000 A 
ATOM     12  C   UNL     1       3.458   2.836  20.324  0.00  0.00    +0.000 A 
ATOM     13  C   UNL     1       3.688   3.859  19.382  0.00  0.00    +0.000 A 
ATOM     14  C   UNL     1       3.042   5.149  19.418  0.00  0.00    +0.000 A 
ENDROOT
BRANCH  13  15
ATOM     15  N   UNL     1       4.707   3.545  18.395  0.00  0.00    +0.000 N 
ATOM     16  O   UNL     1       5.884   3.791  18.696  0.00  0.00    +0.000 OA
ATOM     17  O   UNL     1       4.319   3.147  17.286  0.00  0.00    +0.000 OA
ENDBRANCH  13  15
BRANCH   1  18
ATOM     18  N   UNL     1       3.915   6.094  17.315  0.00  0.00    +0.000 N 
ATOM     19  H   UNL     1       4.225   5.114  17.273  0.00  0.00    +0.000 HD
BRANCH  18  20
ATOM     20  C   UNL     1       5.049   6.969  17.092  0.00  0.00    +0.000 C 
BRANCH  20  21
ATOM     21  C   UNL     1       6.382   6.316  16.790  0.00  0.00    +0.000 C 
BRANCH  21  22
ATOM     22  C   UNL     1       7.461   6.931  17.713  0.00  0.00    +0.000 C 
BRANCH  22  23
ATOM     23  N   UNL     1       8.137   8.100  17.122  0.00  0.00    +0.000 NA
ATOM     24  H   UNL     1       9.149   7.960  17.149  0.00  0.00    +0.000 HD
BRANCH  23  25
ATOM     25  C   UNL     1       7.907   9.330  17.900  0.00  0.00    +0.000 C 
BRANCH  25  26
ATOM     26  C   UNL     1       8.972   9.606  18.994  0.00  0.00    +0.000 C 
BRANCH  26  28
ATOM     27  C   UNL     1       8.976  11.818  17.986  0.00  0.00    +0.000 C 
ATOM     28  N   UNL     1       9.737  10.864  18.802  0.00  0.00    +0.000 NA
ATOM     29  C   UNL     1      10.016  11.466  20.113  0.00  0.00    +0.000 C 
ENDBRANCH  26  28
ENDBRANCH  25  26
ENDBRANCH  23  25
ENDBRANCH  22  23
ENDBRANCH  21  22
ENDBRANCH  20  21
ENDBRANCH  18  20
ENDBRANCH   1  18
TORSDOF 9
ENDMDL
MODEL 3
REMARK VINA RESULT:      -6.6      2.978      5.051
REMARK  Name = 
REMARK  11 active torsions:
REMARK  status: ('A' for Active; 'I' for Inactive)
REMARK    1  A    between atoms: C_1  and  N_2
REMARK    2  A    between atoms: N_2  and  C_3
REMARK    3  A    between atoms: N_2  and  C_4
REMARK    4  A    between atoms: C_4  and  C_5
REMARK    5  A    between atoms: C_5  and  N_6
REMARK    6  A    between atoms: N_6  and  C_7
REMARK    7  A    between atoms: C_7  and  C_8
REMARK    8  A    between atoms: C_8  and  C_9
REMARK    9  A    between atoms: C_9  and  N_10
REMARK   10  A    between atoms: N_10  and  C_11
REMARK   11  A    between atoms: C_23  and  N_24
REMARK                            x       y       z     vdW  Elec       q    Type
REMARK                         _______ _______ _______ _____ _____    ______ ____
ROOT
ATOM      1  C   UNL     1       3.198   6.272  18.327  0.00  0.00    +0.000 A 
ATOM      2  C   UNL     1       2.514   7.562  18.532  0.00  0.00    +0.000 A 
ATOM      3  C   UNL     1       2.531   8.787  17.761  0.00  0.00    +0.000 A 
ATOM      4  C   UNL     1       1.879   9.967  18.119  0.00  0.00    +0.000 A 
ATOM      5  C   UNL     1       1.143   9.989  19.274  0.00  0.00    +0.000 A 
ATOM      6  C   UNL     1       1.064   8.825  20.031  0.00  0.00    +0.000 A 
ATOM      7  C   UNL     1       1.720   7.641  19.690  0.00  0.00    +0.000 A 
ATOM      8  N   UNL     1       1.533   6.635  20.536  0.00  0.00    +0.000 NA
ATOM      9  C   UNL     1       2.141   5.468  20.355  0.00  0.00    +0.000 A 
ATOM     10  C   UNL     1       1.834   4.513  21.318  0.00  0.00    +0.000 A 
ATOM     11  C   UNL     1       2.396   3.242  21.330  0.00  0.00    +0.000 A 
ATOM     12  C   UNL     1       3.305   2.916  20.347  0.00  0.00    +0.000 A 
ATOM     13  C   UNL     1       3.610   3.869  19.354  0.00  0.00    +0.000 A 
ATOM     14  C   UNL     1       3.030   5.189  19.298  0.00  0.00    +0.000 A 
ENDROOT
BRANCH  13  15
ATOM     15  N   UNL     1       4.636   3.448  18.416  0.00  0.00    +0.000 N 
ATOM     16  O   UNL     1       4.266   2.825  17.410  0.00  0.00    +0.000 OA
ATOM     17  O   UNL     1       5.817   3.655  18.737  0.00  0.00    +0.000 OA
ENDBRANCH  13  15
BRANCH   1  18
ATOM     18  N   UNL     1       4.002   5.964  17.169  0.00  0.00    +0.000 N 
ATOM     19  H   UNL     1       4.377   5.011  17.261  0.00  0.00    +0.000 HD
BRANCH  18  20
ATOM     20  C   UNL     1       5.075   6.875  16.824  0.00  0.00    +0.000 C 
BRANCH  20  21
ATOM     21  C   UNL     1       6.378   6.735  17.585  0.00  0.00    +0.000 C 
BRANCH  21  22
ATOM     22  C   UNL     1       7.275   7.956  17.270  0.00  0.00    +0.000 C 
BRANCH  22  23
ATOM     23  N   UNL     1       8.220   8.280  18.354  0.00  0.00    +0.000 NA
ATOM     24  H   UNL     1       7.732   8.252  19.252  0.00  0.00    +0.000 HD
BRANCH  23  25
ATOM     25  C   UNL     1       8.737   9.655  18.250  0.00  0.00    +0.000 C 
BRANCH  25  26
ATOM     26  C   UNL     1       9.275  10.241  19.582  0.00  0.00    +0.000 C 
BRANCH  26  28
ATOM     27  C   UNL     1      11.268  11.518  19.032  0.00  0.00    +0.000 C 
ATOM     28  N   UNL     1       9.867  11.597  19.461  0.00  0.00    +0.000 NA
ATOM     29  C   UNL     1       9.104  12.373  18.474  0.00  0.00    +0.000 C 
ENDBRANCH  26  28
ENDBRANCH  25  26
ENDBRANCH  23  25
ENDBRANCH  22  23
ENDBRANCH  21  22
ENDBRANCH  20  21
ENDBRANCH  18  20
ENDBRANCH   1  18
TORSDOF 9
ENDMDL
MODEL 4
REMARK VINA RESULT:      -6.6      1.648      3.243
REMARK  Name = 
REMARK  11 active torsions:
REMARK  status: ('A' for Active; 'I' for Inactive)
REMARK    1  A    between atoms: C_1  and  N_2
REMARK    2  A    between atoms: N_2  and  C_3
REMARK    3  A    between atoms: N_2  and  C_4
REMARK    4  A    between atoms: C_4  and  C_5
REMARK    5  A    between atoms: C_5  and  N_6
REMARK    6  A    between atoms: N_6  and  C_7
REMARK    7  A    between atoms: C_7  and  C_8
REMARK    8  A    between atoms: C_8  and  C_9
REMARK    9  A    between atoms: C_9  and  N_10
REMARK   10  A    between atoms: N_10  and  C_11
REMARK   11  A    between atoms: C_23  and  N_24
REMARK                            x       y       z     vdW  Elec       q    Type
REMARK                         _______ _______ _______ _____ _____    ______ ____
ROOT
ATOM      1  C   UNL     1       2.980   5.942  18.382  0.00  0.00    +0.000 A 
ATOM      2  C   UNL     1       2.409   7.293  18.533  0.00  0.00    +0.000 A 
ATOM      3  C   UNL     1       2.461   8.455  17.671  0.00  0.00    +0.000 A 
ATOM      4  C   UNL     1       1.925   9.705  17.981  0.00  0.00    +0.000 A 
ATOM      5  C   UNL     1       1.280   9.868  19.178  0.00  0.00    +0.000 A 
ATOM      6  C   UNL     1       1.172   8.771  20.026  0.00  0.00    +0.000 A 
ATOM      7  C   UNL     1       1.711   7.517  19.733  0.00  0.00    +0.000 A 
ATOM      8  N   UNL     1       1.513   6.592  20.665  0.00  0.00    +0.000 NA
ATOM      9  C   UNL     1       2.019   5.370  20.533  0.00  0.00    +0.000 A 
ATOM     10  C   UNL     1       1.714   4.514  21.585  0.00  0.00    +0.000 A 
ATOM     11  C   UNL     1       2.180   3.206  21.657  0.00  0.00    +0.000 A 
ATOM     12  C   UNL     1       2.987   2.740  20.642  0.00  0.00    +0.000 A 
ATOM     13  C   UNL     1       3.288   3.593  19.560  0.00  0.00    +0.000 A 
ATOM     14  C   UNL     1       2.804   4.948  19.442  0.00  0.00    +0.000 A 
ENDROOT
BRANCH  13  15
ATOM     15  N   UNL     1       4.208   3.027  18.589  0.00  0.00    +0.000 N 
ATOM     16  O   UNL     1       3.722   2.559  17.549  0.00  0.00    +0.000 OA
ATOM     17  O   UNL     1       5.405   2.961  18.913  0.00  0.00    +0.000 OA
ENDBRANCH  13  15
BRANCH   1  18
ATOM     18  N   UNL     1       3.671   5.490  17.199  0.00  0.00    +0.000 N 
ATOM     19  H   UNL     1       3.991   4.523  17.342  0.00  0.00    +0.000 HD
BRANCH  18  20
ATOM     20  C   UNL     1       4.770   6.294  16.703  0.00  0.00    +0.000 C 
BRANCH  20  21
ATOM     21  C   UNL     1       5.199   6.077  15.266  0.00  0.00    +0.000 C 
BRANCH  21  22
ATOM     22  C   UNL     1       5.513   4.577  15.058  0.00  0.00    +0.000 C 
BRANCH  22  23
ATOM     23  N   UNL     1       6.205   3.961  16.205  0.00  0.00    +0.000 NA
ATOM     24  H   UNL     1       5.674   4.140  17.060  0.00  0.00    +0.000 HD
BRANCH  23  25
ATOM     25  C   UNL     1       7.526   4.565  16.449  0.00  0.00    +0.000 C 
BRANCH  25  26
ATOM     26  C   UNL     1       7.981   4.539  17.931  0.00  0.00    +0.000 C 
BRANCH  26  28
ATOM     27  C   UNL     1       8.052   5.638  20.098  0.00  0.00    +0.000 C 
ATOM     28  N   UNL     1       7.477   5.672  18.748  0.00  0.00    +0.000 NA
ATOM     29  C   UNL     1       7.844   6.938  18.099  0.00  0.00    +0.000 C 
ENDBRANCH  26  28
ENDBRANCH  25  26
ENDBRANCH  23  25
ENDBRANCH  22  23
ENDBRANCH  21  22
ENDBRANCH  20  21
ENDBRANCH  18  20
ENDBRANCH   1  18
TORSDOF 9
ENDMDL
MODEL 5
REMARK VINA RESULT:      -6.5      4.724      7.780
REMARK  Name = 
REMARK  11 active torsions:
REMARK  status: ('A' for Active; 'I' for Inactive)
REMARK    1  A    between atoms: C_1  and  N_2
REMARK    2  A    between atoms: N_2  and  C_3
REMARK    3  A    between atoms: N_2  and  C_4
REMARK    4  A    between atoms: C_4  and  C_5
REMARK    5  A    between atoms: C_5  and  N_6
REMARK    6  A    between atoms: N_6  and  C_7
REMARK    7  A    between atoms: C_7  and  C_8
REMARK    8  A    between atoms: C_8  and  C_9
REMARK    9  A    between atoms: C_9  and  N_10
REMARK   10  A    between atoms: N_10  and  C_11
REMARK   11  A    between atoms: C_23  and  N_24
REMARK                            x       y       z     vdW  Elec       q    Type
REMARK                         _______ _______ _______ _____ _____    ______ ____
ROOT
ATOM      1  C   UNL     1      -1.184  10.747  19.211  0.00  0.00    +0.000 A 
ATOM      2  C   UNL     1      -2.075  10.639  18.042  0.00  0.00    +0.000 A 
ATOM      3  C   UNL     1      -1.973   9.853  16.830  0.00  0.00    +0.000 A 
ATOM      4  C   UNL     1      -2.871   9.906  15.764  0.00  0.00    +0.000 A 
ATOM      5  C   UNL     1      -3.950  10.744  15.852  0.00  0.00    +0.000 A 
ATOM      6  C   UNL     1      -4.113  11.494  17.013  0.00  0.00    +0.000 A 
ATOM      7  C   UNL     1      -3.218  11.458  18.082  0.00  0.00    +0.000 A 
ATOM      8  N   UNL     1      -3.534  12.245  19.103  0.00  0.00    +0.000 NA
ATOM      9  C   UNL     1      -2.739  12.343  20.164  0.00  0.00    +0.000 A 
ATOM     10  C   UNL     1      -3.214  13.198  21.152  0.00  0.00    +0.000 A 
ATOM     11  C   UNL     1      -2.514  13.468  22.321  0.00  0.00    +0.000 A 
ATOM     12  C   UNL     1      -1.288  12.866  22.506  0.00  0.00    +0.000 A 
ATOM     13  C   UNL     1      -0.804  11.982  21.520  0.00  0.00    +0.000 A 
ATOM     14  C   UNL     1      -1.514  11.662  20.305  0.00  0.00    +0.000 A 
ENDROOT
BRANCH  13  15
ATOM     15  N   UNL     1       0.529  11.467  21.780  0.00  0.00    +0.000 N 
ATOM     16  O   UNL     1       1.486  12.103  21.315  0.00  0.00    +0.000 OA
ATOM     17  O   UNL     1       0.611  10.375  22.364  0.00  0.00    +0.000 OA
ENDBRANCH  13  15
BRANCH   1  18
ATOM     18  N   UNL     1       0.001   9.943  19.395  0.00  0.00    +0.000 N 
ATOM     19  H   UNL     1       0.315  10.020  20.371  0.00  0.00    +0.000 HD
BRANCH  18  20
ATOM     20  C   UNL     1       1.124  10.174  18.508  0.00  0.00    +0.000 C 
BRANCH  20  21
ATOM     21  C   UNL     1       1.569   9.019  17.634  0.00  0.00    +0.000 C 
BRANCH  21  22
ATOM     22  C   UNL     1       2.303   7.979  18.513  0.00  0.00    +0.000 C 
BRANCH  22  23
ATOM     23  N   UNL     1       3.452   7.351  17.837  0.00  0.00    +0.000 NA
ATOM     24  H   UNL     1       3.387   7.516  16.830  0.00  0.00    +0.000 HD
BRANCH  23  25
ATOM     25  C   UNL     1       3.449   5.884  17.979  0.00  0.00    +0.000 C 
BRANCH  25  26
ATOM     26  C   UNL     1       2.986   5.374  19.368  0.00  0.00    +0.000 C 
BRANCH  26  28
ATOM     27  C   UNL     1       1.114   4.184  20.361  0.00  0.00    +0.000 C 
ATOM     28  N   UNL     1       2.151   4.147  19.324  0.00  0.00    +0.000 NA
ATOM     29  C   UNL     1       1.511   4.044  18.006  0.00  0.00    +0.000 C 
ENDBRANCH  26  28
ENDBRANCH  25  26
ENDBRANCH  23  25
ENDBRANCH  22  23
ENDBRANCH  21  22
ENDBRANCH  20  21
ENDBRANCH  18  20
ENDBRANCH   1  18
TORSDOF 9
ENDMDL
MODEL 6
REMARK VINA RESULT:      -6.5      4.586      7.790
REMARK  Name = 
REMARK  11 active torsions:
REMARK  status: ('A' for Active; 'I' for Inactive)
REMARK    1  A    between atoms: C_1  and  N_2
REMARK    2  A    between atoms: N_2  and  C_3
REMARK    3  A    between atoms: N_2  and  C_4
REMARK    4  A    between atoms: C_4  and  C_5
REMARK    5  A    between atoms: C_5  and  N_6
REMARK    6  A    between atoms: N_6  and  C_7
REMARK    7  A    between atoms: C_7  and  C_8
REMARK    8  A    between atoms: C_8  and  C_9
REMARK    9  A    between atoms: C_9  and  N_10
REMARK   10  A    between atoms: N_10  and  C_11
REMARK   11  A    between atoms: C_23  and  N_24
REMARK                            x       y       z     vdW  Elec       q    Type
REMARK                         _______ _______ _______ _____ _____    ______ ____
ROOT
ATOM      1  C   UNL     1      -1.062  10.615  19.057  0.00  0.00    +0.000 A 
ATOM      2  C   UNL     1      -1.988  10.532  17.913  0.00  0.00    +0.000 A 
ATOM      3  C   UNL     1      -1.929   9.762  16.688  0.00  0.00    +0.000 A 
ATOM      4  C   UNL     1      -2.856   9.838  15.650  0.00  0.00    +0.000 A 
ATOM      5  C   UNL     1      -3.925  10.686  15.781  0.00  0.00    +0.000 A 
ATOM      6  C   UNL     1      -4.046  11.421  16.956  0.00  0.00    +0.000 A 
ATOM      7  C   UNL     1      -3.120  11.361  17.998  0.00  0.00    +0.000 A 
ATOM      8  N   UNL     1      -3.399  12.138  19.038  0.00  0.00    +0.000 NA
ATOM      9  C   UNL     1      -2.573  12.213  20.077  0.00  0.00    +0.000 A 
ATOM     10  C   UNL     1      -3.011  13.059  21.089  0.00  0.00    +0.000 A 
ATOM     11  C   UNL     1      -2.274  13.305  22.242  0.00  0.00    +0.000 A 
ATOM     12  C   UNL     1      -1.049  12.689  22.382  0.00  0.00    +0.000 A 
ATOM     13  C   UNL     1      -0.602  11.814  21.370  0.00  0.00    +0.000 A 
ATOM     14  C   UNL     1      -1.351  11.519  20.172  0.00  0.00    +0.000 A 
ENDROOT
BRANCH  13  15
ATOM     15  N   UNL     1       0.732  11.283  21.585  0.00  0.00    +0.000 N 
ATOM     16  O   UNL     1       0.831  10.247  22.258  0.00  0.00    +0.000 OA
ATOM     17  O   UNL     1       1.685  11.957  21.163  0.00  0.00    +0.000 OA
ENDBRANCH  13  15
BRANCH   1  18
ATOM     18  N   UNL     1       0.120   9.798  19.195  0.00  0.00    +0.000 N 
ATOM     19  H   UNL     1       0.493   9.900  20.148  0.00  0.00    +0.000 HD
BRANCH  18  20
ATOM     20  C   UNL     1       1.190   9.982  18.236  0.00  0.00    +0.000 C 
BRANCH  20  21
ATOM     21  C   UNL     1       1.989   8.757  17.841  0.00  0.00    +0.000 C 
BRANCH  21  22
ATOM     22  C   UNL     1       2.110   7.821  19.067  0.00  0.00    +0.000 C 
BRANCH  22  23
ATOM     23  N   UNL     1       3.052   6.706  18.859  0.00  0.00    +0.000 NA
ATOM     24  H   UNL     1       3.685   6.934  18.089  0.00  0.00    +0.000 HD
BRANCH  23  25
ATOM     25  C   UNL     1       2.370   5.471  18.434  0.00  0.00    +0.000 C 
BRANCH  25  26
ATOM     26  C   UNL     1       1.772   4.636  19.595  0.00  0.00    +0.000 C 
BRANCH  26  28
ATOM     27  C   UNL     1       2.140   3.260  21.565  0.00  0.00    +0.000 C 
ATOM     28  N   UNL     1       2.779   3.928  20.425  0.00  0.00    +0.000 NA
ATOM     29  C   UNL     1       3.467   2.925  19.602  0.00  0.00    +0.000 C 
ENDBRANCH  26  28
ENDBRANCH  25  26
ENDBRANCH  23  25
ENDBRANCH  22  23
ENDBRANCH  21  22
ENDBRANCH  20  21
ENDBRANCH  18  20
ENDBRANCH   1  18
TORSDOF 9
ENDMDL
MODEL 7
REMARK VINA RESULT:      -6.4      2.463      7.257
REMARK  Name = 
REMARK  11 active torsions:
REMARK  status: ('A' for Active; 'I' for Inactive)
REMARK    1  A    between atoms: C_1  and  N_2
REMARK    2  A    between atoms: N_2  and  C_3
REMARK    3  A    between atoms: N_2  and  C_4
REMARK    4  A    between atoms: C_4  and  C_5
REMARK    5  A    between atoms: C_5  and  N_6
REMARK    6  A    between atoms: N_6  and  C_7
REMARK    7  A    between atoms: C_7  and  C_8
REMARK    8  A    between atoms: C_8  and  C_9
REMARK    9  A    between atoms: C_9  and  N_10
REMARK   10  A    between atoms: N_10  and  C_11
REMARK   11  A    between atoms: C_23  and  N_24
REMARK                            x       y       z     vdW  Elec       q    Type
REMARK                         _______ _______ _______ _____ _____    ______ ____
ROOT
ATOM      1  C   UNL     1       3.967   5.320  18.319  0.00  0.00    +0.000 A 
ATOM      2  C   UNL     1       2.872   4.382  18.626  0.00  0.00    +0.000 A 
ATOM      3  C   UNL     1       1.806   4.443  19.603  0.00  0.00    +0.000 A 
ATOM      4  C   UNL     1       0.869   3.434  19.829  0.00  0.00    +0.000 A 
ATOM      5  C   UNL     1       0.930   2.296  19.069  0.00  0.00    +0.000 A 
ATOM      6  C   UNL     1       1.914   2.205  18.091  0.00  0.00    +0.000 A 
ATOM      7  C   UNL     1       2.863   3.202  17.861  0.00  0.00    +0.000 A 
ATOM      8  N   UNL     1       3.727   2.937  16.889  0.00  0.00    +0.000 NA
ATOM      9  C   UNL     1       4.713   3.781  16.602  0.00  0.00    +0.000 A 
ATOM     10  C   UNL     1       5.526   3.367  15.552  0.00  0.00    +0.000 A 
ATOM     11  C   UNL     1       6.634   4.088  15.123  0.00  0.00    +0.000 A 
ATOM     12  C   UNL     1       6.946   5.262  15.774  0.00  0.00    +0.000 A 
ATOM     13  C   UNL     1       6.119   5.702  16.828  0.00  0.00    +0.000 A 
ATOM     14  C   UNL     1       4.949   4.990  17.284  0.00  0.00    +0.000 A 
ENDROOT
BRANCH  13  15
ATOM     15  N   UNL     1       6.584   6.907  17.491  0.00  0.00    +0.000 N 
ATOM     16  O   UNL     1       6.274   7.993  16.981  0.00  0.00    +0.000 OA
ATOM     17  O   UNL     1       7.340   6.762  18.464  0.00  0.00    +0.000 OA
ENDBRANCH  13  15
BRANCH   1  18
ATOM     18  N   UNL     1       4.114   6.614  18.941  0.00  0.00    +0.000 N 
ATOM     19  H   UNL     1       4.432   6.489  19.911  0.00  0.00    +0.000 HD
BRANCH  18  20
ATOM     20  C   UNL     1       2.978   7.514  18.918  0.00  0.00    +0.000 C 
BRANCH  20  21
ATOM     21  C   UNL     1       2.701   8.251  17.623  0.00  0.00    +0.000 C 
BRANCH  21  22
ATOM     22  C   UNL     1       1.462   9.156  17.819  0.00  0.00    +0.000 C 
BRANCH  22  23
ATOM     23  N   UNL     1       1.805  10.562  18.099  0.00  0.00    +0.000 NA
ATOM     24  H   UNL     1       2.635  10.598  18.696  0.00  0.00    +0.000 HD
BRANCH  23  25
ATOM     25  C   UNL     1       0.756  11.250  18.871  0.00  0.00    +0.000 C 
BRANCH  25  26
ATOM     26  C   UNL     1      -0.269  10.303  19.548  0.00  0.00    +0.000 C 
BRANCH  26  28
ATOM     27  C   UNL     1       0.893   9.532  21.539  0.00  0.00    +0.000 C 
ATOM     28  N   UNL     1      -0.235  10.323  21.032  0.00  0.00    +0.000 NA
ATOM     29  C   UNL     1      -0.096  11.711  21.495  0.00  0.00    +0.000 C 
ENDBRANCH  26  28
ENDBRANCH  25  26
ENDBRANCH  23  25
ENDBRANCH  22  23
ENDBRANCH  21  22
ENDBRANCH  20  21
ENDBRANCH  18  20
ENDBRANCH   1  18
TORSDOF 9
ENDMDL
MODEL 8
REMARK VINA RESULT:      -6.4      4.736      7.493
REMARK  Name = 
REMARK  11 active torsions:
REMARK  status: ('A' for Active; 'I' for Inactive)
REMARK    1  A    between atoms: C_1  and  N_2
REMARK    2  A    between atoms: N_2  and  C_3
REMARK    3  A    between atoms: N_2  and  C_4
REMARK    4  A    between atoms: C_4  and  C_5
REMARK    5  A    between atoms: C_5  and  N_6
REMARK    6  A    between atoms: N_6  and  C_7
REMARK    7  A    between atoms: C_7  and  C_8
REMARK    8  A    between atoms: C_8  and  C_9
REMARK    9  A    between atoms: C_9  and  N_10
REMARK   10  A    between atoms: N_10  and  C_11
REMARK   11  A    between atoms: C_23  and  N_24
REMARK                            x       y       z     vdW  Elec       q    Type
REMARK                         _______ _______ _______ _____ _____    ______ ____
ROOT
ATOM      1  C   UNL     1      -1.220  10.714  19.170  0.00  0.00    +0.000 A 
ATOM      2  C   UNL     1      -2.089  10.613  17.984  0.00  0.00    +0.000 A 
ATOM      3  C   UNL     1      -1.968   9.830  16.773  0.00  0.00    +0.000 A 
ATOM      4  C   UNL     1      -2.845   9.889  15.690  0.00  0.00    +0.000 A 
ATOM      5  C   UNL     1      -3.922  10.732  15.760  0.00  0.00    +0.000 A 
ATOM      6  C   UNL     1      -4.104  11.480  16.918  0.00  0.00    +0.000 A 
ATOM      7  C   UNL     1      -3.229  11.437  18.005  0.00  0.00    +0.000 A 
ATOM      8  N   UNL     1      -3.561  12.224  19.021  0.00  0.00    +0.000 NA
ATOM      9  C   UNL     1      -2.786  12.315  20.097  0.00  0.00    +0.000 A 
ATOM     10  C   UNL     1      -3.276  13.170  21.078  0.00  0.00    +0.000 A 
ATOM     11  C   UNL     1      -2.596  13.434  22.261  0.00  0.00    +0.000 A 
ATOM     12  C   UNL     1      -1.377  12.826  22.467  0.00  0.00    +0.000 A 
ATOM     13  C   UNL     1      -0.878  11.942  21.488  0.00  0.00    +0.000 A 
ATOM     14  C   UNL     1      -1.567  11.629  20.259  0.00  0.00    +0.000 A 
ENDROOT
BRANCH  13  15
ATOM     15  N   UNL     1       0.447  11.420  21.773  0.00  0.00    +0.000 N 
ATOM     16  O   UNL     1       0.521  10.423  22.506  0.00  0.00    +0.000 OA
ATOM     17  O   UNL     1       1.416  12.066  21.343  0.00  0.00    +0.000 OA
ENDBRANCH  13  15
BRANCH   1  18
ATOM     18  N   UNL     1      -0.043   9.905  19.374  0.00  0.00    +0.000 N 
ATOM     19  H   UNL     1       0.250   9.974  20.357  0.00  0.00    +0.000 HD
BRANCH  18  20
ATOM     20  C   UNL     1       1.100  10.137  18.513  0.00  0.00    +0.000 C 
BRANCH  20  21
ATOM     21  C   UNL     1       1.581   8.976  17.666  0.00  0.00    +0.000 C 
BRANCH  21  22
ATOM     22  C   UNL     1       2.328   7.970  18.573  0.00  0.00    +0.000 C 
BRANCH  22  23
ATOM     23  N   UNL     1       3.403   7.243  17.876  0.00  0.00    +0.000 NA
ATOM     24  H   UNL     1       3.177   7.170  16.881  0.00  0.00    +0.000 HD
BRANCH  23  25
ATOM     25  C   UNL     1       3.525   5.849  18.337  0.00  0.00    +0.000 C 
BRANCH  25  26
ATOM     26  C   UNL     1       4.944   5.454  18.822  0.00  0.00    +0.000 C 
BRANCH  26  28
ATOM     27  C   UNL     1       4.859   4.128  16.787  0.00  0.00    +0.000 C 
ATOM     28  N   UNL     1       5.572   4.352  18.050  0.00  0.00    +0.000 NA
ATOM     29  C   UNL     1       6.970   4.700  17.759  0.00  0.00    +0.000 C 
ENDBRANCH  26  28
ENDBRANCH  25  26
ENDBRANCH  23  25
ENDBRANCH  22  23
ENDBRANCH  21  22
ENDBRANCH  20  21
ENDBRANCH  18  20
ENDBRANCH   1  18
TORSDOF 9
ENDMDL
MODEL 9
REMARK VINA RESULT:      -6.4      3.140      7.066
REMARK  Name = 
REMARK  11 active torsions:
REMARK  status: ('A' for Active; 'I' for Inactive)
REMARK    1  A    between atoms: C_1  and  N_2
REMARK    2  A    between atoms: N_2  and  C_3
REMARK    3  A    between atoms: N_2  and  C_4
REMARK    4  A    between atoms: C_4  and  C_5
REMARK    5  A    between atoms: C_5  and  N_6
REMARK    6  A    between atoms: N_6  and  C_7
REMARK    7  A    between atoms: C_7  and  C_8
REMARK    8  A    between atoms: C_8  and  C_9
REMARK    9  A    between atoms: C_9  and  N_10
REMARK   10  A    between atoms: N_10  and  C_11
REMARK   11  A    between atoms: C_23  and  N_24
REMARK                            x       y       z     vdW  Elec       q    Type
REMARK                         _______ _______ _______ _____ _____    ______ ____
ROOT
ATOM      1  C   UNL     1       3.573   5.536  18.092  0.00  0.00    +0.000 A 
ATOM      2  C   UNL     1       2.775   4.680  18.990  0.00  0.00    +0.000 A 
ATOM      3  C   UNL     1       1.870   5.010  20.070  0.00  0.00    +0.000 A 
ATOM      4  C   UNL     1       1.229   4.080  20.889  0.00  0.00    +0.000 A 
ATOM      5  C   UNL     1       1.442   2.746  20.664  0.00  0.00    +0.000 A 
ATOM      6  C   UNL     1       2.276   2.377  19.613  0.00  0.00    +0.000 A 
ATOM      7  C   UNL     1       2.930   3.296  18.793  0.00  0.00    +0.000 A 
ATOM      8  N   UNL     1       3.689   2.759  17.845  0.00  0.00    +0.000 NA
ATOM      9  C   UNL     1       4.406   3.523  17.027  0.00  0.00    +0.000 A 
ATOM     10  C   UNL     1       5.138   2.813  16.083  0.00  0.00    +0.000 A 
ATOM     11  C   UNL     1       5.981   3.423  15.162  0.00  0.00    +0.000 A 
ATOM     12  C   UNL     1       6.103   4.795  15.193  0.00  0.00    +0.000 A 
ATOM     13  C   UNL     1       5.352   5.529  16.134  0.00  0.00    +0.000 A 
ATOM     14  C   UNL     1       4.451   4.930  17.089  0.00  0.00    +0.000 A 
ENDROOT
BRANCH  13  15
ATOM     15  N   UNL     1       5.617   6.957  16.129  0.00  0.00    +0.000 N 
ATOM     16  O   UNL     1       6.510   7.372  16.882  0.00  0.00    +0.000 OA
ATOM     17  O   UNL     1       4.866   7.671  15.447  0.00  0.00    +0.000 OA
ENDBRANCH  13  15
BRANCH   1  18
ATOM     18  N   UNL     1       3.506   6.977  18.086  0.00  0.00    +0.000 N 
ATOM     19  H   UNL     1       4.277   7.355  18.652  0.00  0.00    +0.000 HD
BRANCH  18  20
ATOM     20  C   UNL     1       2.261   7.601  18.489  0.00  0.00    +0.000 C 
BRANCH  20  21
ATOM     21  C   UNL     1       1.871   8.889  17.792  0.00  0.00    +0.000 C 
BRANCH  21  22
ATOM     22  C   UNL     1       0.730   9.564  18.590  0.00  0.00    +0.000 C 
BRANCH  22  23
ATOM     23  N   UNL     1       0.092  10.677  17.865  0.00  0.00    +0.000 NA
ATOM     24  H   UNL     1       0.423  11.567  18.246  0.00  0.00    +0.000 HD
BRANCH  23  25
ATOM     25  C   UNL     1      -1.368  10.706  18.061  0.00  0.00    +0.000 C 
BRANCH  25  26
ATOM     26  C   UNL     1      -2.178   9.967  16.963  0.00  0.00    +0.000 C 
BRANCH  26  28
ATOM     27  C   UNL     1      -3.035  10.173  14.698  0.00  0.00    +0.000 C 
ATOM     28  N   UNL     1      -2.835  10.863  15.978  0.00  0.00    +0.000 NA
ATOM     29  C   UNL     1      -4.138  11.289  16.505  0.00  0.00    +0.000 C 
ENDBRANCH  26  28
ENDBRANCH  25  26
ENDBRANCH  23  25
ENDBRANCH  22  23
ENDBRANCH  21  22
ENDBRANCH  20  21
ENDBRANCH  18  20
ENDBRANCH   1  18
TORSDOF 9
ENDMDL
