MODEL 1
REMARK VINA RESULT:      -7.5      0.000      0.000
REMARK  Name = 
REMARK  4 active torsions:
REMARK  status: ('A' for Active; 'I' for Inactive)
REMARK    1  A    between atoms: C_1  and  C_2
REMARK    2  A    between atoms: C_7  and  N_8
REMARK    3  A    between atoms: C_9  and  S_10
REMARK    4  A    between atoms: C_9  and  C_11
REMARK                            x       y       z     vdW  Elec       q    Type
REMARK                         _______ _______ _______ _____ _____    ______ ____
ROOT
ATOM      1  N   UNL     1       4.086   3.331  17.768  0.00  0.00    +0.000 NA
ATOM      2  C   UNL     1       5.115   4.118  17.618  0.00  0.00    +0.000 C 
ENDROOT
BRANCH   2   3
ATOM      3  C   UNL     1       5.817   4.146  16.342  0.00  0.00    +0.000 A 
ATOM      4  N   UNL     1       6.752   5.020  16.002  0.00  0.00    +0.000 NA
ATOM      5  C   UNL     1       6.985   4.834  14.667  0.00  0.00    +0.000 A 
ATOM      6  C   UNL     1       7.810   5.562  13.799  0.00  0.00    +0.000 A 
ATOM      7  C   UNL     1       7.812   5.228  12.441  0.00  0.00    +0.000 A 
ATOM      8  C   UNL     1       7.025   4.175  11.966  0.00  0.00    +0.000 A 
ATOM      9  C   UNL     1       6.220   3.415  12.827  0.00  0.00    +0.000 A 
ATOM     10  C   UNL     1       6.223   3.783  14.175  0.00  0.00    +0.000 A 
ATOM     11  N   UNL     1       5.550   3.311  15.275  0.00  0.00    +0.000 N 
ATOM     12  H   UNL     1       4.879   2.555  15.297  0.00  0.00    +0.000 HD
ENDBRANCH   2   3
BRANCH   1  19
ATOM     13  C   UNL     1       1.397   4.474  17.695  0.00  0.00    +0.000 C 
ATOM     14  C   UNL     1       2.013   3.887  18.937  0.00  0.00    +0.000 A 
ATOM     15  C   UNL     1       1.239   3.875  20.113  0.00  0.00    +0.000 A 
ATOM     16  C   UNL     1       1.717   3.278  21.276  0.00  0.00    +0.000 A 
ATOM     17  C   UNL     1       2.939   2.619  21.254  0.00  0.00    +0.000 A 
ATOM     18  C   UNL     1       3.687   2.579  20.075  0.00  0.00    +0.000 A 
ATOM     19  C   UNL     1       3.287   3.279  18.925  0.00  0.00    +0.000 A 
ENDBRANCH   1  19
BRANCH   2  20
ATOM     20  S   UNL     1       5.761   5.296  18.758  0.00  0.00    +0.000 S 
ATOM     21  H   UNL     1       6.674   4.513  19.335  0.00  0.00    +0.000 HD
ENDBRANCH   2  20
TORSDOF 3
ENDMDL
MODEL 2
REMARK VINA RESULT:      -7.1      0.428      1.594
REMARK  Name = 
REMARK  4 active torsions:
REMARK  status: ('A' for Active; 'I' for Inactive)
REMARK    1  A    between atoms: C_1  and  C_2
REMARK    2  A    between atoms: C_7  and  N_8
REMARK    3  A    between atoms: C_9  and  S_10
REMARK    4  A    between atoms: C_9  and  C_11
REMARK                            x       y       z     vdW  Elec       q    Type
REMARK                         _______ _______ _______ _____ _____    ______ ____
ROOT
ATOM      1  N   UNL     1       3.891   3.416  17.805  0.00  0.00    +0.000 NA
ATOM      2  C   UNL     1       4.836   4.290  17.597  0.00  0.00    +0.000 C 
ENDROOT
BRANCH   2   3
ATOM      3  C   UNL     1       5.589   4.251  16.350  0.00  0.00    +0.000 A 
ATOM      4  N   UNL     1       6.598   5.050  16.042  0.00  0.00    +0.000 NA
ATOM      5  C   UNL     1       6.869   4.833  14.719  0.00  0.00    +0.000 A 
ATOM      6  C   UNL     1       7.780   5.488  13.878  0.00  0.00    +0.000 A 
ATOM      7  C   UNL     1       7.812   5.139  12.525  0.00  0.00    +0.000 A 
ATOM      8  C   UNL     1       6.969   4.142  12.027  0.00  0.00    +0.000 A 
ATOM      9  C   UNL     1       6.076   3.453  12.861  0.00  0.00    +0.000 A 
ATOM     10  C   UNL     1       6.052   3.835  14.205  0.00  0.00    +0.000 A 
ATOM     11  N   UNL     1       5.303   3.426  15.281  0.00  0.00    +0.000 N 
ATOM     12  H   UNL     1       4.578   2.722  15.282  0.00  0.00    +0.000 HD
ENDBRANCH   2   3
BRANCH   1  19
ATOM     13  C   UNL     1       4.752   1.992  20.208  0.00  0.00    +0.000 C 
ATOM     14  C   UNL     1       3.411   2.665  20.081  0.00  0.00    +0.000 A 
ATOM     15  C   UNL     1       2.542   2.617  21.188  0.00  0.00    +0.000 A 
ATOM     16  C   UNL     1       1.320   3.285  21.166  0.00  0.00    +0.000 A 
ATOM     17  C   UNL     1       0.989   4.070  20.070  0.00  0.00    +0.000 A 
ATOM     18  C   UNL     1       1.871   4.166  18.991  0.00  0.00    +0.000 A 
ATOM     19  C   UNL     1       3.051   3.405  18.933  0.00  0.00    +0.000 A 
ENDBRANCH   1  19
BRANCH   2  20
ATOM     20  S   UNL     1       5.301   5.653  18.613  0.00  0.00    +0.000 S 
ATOM     21  H   UNL     1       4.095   6.209  18.739  0.00  0.00    +0.000 HD
ENDBRANCH   2  20
TORSDOF 3
ENDMDL
MODEL 3
REMARK VINA RESULT:      -7.0      1.709      1.923
REMARK  Name = 
REMARK  4 active torsions:
REMARK  status: ('A' for Active; 'I' for Inactive)
REMARK    1  A    between atoms: C_1  and  C_2
REMARK    2  A    between atoms: C_7  and  N_8
REMARK    3  A    between atoms: C_9  and  S_10
REMARK    4  A    between atoms: C_9  and  C_11
REMARK                            x       y       z     vdW  Elec       q    Type
REMARK                         _______ _______ _______ _____ _____    ______ ____
ROOT
ATOM      1  N   UNL     1       3.778   5.191  17.412  0.00  0.00    +0.000 NA
ATOM      2  C   UNL     1       5.077   5.076  17.395  0.00  0.00    +0.000 C 
ENDROOT
BRANCH   2   3
ATOM      3  C   UNL     1       5.756   4.789  16.139  0.00  0.00    +0.000 A 
ATOM      4  N   UNL     1       6.761   5.488  15.636  0.00  0.00    +0.000 NA
ATOM      5  C   UNL     1       6.952   5.025  14.363  0.00  0.00    +0.000 A 
ATOM      6  C   UNL     1       7.826   5.489  13.370  0.00  0.00    +0.000 A 
ATOM      7  C   UNL     1       7.773   4.899  12.104  0.00  0.00    +0.000 A 
ATOM      8  C   UNL     1       6.884   3.853  11.842  0.00  0.00    +0.000 A 
ATOM      9  C   UNL     1       6.027   3.354  12.835  0.00  0.00    +0.000 A 
ATOM     10  C   UNL     1       6.088   3.975  14.085  0.00  0.00    +0.000 A 
ATOM     11  N   UNL     1       5.394   3.791  15.256  0.00  0.00    +0.000 N 
ATOM     12  H   UNL     1       4.656   3.121  15.424  0.00  0.00    +0.000 HD
ENDBRANCH   2   3
BRANCH   1  19
ATOM     13  C   UNL     1       3.005   7.982  17.800  0.00  0.00    +0.000 C 
ATOM     14  C   UNL     1       2.701   6.894  18.795  0.00  0.00    +0.000 A 
ATOM     15  C   UNL     1       1.990   7.245  19.959  0.00  0.00    +0.000 A 
ATOM     16  C   UNL     1       1.609   6.275  20.882  0.00  0.00    +0.000 A 
ATOM     17  C   UNL     1       1.863   4.937  20.613  0.00  0.00    +0.000 A 
ATOM     18  C   UNL     1       2.518   4.577  19.433  0.00  0.00    +0.000 A 
ATOM     19  C   UNL     1       3.025   5.542  18.548  0.00  0.00    +0.000 A 
ENDBRANCH   1  19
BRANCH   2  20
ATOM     20  S   UNL     1       6.209   5.330  18.721  0.00  0.00    +0.000 S 
ATOM     21  H   UNL     1       7.005   6.215  18.118  0.00  0.00    +0.000 HD
ENDBRANCH   2  20
TORSDOF 3
ENDMDL
MODEL 4
REMARK VINA RESULT:      -6.9      0.823      1.561
REMARK  Name = 
REMARK  4 active torsions:
REMARK  status: ('A' for Active; 'I' for Inactive)
REMARK    1  A    between atoms: C_1  and  C_2
REMARK    2  A    between atoms: C_7  and  N_8
REMARK    3  A    between atoms: C_9  and  S_10
REMARK    4  A    between atoms: C_9  and  C_11
REMARK                            x       y       z     vdW  Elec       q    Type
REMARK                         _______ _______ _______ _____ _____    ______ ____
ROOT
ATOM      1  N   UNL     1       3.850   3.963  17.730  0.00  0.00    +0.000 NA
ATOM      2  C   UNL     1       5.037   4.448  17.492  0.00  0.00    +0.000 C 
ENDROOT
BRANCH   2   3
ATOM      3  C   UNL     1       5.502   4.566  16.117  0.00  0.00    +0.000 A 
ATOM      4  N   UNL     1       5.086   3.824  15.102  0.00  0.00    +0.000 NA
ATOM      5  C   UNL     1       5.921   4.103  14.055  0.00  0.00    +0.000 A 
ATOM      6  C   UNL     1       5.975   3.521  12.781  0.00  0.00    +0.000 A 
ATOM      7  C   UNL     1       6.987   3.922  11.904  0.00  0.00    +0.000 A 
ATOM      8  C   UNL     1       7.910   4.900  12.283  0.00  0.00    +0.000 A 
ATOM      9  C   UNL     1       7.849   5.518  13.541  0.00  0.00    +0.000 A 
ATOM     10  C   UNL     1       6.840   5.084  14.404  0.00  0.00    +0.000 A 
ATOM     11  N   UNL     1       6.502   5.419  15.692  0.00  0.00    +0.000 N 
ATOM     12  H   UNL     1       6.969   6.090  16.286  0.00  0.00    +0.000 HD
ENDBRANCH   2   3
BRANCH   1  19
ATOM     13  C   UNL     1       2.280   6.212  18.738  0.00  0.00    +0.000 C 
ATOM     14  C   UNL     1       2.566   4.975  19.546  0.00  0.00    +0.000 A 
ATOM     15  C   UNL     1       2.028   4.899  20.846  0.00  0.00    +0.000 A 
ATOM     16  C   UNL     1       2.188   3.751  21.618  0.00  0.00    +0.000 A 
ATOM     17  C   UNL     1       2.817   2.641  21.071  0.00  0.00    +0.000 A 
ATOM     18  C   UNL     1       3.304   2.690  19.762  0.00  0.00    +0.000 A 
ATOM     19  C   UNL     1       3.268   3.874  19.007  0.00  0.00    +0.000 A 
ENDBRANCH   1  19
BRANCH   2  20
ATOM     20  S   UNL     1       6.191   5.113  18.645  0.00  0.00    +0.000 S 
ATOM     21  H   UNL     1       5.392   6.025  19.202  0.00  0.00    +0.000 HD
ENDBRANCH   2  20
TORSDOF 3
ENDMDL
MODEL 5
REMARK VINA RESULT:      -6.9      1.184      1.714
REMARK  Name = 
REMARK  4 active torsions:
REMARK  status: ('A' for Active; 'I' for Inactive)
REMARK    1  A    between atoms: C_1  and  C_2
REMARK    2  A    between atoms: C_7  and  N_8
REMARK    3  A    between atoms: C_9  and  S_10
REMARK    4  A    between atoms: C_9  and  C_11
REMARK                            x       y       z     vdW  Elec       q    Type
REMARK                         _______ _______ _______ _____ _____    ______ ____
ROOT
ATOM      1  N   UNL     1       3.966   4.698  17.450  0.00  0.00    +0.000 NA
ATOM      2  C   UNL     1       5.261   4.817  17.362  0.00  0.00    +0.000 C 
ENDROOT
BRANCH   2   3
ATOM      3  C   UNL     1       5.915   4.621  16.075  0.00  0.00    +0.000 A 
ATOM      4  N   UNL     1       6.902   5.363  15.598  0.00  0.00    +0.000 NA
ATOM      5  C   UNL     1       7.069   4.988  14.293  0.00  0.00    +0.000 A 
ATOM      6  C   UNL     1       7.916   5.526  13.315  0.00  0.00    +0.000 A 
ATOM      7  C   UNL     1       7.841   5.020  12.014  0.00  0.00    +0.000 A 
ATOM      8  C   UNL     1       6.956   3.984  11.702  0.00  0.00    +0.000 A 
ATOM      9  C   UNL     1       6.126   3.411  12.678  0.00  0.00    +0.000 A 
ATOM     10  C   UNL     1       6.208   3.948  13.965  0.00  0.00    +0.000 A 
ATOM     11  N   UNL     1       5.542   3.680  15.136  0.00  0.00    +0.000 N 
ATOM     12  H   UNL     1       4.815   2.992  15.275  0.00  0.00    +0.000 HD
ENDBRANCH   2   3
BRANCH   1  19
ATOM     13  C   UNL     1       3.302   2.457  19.205  0.00  0.00    +0.000 C 
ATOM     14  C   UNL     1       2.827   3.865  19.445  0.00  0.00    +0.000 A 
ATOM     15  C   UNL     1       2.040   4.108  20.588  0.00  0.00    +0.000 A 
ATOM     16  C   UNL     1       1.633   5.400  20.912  0.00  0.00    +0.000 A 
ATOM     17  C   UNL     1       2.073   6.469  20.144  0.00  0.00    +0.000 A 
ATOM     18  C   UNL     1       2.900   6.241  19.042  0.00  0.00    +0.000 A 
ATOM     19  C   UNL     1       3.222   4.940  18.619  0.00  0.00    +0.000 A 
ENDBRANCH   1  19
BRANCH   2  20
ATOM     20  S   UNL     1       6.397   5.305  18.617  0.00  0.00    +0.000 S 
ATOM     21  H   UNL     1       5.765   6.409  19.019  0.00  0.00    +0.000 HD
ENDBRANCH   2  20
TORSDOF 3
ENDMDL
MODEL 6
REMARK VINA RESULT:      -6.8      4.136      7.832
REMARK  Name = 
REMARK  4 active torsions:
REMARK  status: ('A' for Active; 'I' for Inactive)
REMARK    1  A    between atoms: C_1  and  C_2
REMARK    2  A    between atoms: C_7  and  N_8
REMARK    3  A    between atoms: C_9  and  S_10
REMARK    4  A    between atoms: C_9  and  C_11
REMARK                            x       y       z     vdW  Elec       q    Type
REMARK                         _______ _______ _______ _____ _____    ______ ____
ROOT
ATOM      1  N   UNL     1       4.418   6.810  17.818  0.00  0.00    +0.000 NA
ATOM      2  C   UNL     1       3.270   6.388  18.270  0.00  0.00    +0.000 C 
ENDROOT
BRANCH   2   3
ATOM      3  C   UNL     1       2.392   7.312  18.975  0.00  0.00    +0.000 A 
ATOM      4  N   UNL     1       1.871   8.415  18.459  0.00  0.00    +0.000 NA
ATOM      5  C   UNL     1       1.302   9.094  19.501  0.00  0.00    +0.000 A 
ATOM      6  C   UNL     1       0.701  10.360  19.516  0.00  0.00    +0.000 A 
ATOM      7  C   UNL     1       0.266  10.880  20.738  0.00  0.00    +0.000 A 
ATOM      8  C   UNL     1       0.406  10.142  21.916  0.00  0.00    +0.000 A 
ATOM      9  C   UNL     1       0.973   8.859  21.914  0.00  0.00    +0.000 A 
ATOM     10  C   UNL     1       1.417   8.372  20.682  0.00  0.00    +0.000 A 
ATOM     11  N   UNL     1       2.042   7.208  20.306  0.00  0.00    +0.000 N 
ATOM     12  H   UNL     1       2.313   6.444  20.909  0.00  0.00    +0.000 HD
ENDBRANCH   2   3
BRANCH   1  19
ATOM     13  C   UNL     1       6.538   5.334  19.185  0.00  0.00    +0.000 C 
ATOM     14  C   UNL     1       6.386   5.366  17.687  0.00  0.00    +0.000 A 
ATOM     15  C   UNL     1       7.304   4.628  16.916  0.00  0.00    +0.000 A 
ATOM     16  C   UNL     1       7.174   4.552  15.532  0.00  0.00    +0.000 A 
ATOM     17  C   UNL     1       6.082   5.144  14.913  0.00  0.00    +0.000 A 
ATOM     18  C   UNL     1       5.136   5.831  15.679  0.00  0.00    +0.000 A 
ATOM     19  C   UNL     1       5.310   6.030  17.058  0.00  0.00    +0.000 A 
ENDBRANCH   1  19
BRANCH   2  20
ATOM     20  S   UNL     1       2.534   4.801  18.058  0.00  0.00    +0.000 S 
ATOM     21  H   UNL     1       3.656   4.097  17.897  0.00  0.00    +0.000 HD
ENDBRANCH   2  20
TORSDOF 3
ENDMDL
MODEL 7
REMARK VINA RESULT:      -6.7      0.827      1.974
REMARK  Name = 
REMARK  4 active torsions:
REMARK  status: ('A' for Active; 'I' for Inactive)
REMARK    1  A    between atoms: C_1  and  C_2
REMARK    2  A    between atoms: C_7  and  N_8
REMARK    3  A    between atoms: C_9  and  S_10
REMARK    4  A    between atoms: C_9  and  C_11
REMARK                            x       y       z     vdW  Elec       q    Type
REMARK                         _______ _______ _______ _____ _____    ______ ____
ROOT
ATOM      1  N   UNL     1       3.531   4.026  17.450  0.00  0.00    +0.000 NA
ATOM      2  C   UNL     1       4.770   4.402  17.298  0.00  0.00    +0.000 C 
ENDROOT
BRANCH   2   3
ATOM      3  C   UNL     1       5.320   4.541  15.957  0.00  0.00    +0.000 A 
ATOM      4  N   UNL     1       4.984   3.800  14.912  0.00  0.00    +0.000 NA
ATOM      5  C   UNL     1       5.878   4.102  13.923  0.00  0.00    +0.000 A 
ATOM      6  C   UNL     1       6.024   3.531  12.651  0.00  0.00    +0.000 A 
ATOM      7  C   UNL     1       7.082   3.958  11.843  0.00  0.00    +0.000 A 
ATOM      8  C   UNL     1       7.962   4.949  12.287  0.00  0.00    +0.000 A 
ATOM      9  C   UNL     1       7.810   5.554  13.543  0.00  0.00    +0.000 A 
ATOM     10  C   UNL     1       6.755   5.096  14.337  0.00  0.00    +0.000 A 
ATOM     11  N   UNL     1       6.329   5.414  15.603  0.00  0.00    +0.000 N 
ATOM     12  H   UNL     1       6.746   6.088  16.231  0.00  0.00    +0.000 HD
ENDBRANCH   2   3
BRANCH   1  19
ATOM     13  C   UNL     1       3.453   1.452  18.832  0.00  0.00    +0.000 C 
ATOM     14  C   UNL     1       2.759   2.687  19.343  0.00  0.00    +0.000 A 
ATOM     15  C   UNL     1       2.056   2.592  20.560  0.00  0.00    +0.000 A 
ATOM     16  C   UNL     1       1.458   3.714  21.128  0.00  0.00    +0.000 A 
ATOM     17  C   UNL     1       1.624   4.954  20.529  0.00  0.00    +0.000 A 
ATOM     18  C   UNL     1       2.367   5.066  19.351  0.00  0.00    +0.000 A 
ATOM     19  C   UNL     1       2.873   3.934  18.690  0.00  0.00    +0.000 A 
ENDBRANCH   1  19
BRANCH   2  20
ATOM     20  S   UNL     1       5.918   4.894  18.542  0.00  0.00    +0.000 S 
ATOM     21  H   UNL     1       5.551   4.026  19.486  0.00  0.00    +0.000 HD
ENDBRANCH   2  20
TORSDOF 3
ENDMDL
MODEL 8
REMARK VINA RESULT:      -6.6      4.212      7.793
REMARK  Name = 
REMARK  4 active torsions:
REMARK  status: ('A' for Active; 'I' for Inactive)
REMARK    1  A    between atoms: C_1  and  C_2
REMARK    2  A    between atoms: C_7  and  N_8
REMARK    3  A    between atoms: C_9  and  S_10
REMARK    4  A    between atoms: C_9  and  C_11
REMARK                            x       y       z     vdW  Elec       q    Type
REMARK                         _______ _______ _______ _____ _____    ______ ____
ROOT
ATOM      1  N   UNL     1       4.490   7.023  17.477  0.00  0.00    +0.000 NA
ATOM      2  C   UNL     1       3.345   6.707  18.015  0.00  0.00    +0.000 C 
ENDROOT
BRANCH   2   3
ATOM      3  C   UNL     1       2.526   7.746  18.625  0.00  0.00    +0.000 A 
ATOM      4  N   UNL     1       2.098   7.746  19.878  0.00  0.00    +0.000 NA
ATOM      5  C   UNL     1       1.195   8.768  19.976  0.00  0.00    +0.000 A 
ATOM      6  C   UNL     1       0.384   9.138  21.057  0.00  0.00    +0.000 A 
ATOM      7  C   UNL     1      -0.533  10.178  20.881  0.00  0.00    +0.000 A 
ATOM      8  C   UNL     1      -0.622  10.849  19.659  0.00  0.00    +0.000 A 
ATOM      9  C   UNL     1       0.206  10.515  18.577  0.00  0.00    +0.000 A 
ATOM     10  C   UNL     1       1.100   9.459  18.775  0.00  0.00    +0.000 A 
ATOM     11  N   UNL     1       2.014   8.841  17.958  0.00  0.00    +0.000 N 
ATOM     12  H   UNL     1       2.208   9.061  16.990  0.00  0.00    +0.000 HD
ENDBRANCH   2   3
BRANCH   1  19
ATOM     13  C   UNL     1       6.407   5.427  19.000  0.00  0.00    +0.000 C 
ATOM     14  C   UNL     1       6.308   5.391  17.497  0.00  0.00    +0.000 A 
ATOM     15  C   UNL     1       7.175   4.526  16.801  0.00  0.00    +0.000 A 
ATOM     16  C   UNL     1       7.083   4.385  15.419  0.00  0.00    +0.000 A 
ATOM     17  C   UNL     1       6.076   5.046  14.729  0.00  0.00    +0.000 A 
ATOM     18  C   UNL     1       5.178   5.862  15.421  0.00  0.00    +0.000 A 
ATOM     19  C   UNL     1       5.325   6.120  16.794  0.00  0.00    +0.000 A 
ENDBRANCH   1  19
BRANCH   2  20
ATOM     20  S   UNL     1       2.545   5.137  18.028  0.00  0.00    +0.000 S 
ATOM     21  H   UNL     1       1.292   5.566  17.871  0.00  0.00    +0.000 HD
ENDBRANCH   2  20
TORSDOF 3
ENDMDL
MODEL 9
REMARK VINA RESULT:      -6.5      5.385      7.043
REMARK  Name = 
REMARK  4 active torsions:
REMARK  status: ('A' for Active; 'I' for Inactive)
REMARK    1  A    between atoms: C_1  and  C_2
REMARK    2  A    between atoms: C_7  and  N_8
REMARK    3  A    between atoms: C_9  and  S_10
REMARK    4  A    between atoms: C_9  and  C_11
REMARK                            x       y       z     vdW  Elec       q    Type
REMARK                         _______ _______ _______ _____ _____    ______ ____
ROOT
ATOM      1  N   UNL     1       6.994   7.357  16.815  0.00  0.00    +0.000 NA
ATOM      2  C   UNL     1       7.704   7.493  17.900  0.00  0.00    +0.000 C 
ENDROOT
BRANCH   2   3
ATOM      3  C   UNL     1       8.213   8.809  18.266  0.00  0.00    +0.000 A 
ATOM      4  N   UNL     1       8.043   9.917  17.561  0.00  0.00    +0.000 NA
ATOM      5  C   UNL     1       8.852  10.861  18.130  0.00  0.00    +0.000 A 
ATOM      6  C   UNL     1       9.117  12.173  17.713  0.00  0.00    +0.000 A 
ATOM      7  C   UNL     1      10.060  12.923  18.422  0.00  0.00    +0.000 A 
ATOM      8  C   UNL     1      10.707  12.382  19.537  0.00  0.00    +0.000 A 
ATOM      9  C   UNL     1      10.429  11.083  19.987  0.00  0.00    +0.000 A 
ATOM     10  C   UNL     1       9.496  10.350  19.249  0.00  0.00    +0.000 A 
ATOM     11  N   UNL     1       9.012   9.070  19.360  0.00  0.00    +0.000 N 
ATOM     12  H   UNL     1       9.274   8.381  20.053  0.00  0.00    +0.000 HD
ENDBRANCH   2   3
BRANCH   1  19
ATOM     13  C   UNL     1       4.195   6.866  17.502  0.00  0.00    +0.000 C 
ATOM     14  C   UNL     1       5.060   5.862  16.787  0.00  0.00    +0.000 A 
ATOM     15  C   UNL     1       4.476   4.635  16.417  0.00  0.00    +0.000 A 
ATOM     16  C   UNL     1       5.197   3.694  15.686  0.00  0.00    +0.000 A 
ATOM     17  C   UNL     1       6.478   4.002  15.249  0.00  0.00    +0.000 A 
ATOM     18  C   UNL     1       7.043   5.240  15.565  0.00  0.00    +0.000 A 
ATOM     19  C   UNL     1       6.388   6.155  16.406  0.00  0.00    +0.000 A 
ENDBRANCH   1  19
BRANCH   2  20
ATOM     20  S   UNL     1       8.081   6.274  19.115  0.00  0.00    +0.000 S 
ATOM     21  H   UNL     1       9.007   6.960  19.786  0.00  0.00    +0.000 HD
ENDBRANCH   2  20
TORSDOF 3
ENDMDL
