MODEL 1
REMARK VINA RESULT:      -6.1      0.000      0.000
REMARK  Name = 
REMARK  5 active torsions:
REMARK  status: ('A' for Active; 'I' for Inactive)
REMARK    1  A    between atoms: C_1  and  O_2
REMARK    2  A    between atoms: O_2  and  C_3
REMARK    3  A    between atoms: C_12  and  C_13
REMARK    4  A    between atoms: C_12  and  C_14
REMARK    5  A    between atoms: C_14  and  N_15
REMARK                            x       y       z     vdW  Elec       q    Type
REMARK                         _______ _______ _______ _____ _____    ______ ____
ROOT
ATOM      1  C   UNL     1       2.396   4.210  19.834  0.00  0.00    +0.000 A 
ATOM      2  C   UNL     1       1.753   5.376  20.257  0.00  0.00    +0.000 A 
ATOM      3  C   UNL     1       2.010   6.591  19.624  0.00  0.00    +0.000 A 
ATOM      4  C   UNL     1       2.920   6.674  18.557  0.00  0.00    +0.000 A 
ATOM      5 CL   UNL     1       3.208   8.266  17.866  0.00  0.00    +0.000 Cl
ATOM      6  C   UNL     1       3.610   5.514  18.117  0.00  0.00    +0.000 A 
ATOM      7  C   UNL     1       3.313   4.276  18.767  0.00  0.00    +0.000 A 
ATOM      8  C   UNL     1       3.988   2.990  18.348  0.00  0.00    +0.000 C 
ATOM      9  C   UNL     1       4.840   3.109  17.098  0.00  0.00    +0.000 C 
ATOM     10  C   UNL     1       5.714   4.384  17.090  0.00  0.00    +0.000 C 
ATOM     11  C   UNL     1       6.520   4.739  18.387  0.00  0.00    +0.000 C 
ATOM     12  C   UNL     1       4.681   5.521  17.045  0.00  0.00    +0.000 C 
ATOM     13  O   UNL     1       4.773   6.423  16.224  0.00  0.00    +0.000 OA
ENDROOT
BRANCH   1  15
ATOM     14  C   UNL     1       1.580   2.765  21.638  0.00  0.00    +0.000 C 
ATOM     15  O   UNL     1       2.180   2.999  20.412  0.00  0.00    +0.000 OA
ENDBRANCH   1  15
BRANCH  10  16
ATOM     16  C   UNL     1       6.722   4.235  15.879  0.00  0.00    +0.000 C 
BRANCH  16  17
ATOM     17  N   UNL     1       6.173   4.826  14.604  0.00  0.00    +0.000 NA
ATOM     18  C   UNL     1       5.361   4.025  13.648  0.00  0.00    +0.000 C 
ATOM     19  C   UNL     1       6.255   3.258  12.671  0.00  0.00    +0.000 C 
ATOM     20  O   UNL     1       7.033   4.174  11.925  0.00  0.00    +0.000 OA
ATOM     21  C   UNL     1       7.881   4.901  12.792  0.00  0.00    +0.000 C 
ATOM     22  C   UNL     1       7.076   5.699  13.832  0.00  0.00    +0.000 C 
ENDBRANCH  16  17
ENDBRANCH  10  16
TORSDOF 3
ENDMDL
MODEL 2
REMARK VINA RESULT:      -6.0      1.010      1.484
REMARK  Name = 
REMARK  5 active torsions:
REMARK  status: ('A' for Active; 'I' for Inactive)
REMARK    1  A    between atoms: C_1  and  O_2
REMARK    2  A    between atoms: O_2  and  C_3
REMARK    3  A    between atoms: C_12  and  C_13
REMARK    4  A    between atoms: C_12  and  C_14
REMARK    5  A    between atoms: C_14  and  N_15
REMARK                            x       y       z     vdW  Elec       q    Type
REMARK                         _______ _______ _______ _____ _____    ______ ____
ROOT
ATOM      1  C   UNL     1       2.480   4.398  20.030  0.00  0.00    +0.000 A 
ATOM      2  C   UNL     1       1.827   5.330  20.839  0.00  0.00    +0.000 A 
ATOM      3  C   UNL     1       1.748   6.667  20.452  0.00  0.00    +0.000 A 
ATOM      4  C   UNL     1       2.324   7.107  19.248  0.00  0.00    +0.000 A 
ATOM      5 CL   UNL     1       2.210   8.824  18.882  0.00  0.00    +0.000 Cl
ATOM      6  C   UNL     1       3.015   6.192  18.412  0.00  0.00    +0.000 A 
ATOM      7  C   UNL     1       3.064   4.823  18.820  0.00  0.00    +0.000 A 
ATOM      8  C   UNL     1       3.764   3.780  17.980  0.00  0.00    +0.000 C 
ATOM      9  C   UNL     1       4.231   4.278  16.625  0.00  0.00    +0.000 C 
ATOM     10  C   UNL     1       4.899   5.669  16.698  0.00  0.00    +0.000 C 
ATOM     11  C   UNL     1       5.968   5.921  17.817  0.00  0.00    +0.000 C 
ATOM     12  C   UNL     1       3.753   6.588  17.150  0.00  0.00    +0.000 C 
ATOM     13  O   UNL     1       3.507   7.627  16.551  0.00  0.00    +0.000 OA
ENDROOT
BRANCH   1  15
ATOM     14  C   UNL     1       2.260   2.508  21.575  0.00  0.00    +0.000 C 
ATOM     15  O   UNL     1       2.583   3.083  20.358  0.00  0.00    +0.000 OA
ENDBRANCH   1  15
BRANCH  10  16
ATOM     16  C   UNL     1       5.560   5.929  15.284  0.00  0.00    +0.000 C 
BRANCH  16  17
ATOM     17  N   UNL     1       6.533   4.841  14.900  0.00  0.00    +0.000 NA
ATOM     18  C   UNL     1       7.798   5.134  14.173  0.00  0.00    +0.000 C 
ATOM     19  C   UNL     1       7.567   5.183  12.661  0.00  0.00    +0.000 C 
ATOM     20  O   UNL     1       7.086   3.929  12.217  0.00  0.00    +0.000 OA
ATOM     21  C   UNL     1       5.841   3.650  12.825  0.00  0.00    +0.000 C 
ATOM     22  C   UNL     1       5.960   3.595  14.358  0.00  0.00    +0.000 C 
ENDBRANCH  16  17
ENDBRANCH  10  16
TORSDOF 3
ENDMDL
MODEL 3
REMARK VINA RESULT:      -6.0      2.350      6.638
REMARK  Name = 
REMARK  5 active torsions:
REMARK  status: ('A' for Active; 'I' for Inactive)
REMARK    1  A    between atoms: C_1  and  O_2
REMARK    2  A    between atoms: O_2  and  C_3
REMARK    3  A    between atoms: C_12  and  C_13
REMARK    4  A    between atoms: C_12  and  C_14
REMARK    5  A    between atoms: C_14  and  N_15
REMARK                            x       y       z     vdW  Elec       q    Type
REMARK                         _______ _______ _______ _____ _____    ______ ____
ROOT
ATOM      1  C   UNL     1       5.925   4.491  14.716  0.00  0.00    +0.000 A 
ATOM      2  C   UNL     1       7.206   5.048  14.674  0.00  0.00    +0.000 A 
ATOM      3  C   UNL     1       7.774   5.593  15.825  0.00  0.00    +0.000 A 
ATOM      4  C   UNL     1       7.077   5.601  17.044  0.00  0.00    +0.000 A 
ATOM      5 CL   UNL     1       7.867   6.360  18.419  0.00  0.00    +0.000 Cl
ATOM      6  C   UNL     1       5.765   5.065  17.117  0.00  0.00    +0.000 A 
ATOM      7  C   UNL     1       5.211   4.492  15.930  0.00  0.00    +0.000 A 
ATOM      8  C   UNL     1       3.828   3.882  15.925  0.00  0.00    +0.000 C 
ATOM      9  C   UNL     1       3.185   3.780  17.296  0.00  0.00    +0.000 C 
ATOM     10  C   UNL     1       3.375   5.059  18.142  0.00  0.00    +0.000 C 
ATOM     11  C   UNL     1       3.096   6.445  17.465  0.00  0.00    +0.000 C 
ATOM     12  C   UNL     1       4.895   5.118  18.357  0.00  0.00    +0.000 C 
ATOM     13  O   UNL     1       5.367   5.275  19.476  0.00  0.00    +0.000 OA
ENDROOT
BRANCH   1  15
ATOM     14  C   UNL     1       5.957   3.451  12.496  0.00  0.00    +0.000 C 
ATOM     15  O   UNL     1       5.326   3.943  13.626  0.00  0.00    +0.000 OA
ENDBRANCH   1  15
BRANCH  10  16
ATOM     16  C   UNL     1       2.441   4.905  19.410  0.00  0.00    +0.000 C 
BRANCH  16  17
ATOM     17  N   UNL     1       1.986   3.480  19.615  0.00  0.00    +0.000 NA
ATOM     18  C   UNL     1       0.809   3.140  20.458  0.00  0.00    +0.000 C 
ATOM     19  C   UNL     1       1.202   3.016  21.932  0.00  0.00    +0.000 C 
ATOM     20  O   UNL     1       2.158   1.983  22.078  0.00  0.00    +0.000 OA
ATOM     21  C   UNL     1       3.328   2.307  21.355  0.00  0.00    +0.000 C 
ATOM     22  C   UNL     1       3.038   2.474  19.854  0.00  0.00    +0.000 C 
ENDBRANCH  16  17
ENDBRANCH  10  16
TORSDOF 3
ENDMDL
MODEL 4
REMARK VINA RESULT:      -5.8      8.720     12.596
REMARK  Name = 
REMARK  5 active torsions:
REMARK  status: ('A' for Active; 'I' for Inactive)
REMARK    1  A    between atoms: C_1  and  O_2
REMARK    2  A    between atoms: O_2  and  C_3
REMARK    3  A    between atoms: C_12  and  C_13
REMARK    4  A    between atoms: C_12  and  C_14
REMARK    5  A    between atoms: C_14  and  N_15
REMARK                            x       y       z     vdW  Elec       q    Type
REMARK                         _______ _______ _______ _____ _____    ______ ____
ROOT
ATOM      1  C   UNL     1      -0.880  10.748  18.421  0.00  0.00    +0.000 A 
ATOM      2  C   UNL     1       0.104   9.770  18.253  0.00  0.00    +0.000 A 
ATOM      3  C   UNL     1       0.785   9.259  19.356  0.00  0.00    +0.000 A 
ATOM      4  C   UNL     1       0.506   9.716  20.656  0.00  0.00    +0.000 A 
ATOM      5 CL   UNL     1       1.461   9.041  21.969  0.00  0.00    +0.000 Cl
ATOM      6  C   UNL     1      -0.470  10.725  20.862  0.00  0.00    +0.000 A 
ATOM      7  C   UNL     1      -1.171  11.218  19.717  0.00  0.00    +0.000 A 
ATOM      8  C   UNL     1      -2.239  12.279  19.850  0.00  0.00    +0.000 C 
ATOM      9  C   UNL     1      -2.606  12.622  21.281  0.00  0.00    +0.000 C 
ATOM     10  C   UNL     1      -1.369  12.767  22.196  0.00  0.00    +0.000 C 
ATOM     11  C   UNL     1      -0.160  13.620  21.680  0.00  0.00    +0.000 C 
ATOM     12  C   UNL     1      -0.770  11.352  22.208  0.00  0.00    +0.000 C 
ATOM     13  O   UNL     1      -0.485  10.798  23.261  0.00  0.00    +0.000 OA
ENDROOT
BRANCH   1  15
ATOM     14  C   UNL     1      -2.414  10.594  16.515  0.00  0.00    +0.000 C 
ATOM     15  O   UNL     1      -1.577  11.278  17.382  0.00  0.00    +0.000 OA
ENDBRANCH   1  15
BRANCH  10  16
ATOM     16  C   UNL     1      -1.886  13.376  23.563  0.00  0.00    +0.000 C 
BRANCH  16  17
ATOM     17  N   UNL     1      -1.794  14.883  23.586  0.00  0.00    +0.000 NA
ATOM     18  C   UNL     1      -1.008  15.610  24.619  0.00  0.00    +0.000 C 
ATOM     19  C   UNL     1      -1.837  15.841  25.884  0.00  0.00    +0.000 C 
ATOM     20  O   UNL     1      -2.973  16.623  25.567  0.00  0.00    +0.000 OA
ATOM     21  C   UNL     1      -3.791  15.929  24.647  0.00  0.00    +0.000 C 
ATOM     22  C   UNL     1      -3.042  15.630  23.337  0.00  0.00    +0.000 C 
ENDBRANCH  16  17
ENDBRANCH  10  16
TORSDOF 3
ENDMDL
MODEL 5
REMARK VINA RESULT:      -5.6      3.854      6.778
REMARK  Name = 
REMARK  5 active torsions:
REMARK  status: ('A' for Active; 'I' for Inactive)
REMARK    1  A    between atoms: C_1  and  O_2
REMARK    2  A    between atoms: O_2  and  C_3
REMARK    3  A    between atoms: C_12  and  C_13
REMARK    4  A    between atoms: C_12  and  C_14
REMARK    5  A    between atoms: C_14  and  N_15
REMARK                            x       y       z     vdW  Elec       q    Type
REMARK                         _______ _______ _______ _____ _____    ______ ____
ROOT
ATOM      1  C   UNL     1       2.747   4.279  20.140  0.00  0.00    +0.000 A 
ATOM      2  C   UNL     1       3.540   3.348  19.463  0.00  0.00    +0.000 A 
ATOM      3  C   UNL     1       4.294   3.737  18.357  0.00  0.00    +0.000 A 
ATOM      4  C   UNL     1       4.272   5.064  17.896  0.00  0.00    +0.000 A 
ATOM      5 CL   UNL     1       5.220   5.434  16.462  0.00  0.00    +0.000 Cl
ATOM      6  C   UNL     1       3.460   6.031  18.545  0.00  0.00    +0.000 A 
ATOM      7  C   UNL     1       2.713   5.613  19.689  0.00  0.00    +0.000 A 
ATOM      8  C   UNL     1       1.838   6.583  20.450  0.00  0.00    +0.000 C 
ATOM      9  C   UNL     1       1.971   8.027  20.005  0.00  0.00    +0.000 C 
ATOM     10  C   UNL     1       1.997   8.178  18.467  0.00  0.00    +0.000 C 
ATOM     11  C   UNL     1       0.925   7.401  17.627  0.00  0.00    +0.000 C 
ATOM     12  C   UNL     1       3.292   7.458  18.063  0.00  0.00    +0.000 C 
ATOM     13  O   UNL     1       4.108   7.995  17.325  0.00  0.00    +0.000 OA
ENDROOT
BRANCH   1  15
ATOM     14  C   UNL     1       1.570   2.688  21.586  0.00  0.00    +0.000 C 
ATOM     15  O   UNL     1       1.996   3.955  21.225  0.00  0.00    +0.000 OA
ENDBRANCH   1  15
BRANCH  10  16
ATOM     16  C   UNL     1       1.870   9.726  18.162  0.00  0.00    +0.000 C 
BRANCH  16  17
ATOM     17  N   UNL     1       0.995  10.436  19.166  0.00  0.00    +0.000 NA
ATOM     18  C   UNL     1      -0.490  10.346  19.122  0.00  0.00    +0.000 C 
ATOM     19  C   UNL     1      -1.079  11.390  18.171  0.00  0.00    +0.000 C 
ATOM     20  O   UNL     1      -0.731  12.686  18.620  0.00  0.00    +0.000 OA
ATOM     21  C   UNL     1       0.674  12.840  18.599  0.00  0.00    +0.000 C 
ATOM     22  C   UNL     1       1.369  11.819  19.516  0.00  0.00    +0.000 C 
ENDBRANCH  16  17
ENDBRANCH  10  16
TORSDOF 3
ENDMDL
MODEL 6
REMARK VINA RESULT:      -5.6      3.665      6.816
REMARK  Name = 
REMARK  5 active torsions:
REMARK  status: ('A' for Active; 'I' for Inactive)
REMARK    1  A    between atoms: C_1  and  O_2
REMARK    2  A    between atoms: O_2  and  C_3
REMARK    3  A    between atoms: C_12  and  C_13
REMARK    4  A    between atoms: C_12  and  C_14
REMARK    5  A    between atoms: C_14  and  N_15
REMARK                            x       y       z     vdW  Elec       q    Type
REMARK                         _______ _______ _______ _____ _____    ______ ____
ROOT
ATOM      1  C   UNL     1       3.163   3.633  18.927  0.00  0.00    +0.000 A 
ATOM      2  C   UNL     1       3.930   2.977  17.961  0.00  0.00    +0.000 A 
ATOM      3  C   UNL     1       4.593   3.704  16.974  0.00  0.00    +0.000 A 
ATOM      4  C   UNL     1       4.503   5.105  16.923  0.00  0.00    +0.000 A 
ATOM      5 CL   UNL     1       5.337   5.919  15.606  0.00  0.00    +0.000 Cl
ATOM      6  C   UNL     1       3.715   5.804  17.874  0.00  0.00    +0.000 A 
ATOM      7  C   UNL     1       3.062   5.038  18.889  0.00  0.00    +0.000 A 
ATOM      8  C   UNL     1       2.218   5.704  19.952  0.00  0.00    +0.000 C 
ATOM      9  C   UNL     1       2.281   7.219  19.942  0.00  0.00    +0.000 C 
ATOM     10  C   UNL     1       2.193   7.811  18.517  0.00  0.00    +0.000 C 
ATOM     11  C   UNL     1       1.086   7.263  17.553  0.00  0.00    +0.000 C 
ATOM     12  C   UNL     1       3.475   7.300  17.842  0.00  0.00    +0.000 C 
ATOM     13  O   UNL     1       4.221   8.065  17.246  0.00  0.00    +0.000 OA
ENDROOT
BRANCH   1  15
ATOM     14  C   UNL     1       1.414   2.129  19.755  0.00  0.00    +0.000 C 
ATOM     15  O   UNL     1       2.500   2.974  19.913  0.00  0.00    +0.000 OA
ENDBRANCH   1  15
BRANCH  10  16
ATOM     16  C   UNL     1       2.004   9.374  18.687  0.00  0.00    +0.000 C 
BRANCH  16  17
ATOM     17  N   UNL     1       0.699   9.720  19.360  0.00  0.00    +0.000 NA
ATOM     18  C   UNL     1      -0.404  10.411  18.638  0.00  0.00    +0.000 C 
ATOM     19  C   UNL     1      -0.217  11.929  18.665  0.00  0.00    +0.000 C 
ATOM     20  O   UNL     1      -0.221  12.380  20.007  0.00  0.00    +0.000 OA
ATOM     21  C   UNL     1       0.863  11.809  20.709  0.00  0.00    +0.000 C 
ATOM     22  C   UNL     1       0.780  10.273  20.726  0.00  0.00    +0.000 C 
ENDBRANCH  16  17
ENDBRANCH  10  16
TORSDOF 3
ENDMDL
MODEL 7
REMARK VINA RESULT:      -5.6     10.009     12.598
REMARK  Name = 
REMARK  5 active torsions:
REMARK  status: ('A' for Active; 'I' for Inactive)
REMARK    1  A    between atoms: C_1  and  O_2
REMARK    2  A    between atoms: O_2  and  C_3
REMARK    3  A    between atoms: C_12  and  C_13
REMARK    4  A    between atoms: C_12  and  C_14
REMARK    5  A    between atoms: C_14  and  N_15
REMARK                            x       y       z     vdW  Elec       q    Type
REMARK                         _______ _______ _______ _____ _____    ______ ____
ROOT
ATOM      1  C   UNL     1      10.102  11.214  19.415  0.00  0.00    +0.000 A 
ATOM      2  C   UNL     1      11.006  11.688  18.461  0.00  0.00    +0.000 A 
ATOM      3  C   UNL     1      11.580  12.951  18.602  0.00  0.00    +0.000 A 
ATOM      4  C   UNL     1      11.262  13.774  19.695  0.00  0.00    +0.000 A 
ATOM      5 CL   UNL     1      12.004  15.368  19.746  0.00  0.00    +0.000 Cl
ATOM      6  C   UNL     1      10.330  13.334  20.671  0.00  0.00    +0.000 A 
ATOM      7  C   UNL     1       9.771  12.027  20.517  0.00  0.00    +0.000 A 
ATOM      8  C   UNL     1       8.786  11.473  21.521  0.00  0.00    +0.000 C 
ATOM      9  C   UNL     1       8.598  12.336  22.754  0.00  0.00    +0.000 C 
ATOM     10  C   UNL     1       8.472  13.839  22.418  0.00  0.00    +0.000 C 
ATOM     11  C   UNL     1       7.511  14.261  21.253  0.00  0.00    +0.000 C 
ATOM     12  C   UNL     1       9.848  14.186  21.827  0.00  0.00    +0.000 C 
ATOM     13  O   UNL     1      10.481  15.152  22.232  0.00  0.00    +0.000 OA
ENDROOT
BRANCH   1  15
ATOM     14  C   UNL     1       8.584   9.585  18.390  0.00  0.00    +0.000 C 
ATOM     15  O   UNL     1       9.517   9.990  19.330  0.00  0.00    +0.000 OA
ENDBRANCH   1  15
BRANCH  10  16
ATOM     16  C   UNL     1       8.021  14.565  23.750  0.00  0.00    +0.000 C 
BRANCH  16  17
ATOM     17  N   UNL     1       6.527  14.775  23.807  0.00  0.00    +0.000 NA
ATOM     18  C   UNL     1       5.927  16.067  24.238  0.00  0.00    +0.000 C 
ATOM     19  C   UNL     1       5.793  16.133  25.760  0.00  0.00    +0.000 C 
ATOM     20  O   UNL     1       4.949  15.088  26.205  0.00  0.00    +0.000 OA
ATOM     21  C   UNL     1       5.525  13.837  25.886  0.00  0.00    +0.000 C 
ATOM     22  C   UNL     1       5.721  13.675  24.369  0.00  0.00    +0.000 C 
ENDBRANCH  16  17
ENDBRANCH  10  16
TORSDOF 3
ENDMDL
MODEL 8
REMARK VINA RESULT:      -5.6      7.835     10.315
REMARK  Name = 
REMARK  5 active torsions:
REMARK  status: ('A' for Active; 'I' for Inactive)
REMARK    1  A    between atoms: C_1  and  O_2
REMARK    2  A    between atoms: O_2  and  C_3
REMARK    3  A    between atoms: C_12  and  C_13
REMARK    4  A    between atoms: C_12  and  C_14
REMARK    5  A    between atoms: C_14  and  N_15
REMARK                            x       y       z     vdW  Elec       q    Type
REMARK                         _______ _______ _______ _____ _____    ______ ____
ROOT
ATOM      1  C   UNL     1       0.721   9.220  21.225  0.00  0.00    +0.000 A 
ATOM      2  C   UNL     1       0.124   8.998  22.468  0.00  0.00    +0.000 A 
ATOM      3  C   UNL     1      -0.632  10.000  23.076  0.00  0.00    +0.000 A 
ATOM      4  C   UNL     1      -0.806  11.250  22.460  0.00  0.00    +0.000 A 
ATOM      5 CL   UNL     1      -1.735  12.458  23.338  0.00  0.00    +0.000 Cl
ATOM      6  C   UNL     1      -0.194  11.519  21.208  0.00  0.00    +0.000 A 
ATOM      7  C   UNL     1       0.558  10.469  20.594  0.00  0.00    +0.000 A 
ATOM      8  C   UNL     1       1.225  10.665  19.252  0.00  0.00    +0.000 C 
ATOM      9  C   UNL     1       0.879  11.972  18.566  0.00  0.00    +0.000 C 
ATOM     10  C   UNL     1       0.900  13.178  19.532  0.00  0.00    +0.000 C 
ATOM     11  C   UNL     1       2.122  13.331  20.502  0.00  0.00    +0.000 C 
ATOM     12  C   UNL     1      -0.240  12.865  20.513  0.00  0.00    +0.000 C 
ATOM     13  O   UNL     1      -1.097  13.700  20.770  0.00  0.00    +0.000 OA
ENDROOT
BRANCH   1  15
ATOM     14  C   UNL     1       1.456   6.915  20.831  0.00  0.00    +0.000 C 
ATOM     15  O   UNL     1       1.464   8.279  20.587  0.00  0.00    +0.000 OA
ENDBRANCH   1  15
BRANCH  10  16
ATOM     16  C   UNL     1       0.785  14.478  18.636  0.00  0.00    +0.000 C 
BRANCH  16  17
ATOM     17  N   UNL     1       1.619  15.616  19.173  0.00  0.00    +0.000 NA
ATOM     18  C   UNL     1       1.004  16.832  19.771  0.00  0.00    +0.000 C 
ATOM     19  C   UNL     1       0.653  17.861  18.695  0.00  0.00    +0.000 C 
ATOM     20  O   UNL     1       1.831  18.254  18.017  0.00  0.00    +0.000 OA
ATOM     21  C   UNL     1       2.404  17.140  17.364  0.00  0.00    +0.000 C 
ATOM     22  C   UNL     1       2.780  16.031  18.362  0.00  0.00    +0.000 C 
ENDBRANCH  16  17
ENDBRANCH  10  16
TORSDOF 3
ENDMDL
MODEL 9
REMARK VINA RESULT:      -5.5      3.452      6.559
REMARK  Name = 
REMARK  5 active torsions:
REMARK  status: ('A' for Active; 'I' for Inactive)
REMARK    1  A    between atoms: C_1  and  O_2
REMARK    2  A    between atoms: O_2  and  C_3
REMARK    3  A    between atoms: C_12  and  C_13
REMARK    4  A    between atoms: C_12  and  C_14
REMARK    5  A    between atoms: C_14  and  N_15
REMARK                            x       y       z     vdW  Elec       q    Type
REMARK                         _______ _______ _______ _____ _____    ______ ____
ROOT
ATOM      1  C   UNL     1       2.419   3.137  19.377  0.00  0.00    +0.000 A 
ATOM      2  C   UNL     1       3.078   2.260  18.512  0.00  0.00    +0.000 A 
ATOM      3  C   UNL     1       3.920   2.752  17.515  0.00  0.00    +0.000 A 
ATOM      4  C   UNL     1       4.120   4.133  17.353  0.00  0.00    +0.000 A 
ATOM      5 CL   UNL     1       5.160   4.647  16.032  0.00  0.00    +0.000 Cl
ATOM      6  C   UNL     1       3.448   5.054  18.199  0.00  0.00    +0.000 A 
ATOM      7  C   UNL     1       2.608   4.525  19.227  0.00  0.00    +0.000 A 
ATOM      8  C   UNL     1       1.871   5.435  20.183  0.00  0.00    +0.000 C 
ATOM      9  C   UNL     1       2.241   6.901  20.062  0.00  0.00    +0.000 C 
ATOM     10  C   UNL     1       2.340   7.373  18.594  0.00  0.00    +0.000 C 
ATOM     11  C   UNL     1       1.189   6.976  17.607  0.00  0.00    +0.000 C 
ATOM     12  C   UNL     1       3.520   6.560  18.039  0.00  0.00    +0.000 C 
ATOM     13  O   UNL     1       4.433   7.106  17.434  0.00  0.00    +0.000 OA
ENDROOT
BRANCH   1  15
ATOM     14  C   UNL     1       1.948   2.426  21.675  0.00  0.00    +0.000 C 
ATOM     15  O   UNL     1       1.592   2.711  20.367  0.00  0.00    +0.000 OA
ENDBRANCH   1  15
BRANCH  10  16
ATOM     16  C   UNL     1       2.466   8.951  18.633  0.00  0.00    +0.000 C 
BRANCH  16  17
ATOM     17  N   UNL     1       1.128   9.625  18.808  0.00  0.00    +0.000 NA
ATOM     18  C   UNL     1       0.838  10.967  18.233  0.00  0.00    +0.000 C 
ATOM     19  C   UNL     1       1.299  12.083  19.172  0.00  0.00    +0.000 C 
ATOM     20  O   UNL     1       0.610  11.976  20.404  0.00  0.00    +0.000 OA
ATOM     21  C   UNL     1       0.924  10.746  21.024  0.00  0.00    +0.000 C 
ATOM     22  C   UNL     1       0.514   9.550  20.148  0.00  0.00    +0.000 C 
ENDBRANCH  16  17
ENDBRANCH  10  16
TORSDOF 3
ENDMDL
