MODEL 1
REMARK VINA RESULT:      -7.6      0.000      0.000
REMARK  Name = 
REMARK  4 active torsions:
REMARK  status: ('A' for Active; 'I' for Inactive)
REMARK    1  A    between atoms: C_1  and  O_2
REMARK    2  A    between atoms: O_2  and  C_3
REMARK    3  A    between atoms: C_3  and  C_5
REMARK    4  A    between atoms: C_7  and  N_8
REMARK                            x       y       z     vdW  Elec       q    Type
REMARK                         _______ _______ _______ _____ _____    ______ ____
ROOT
ATOM      1  C   UNL     1       2.876   4.298  19.498  0.00  0.00    +0.000 A 
ATOM      2  C   UNL     1       4.057   5.053  19.394  0.00  0.00    +0.000 A 
ATOM      3  C   UNL     1       4.863   4.974  18.251  0.00  0.00    +0.000 A 
ATOM      4  C   UNL     1       4.487   4.101  17.224  0.00  0.00    +0.000 A 
ATOM      5  C   UNL     1       3.344   3.312  17.343  0.00  0.00    +0.000 A 
ATOM      6  C   UNL     1       2.522   3.418  18.469  0.00  0.00    +0.000 A 
ATOM      7 CL   UNL     1       1.071   2.486  18.449  0.00  0.00    +0.000 Cl
ENDROOT
BRANCH   3   8
ATOM      8  N   UNL     1       6.016   5.774  18.130  0.00  0.00    +0.000 N 
ATOM      9  C   UNL     1       7.050   5.805  19.017  0.00  0.00    +0.000 C 
ATOM     10  O   UNL     1       7.242   5.167  20.040  0.00  0.00    +0.000 OA
ATOM     11  C   UNL     1       8.027   6.774  18.513  0.00  0.00    +0.000 C 
ATOM     12  C   UNL     1       7.538   7.302  17.393  0.00  0.00    +0.000 C 
ATOM     13  C   UNL     1       6.240   6.673  17.123  0.00  0.00    +0.000 C 
ATOM     14  O   UNL     1       5.544   7.005  16.184  0.00  0.00    +0.000 OA
ENDBRANCH   3   8
BRANCH   1  15
ATOM     15  C   UNL     1       2.027   4.568  20.675  0.00  0.00    +0.000 C 
ATOM     16  O   UNL     1       1.176   5.450  20.691  0.00  0.00    +0.000 OA
BRANCH  15  18
ATOM     17  C   UNL     1       1.539   2.624  21.865  0.00  0.00    +0.000 C 
ATOM     18  O   UNL     1       2.368   3.774  21.707  0.00  0.00    +0.000 OA
ENDBRANCH  15  18
ENDBRANCH   1  15
TORSDOF 3
ENDMDL
MODEL 2
REMARK VINA RESULT:      -7.6      0.088      1.763
REMARK  Name = 
REMARK  4 active torsions:
REMARK  status: ('A' for Active; 'I' for Inactive)
REMARK    1  A    between atoms: C_1  and  O_2
REMARK    2  A    between atoms: O_2  and  C_3
REMARK    3  A    between atoms: C_3  and  C_5
REMARK    4  A    between atoms: C_7  and  N_8
REMARK                            x       y       z     vdW  Elec       q    Type
REMARK                         _______ _______ _______ _____ _____    ______ ____
ROOT
ATOM      1  C   UNL     1       2.895   4.291  19.506  0.00  0.00    +0.000 A 
ATOM      2  C   UNL     1       4.056   5.077  19.415  0.00  0.00    +0.000 A 
ATOM      3  C   UNL     1       4.903   4.985  18.303  0.00  0.00    +0.000 A 
ATOM      4  C   UNL     1       4.588   4.068  17.295  0.00  0.00    +0.000 A 
ATOM      5  C   UNL     1       3.465   3.249  17.403  0.00  0.00    +0.000 A 
ATOM      6  C   UNL     1       2.602   3.368  18.496  0.00  0.00    +0.000 A 
ATOM      7 CL   UNL     1       1.180   2.392  18.460  0.00  0.00    +0.000 Cl
ENDROOT
BRANCH   3   8
ATOM      8  N   UNL     1       6.036   5.814  18.193  0.00  0.00    +0.000 N 
ATOM      9  C   UNL     1       6.267   6.705  17.187  0.00  0.00    +0.000 C 
ATOM     10  O   UNL     1       5.583   7.014  16.224  0.00  0.00    +0.000 OA
ATOM     11  C   UNL     1       7.558   7.342  17.458  0.00  0.00    +0.000 C 
ATOM     12  C   UNL     1       8.058   6.798  18.565  0.00  0.00    +0.000 C 
ATOM     13  C   UNL     1       7.095   5.808  19.060  0.00  0.00    +0.000 C 
ATOM     14  O   UNL     1       7.319   5.119  20.036  0.00  0.00    +0.000 OA
ENDBRANCH   3   8
BRANCH   1  15
ATOM     15  C   UNL     1       1.999   4.574  20.644  0.00  0.00    +0.000 C 
ATOM     16  O   UNL     1       1.111   5.418  20.597  0.00  0.00    +0.000 OA
BRANCH  15  18
ATOM     17  C   UNL     1       1.602   2.631  21.869  0.00  0.00    +0.000 C 
ATOM     18  O   UNL     1       2.342   3.842  21.721  0.00  0.00    +0.000 OA
ENDBRANCH  15  18
ENDBRANCH   1  15
TORSDOF 3
ENDMDL
MODEL 3
REMARK VINA RESULT:      -7.4      2.469      5.610
REMARK  Name = 
REMARK  4 active torsions:
REMARK  status: ('A' for Active; 'I' for Inactive)
REMARK    1  A    between atoms: C_1  and  O_2
REMARK    2  A    between atoms: O_2  and  C_3
REMARK    3  A    between atoms: C_3  and  C_5
REMARK    4  A    between atoms: C_7  and  N_8
REMARK                            x       y       z     vdW  Elec       q    Type
REMARK                         _______ _______ _______ _____ _____    ______ ____
ROOT
ATOM      1  C   UNL     1       6.265   4.685  17.565  0.00  0.00    +0.000 A 
ATOM      2  C   UNL     1       5.268   4.499  18.538  0.00  0.00    +0.000 A 
ATOM      3  C   UNL     1       3.961   4.151  18.172  0.00  0.00    +0.000 A 
ATOM      4  C   UNL     1       3.657   4.025  16.812  0.00  0.00    +0.000 A 
ATOM      5  C   UNL     1       4.629   4.258  15.840  0.00  0.00    +0.000 A 
ATOM      6  C   UNL     1       5.941   4.570  16.208  0.00  0.00    +0.000 A 
ATOM      7 CL   UNL     1       7.084   4.713  14.925  0.00  0.00    +0.000 Cl
ENDROOT
BRANCH   3   8
ATOM      8  N   UNL     1       2.980   3.913  19.154  0.00  0.00    +0.000 N 
ATOM      9  C   UNL     1       2.446   2.696  19.456  0.00  0.00    +0.000 C 
ATOM     10  O   UNL     1       2.694   1.585  19.015  0.00  0.00    +0.000 OA
ATOM     11  C   UNL     1       1.461   2.905  20.520  0.00  0.00    +0.000 C 
ATOM     12  C   UNL     1       1.414   4.209  20.783  0.00  0.00    +0.000 C 
ATOM     13  C   UNL     1       2.385   4.883  19.914  0.00  0.00    +0.000 C 
ATOM     14  O   UNL     1       2.517   6.091  19.906  0.00  0.00    +0.000 OA
ENDBRANCH   3   8
BRANCH   1  15
ATOM     15  C   UNL     1       7.637   4.901  18.065  0.00  0.00    +0.000 C 
ATOM     16  O   UNL     1       8.539   4.088  17.900  0.00  0.00    +0.000 OA
BRANCH  15  18
ATOM     17  C   UNL     1       7.774   7.225  17.958  0.00  0.00    +0.000 C 
ATOM     18  O   UNL     1       7.720   6.049  18.764  0.00  0.00    +0.000 OA
ENDBRANCH  15  18
ENDBRANCH   1  15
TORSDOF 3
ENDMDL
MODEL 4
REMARK VINA RESULT:      -7.3      2.790      6.026
REMARK  Name = 
REMARK  4 active torsions:
REMARK  status: ('A' for Active; 'I' for Inactive)
REMARK    1  A    between atoms: C_1  and  O_2
REMARK    2  A    between atoms: O_2  and  C_3
REMARK    3  A    between atoms: C_3  and  C_5
REMARK    4  A    between atoms: C_7  and  N_8
REMARK                            x       y       z     vdW  Elec       q    Type
REMARK                         _______ _______ _______ _____ _____    ______ ____
ROOT
ATOM      1  C   UNL     1       5.312   5.475  16.850  0.00  0.00    +0.000 A 
ATOM      2  C   UNL     1       4.202   4.715  17.258  0.00  0.00    +0.000 A 
ATOM      3  C   UNL     1       4.028   4.361  18.602  0.00  0.00    +0.000 A 
ATOM      4  C   UNL     1       5.000   4.751  19.529  0.00  0.00    +0.000 A 
ATOM      5  C   UNL     1       6.128   5.462  19.123  0.00  0.00    +0.000 A 
ATOM      6  C   UNL     1       6.283   5.845  17.787  0.00  0.00    +0.000 A 
ATOM      7 CL   UNL     1       7.653   6.827  17.425  0.00  0.00    +0.000 Cl
ENDROOT
BRANCH   3   8
ATOM      8  N   UNL     1       2.887   3.645  19.013  0.00  0.00    +0.000 N 
ATOM      9  C   UNL     1       1.860   4.155  19.751  0.00  0.00    +0.000 C 
ATOM     10  O   UNL     1       1.665   5.284  20.172  0.00  0.00    +0.000 OA
ATOM     11  C   UNL     1       0.895   3.073  19.960  0.00  0.00    +0.000 C 
ATOM     12  C   UNL     1       1.384   1.973  19.390  0.00  0.00    +0.000 C 
ATOM     13  C   UNL     1       2.670   2.316  18.771  0.00  0.00    +0.000 C 
ATOM     14  O   UNL     1       3.365   1.485  18.221  0.00  0.00    +0.000 OA
ENDBRANCH   3   8
BRANCH   1  15
ATOM     15  C   UNL     1       5.320   5.919  15.442  0.00  0.00    +0.000 C 
ATOM     16  O   UNL     1       5.108   7.080  15.110  0.00  0.00    +0.000 OA
BRANCH  15  18
ATOM     17  C   UNL     1       6.885   4.641  14.280  0.00  0.00    +0.000 C 
ATOM     18  O   UNL     1       5.517   4.879  14.610  0.00  0.00    +0.000 OA
ENDBRANCH  15  18
ENDBRANCH   1  15
TORSDOF 3
ENDMDL
MODEL 5
REMARK VINA RESULT:      -7.3      2.794      5.990
REMARK  Name = 
REMARK  4 active torsions:
REMARK  status: ('A' for Active; 'I' for Inactive)
REMARK    1  A    between atoms: C_1  and  O_2
REMARK    2  A    between atoms: O_2  and  C_3
REMARK    3  A    between atoms: C_3  and  C_5
REMARK    4  A    between atoms: C_7  and  N_8
REMARK                            x       y       z     vdW  Elec       q    Type
REMARK                         _______ _______ _______ _____ _____    ______ ____
ROOT
ATOM      1  C   UNL     1       5.318   5.477  16.850  0.00  0.00    +0.000 A 
ATOM      2  C   UNL     1       4.220   4.707  17.269  0.00  0.00    +0.000 A 
ATOM      3  C   UNL     1       4.057   4.359  18.616  0.00  0.00    +0.000 A 
ATOM      4  C   UNL     1       5.029   4.766  19.536  0.00  0.00    +0.000 A 
ATOM      5  C   UNL     1       6.147   5.487  19.119  0.00  0.00    +0.000 A 
ATOM      6  C   UNL     1       6.290   5.864  17.781  0.00  0.00    +0.000 A 
ATOM      7 CL   UNL     1       7.648   6.859  17.405  0.00  0.00    +0.000 Cl
ENDROOT
BRANCH   3   8
ATOM      8  N   UNL     1       2.926   3.633  19.038  0.00  0.00    +0.000 N 
ATOM      9  C   UNL     1       2.686   2.319  18.765  0.00  0.00    +0.000 C 
ATOM     10  O   UNL     1       3.359   1.493  18.169  0.00  0.00    +0.000 OA
ATOM     11  C   UNL     1       1.402   1.974  19.380  0.00  0.00    +0.000 C 
ATOM     12  C   UNL     1       0.913   3.074  19.950  0.00  0.00    +0.000 C 
ATOM     13  C   UNL     1       1.879   4.160  19.744  0.00  0.00    +0.000 C 
ATOM     14  O   UNL     1       1.663   5.296  20.118  0.00  0.00    +0.000 OA
ENDBRANCH   3   8
BRANCH   1  15
ATOM     15  C   UNL     1       5.315   5.913  15.440  0.00  0.00    +0.000 C 
ATOM     16  O   UNL     1       5.107   7.073  15.104  0.00  0.00    +0.000 OA
BRANCH  15  18
ATOM     17  C   UNL     1       6.861   4.582  14.313  0.00  0.00    +0.000 C 
ATOM     18  O   UNL     1       5.495   4.866  14.613  0.00  0.00    +0.000 OA
ENDBRANCH  15  18
ENDBRANCH   1  15
TORSDOF 3
ENDMDL
MODEL 6
REMARK VINA RESULT:      -7.3      2.406      5.762
REMARK  Name = 
REMARK  4 active torsions:
REMARK  status: ('A' for Active; 'I' for Inactive)
REMARK    1  A    between atoms: C_1  and  O_2
REMARK    2  A    between atoms: O_2  and  C_3
REMARK    3  A    between atoms: C_3  and  C_5
REMARK    4  A    between atoms: C_7  and  N_8
REMARK                            x       y       z     vdW  Elec       q    Type
REMARK                         _______ _______ _______ _____ _____    ______ ____
ROOT
ATOM      1  C   UNL     1       6.268   5.500  17.658  0.00  0.00    +0.000 A 
ATOM      2  C   UNL     1       5.384   5.201  18.708  0.00  0.00    +0.000 A 
ATOM      3  C   UNL     1       4.367   4.251  18.545  0.00  0.00    +0.000 A 
ATOM      4  C   UNL     1       4.226   3.627  17.301  0.00  0.00    +0.000 A 
ATOM      5  C   UNL     1       5.069   3.955  16.240  0.00  0.00    +0.000 A 
ATOM      6  C   UNL     1       6.105   4.877  16.415  0.00  0.00    +0.000 A 
ATOM      7 CL   UNL     1       7.158   5.111  15.070  0.00  0.00    +0.000 Cl
ENDROOT
BRANCH   3   8
ATOM      8  N   UNL     1       3.518   3.917  19.618  0.00  0.00    +0.000 N 
ATOM      9  C   UNL     1       2.489   4.684  20.077  0.00  0.00    +0.000 C 
ATOM     10  O   UNL     1       2.051   5.752  19.678  0.00  0.00    +0.000 OA
ATOM     11  C   UNL     1       1.883   3.970  21.204  0.00  0.00    +0.000 C 
ATOM     12  C   UNL     1       2.576   2.850  21.399  0.00  0.00    +0.000 C 
ATOM     13  C   UNL     1       3.638   2.792  20.387  0.00  0.00    +0.000 C 
ATOM     14  O   UNL     1       4.459   1.896  20.363  0.00  0.00    +0.000 OA
ENDBRANCH   3   8
BRANCH   1  15
ATOM     15  C   UNL     1       7.391   6.401  17.982  0.00  0.00    +0.000 C 
ATOM     16  O   UNL     1       8.133   6.219  18.940  0.00  0.00    +0.000 OA
BRANCH  15  18
ATOM     17  C   UNL     1       7.908   8.659  17.724  0.00  0.00    +0.000 C 
ATOM     18  O   UNL     1       7.425   7.450  17.139  0.00  0.00    +0.000 OA
ENDBRANCH  15  18
ENDBRANCH   1  15
TORSDOF 3
ENDMDL
MODEL 7
REMARK VINA RESULT:      -7.2      2.404      5.599
REMARK  Name = 
REMARK  4 active torsions:
REMARK  status: ('A' for Active; 'I' for Inactive)
REMARK    1  A    between atoms: C_1  and  O_2
REMARK    2  A    between atoms: O_2  and  C_3
REMARK    3  A    between atoms: C_3  and  C_5
REMARK    4  A    between atoms: C_7  and  N_8
REMARK                            x       y       z     vdW  Elec       q    Type
REMARK                         _______ _______ _______ _____ _____    ______ ____
ROOT
ATOM      1  C   UNL     1       6.300   5.639  17.574  0.00  0.00    +0.000 A 
ATOM      2  C   UNL     1       5.384   5.384  18.609  0.00  0.00    +0.000 A 
ATOM      3  C   UNL     1       4.370   4.430  18.452  0.00  0.00    +0.000 A 
ATOM      4  C   UNL     1       4.264   3.758  17.230  0.00  0.00    +0.000 A 
ATOM      5  C   UNL     1       5.139   4.042  16.183  0.00  0.00    +0.000 A 
ATOM      6  C   UNL     1       6.173   4.968  16.353  0.00  0.00    +0.000 A 
ATOM      7 CL   UNL     1       7.267   5.147  15.031  0.00  0.00    +0.000 Cl
ENDROOT
BRANCH   3   8
ATOM      8  N   UNL     1       3.488   4.141  19.511  0.00  0.00    +0.000 N 
ATOM      9  C   UNL     1       3.478   2.986  20.236  0.00  0.00    +0.000 C 
ATOM     10  O   UNL     1       4.202   2.005  20.182  0.00  0.00    +0.000 OA
ATOM     11  C   UNL     1       2.400   3.100  21.222  0.00  0.00    +0.000 C 
ATOM     12  C   UNL     1       1.795   4.271  21.033  0.00  0.00    +0.000 C 
ATOM     13  C   UNL     1       2.478   4.963  19.933  0.00  0.00    +0.000 C 
ATOM     14  O   UNL     1       2.099   6.037  19.511  0.00  0.00    +0.000 OA
ENDBRANCH   3   8
BRANCH   1  15
ATOM     15  C   UNL     1       7.416   6.550  17.896  0.00  0.00    +0.000 C 
ATOM     16  O   UNL     1       8.191   6.349  18.824  0.00  0.00    +0.000 OA
BRANCH  15  18
ATOM     17  C   UNL     1       7.918   8.817  17.694  0.00  0.00    +0.000 C 
ATOM     18  O   UNL     1       7.404   7.630  17.092  0.00  0.00    +0.000 OA
ENDBRANCH  15  18
ENDBRANCH   1  15
TORSDOF 3
ENDMDL
MODEL 8
REMARK VINA RESULT:      -7.2      0.601      2.174
REMARK  Name = 
REMARK  4 active torsions:
REMARK  status: ('A' for Active; 'I' for Inactive)
REMARK    1  A    between atoms: C_1  and  O_2
REMARK    2  A    between atoms: O_2  and  C_3
REMARK    3  A    between atoms: C_3  and  C_5
REMARK    4  A    between atoms: C_7  and  N_8
REMARK                            x       y       z     vdW  Elec       q    Type
REMARK                         _______ _______ _______ _____ _____    ______ ____
ROOT
ATOM      1  C   UNL     1       3.082   4.176  19.625  0.00  0.00    +0.000 A 
ATOM      2  C   UNL     1       4.196   5.022  19.490  0.00  0.00    +0.000 A 
ATOM      3  C   UNL     1       5.047   4.920  18.382  0.00  0.00    +0.000 A 
ATOM      4  C   UNL     1       4.785   3.934  17.425  0.00  0.00    +0.000 A 
ATOM      5  C   UNL     1       3.711   3.059  17.578  0.00  0.00    +0.000 A 
ATOM      6  C   UNL     1       2.842   3.185  18.666  0.00  0.00    +0.000 A 
ATOM      7 CL   UNL     1       1.479   2.129  18.686  0.00  0.00    +0.000 Cl
ENDROOT
BRANCH   3   8
ATOM      8  N   UNL     1       6.130   5.806  18.225  0.00  0.00    +0.000 N 
ATOM      9  C   UNL     1       6.299   6.669  17.183  0.00  0.00    +0.000 C 
ATOM     10  O   UNL     1       5.587   6.903  16.220  0.00  0.00    +0.000 OA
ATOM     11  C   UNL     1       7.556   7.387  17.412  0.00  0.00    +0.000 C 
ATOM     12  C   UNL     1       8.099   6.913  18.532  0.00  0.00    +0.000 C 
ATOM     13  C   UNL     1       7.198   5.891  19.077  0.00  0.00    +0.000 C 
ATOM     14  O   UNL     1       7.473   5.253  20.074  0.00  0.00    +0.000 OA
ENDBRANCH   3   8
BRANCH   1  15
ATOM     15  C   UNL     1       2.170   4.467  20.749  0.00  0.00    +0.000 C 
ATOM     16  O   UNL     1       2.229   3.876  21.821  0.00  0.00    +0.000 OA
BRANCH  15  18
ATOM     17  C   UNL     1       1.536   6.705  20.881  0.00  0.00    +0.000 C 
ATOM     18  O   UNL     1       1.256   5.391  20.401  0.00  0.00    +0.000 OA
ENDBRANCH  15  18
ENDBRANCH   1  15
TORSDOF 3
ENDMDL
MODEL 9
REMARK VINA RESULT:      -7.1      2.837      5.968
REMARK  Name = 
REMARK  4 active torsions:
REMARK  status: ('A' for Active; 'I' for Inactive)
REMARK    1  A    between atoms: C_1  and  O_2
REMARK    2  A    between atoms: O_2  and  C_3
REMARK    3  A    between atoms: C_3  and  C_5
REMARK    4  A    between atoms: C_7  and  N_8
REMARK                            x       y       z     vdW  Elec       q    Type
REMARK                         _______ _______ _______ _____ _____    ______ ____
ROOT
ATOM      1  C   UNL     1       5.988   5.343  17.844  0.00  0.00    +0.000 A 
ATOM      2  C   UNL     1       4.957   4.502  18.299  0.00  0.00    +0.000 A 
ATOM      3  C   UNL     1       3.651   4.984  18.455  0.00  0.00    +0.000 A 
ATOM      4  C   UNL     1       3.397   6.332  18.181  0.00  0.00    +0.000 A 
ATOM      5  C   UNL     1       4.425   7.183  17.777  0.00  0.00    +0.000 A 
ATOM      6  C   UNL     1       5.720   6.693  17.588  0.00  0.00    +0.000 A 
ATOM      7 CL   UNL     1       6.880   7.809  16.969  0.00  0.00    +0.000 Cl
ENDROOT
BRANCH   3   8
ATOM      8  N   UNL     1       2.613   4.124  18.859  0.00  0.00    +0.000 N 
ATOM      9  C   UNL     1       1.942   3.260  18.045  0.00  0.00    +0.000 C 
ATOM     10  O   UNL     1       2.089   3.005  16.860  0.00  0.00    +0.000 OA
ATOM     11  C   UNL     1       0.943   2.573  18.868  0.00  0.00    +0.000 C 
ATOM     12  C   UNL     1       1.023   3.064  20.103  0.00  0.00    +0.000 C 
ATOM     13  C   UNL     1       2.094   4.067  20.125  0.00  0.00    +0.000 C 
ATOM     14  O   UNL     1       2.352   4.716  21.119  0.00  0.00    +0.000 OA
ENDBRANCH   3   8
BRANCH   1  15
ATOM     15  C   UNL     1       7.288   4.699  17.573  0.00  0.00    +0.000 C 
ATOM     16  O   UNL     1       8.032   4.304  18.464  0.00  0.00    +0.000 OA
BRANCH  15  18
ATOM     17  C   UNL     1       6.600   3.956  15.474  0.00  0.00    +0.000 C 
ATOM     18  O   UNL     1       7.551   4.682  16.253  0.00  0.00    +0.000 OA
ENDBRANCH  15  18
ENDBRANCH   1  15
TORSDOF 3
ENDMDL
