MODEL 1
REMARK VINA RESULT:      -7.3      0.000      0.000
REMARK  Name = 
REMARK  8 active torsions:
REMARK  status: ('A' for Active; 'I' for Inactive)
REMARK    1  A    between atoms: C_1  and  C_2
REMARK    2  A    between atoms: C_2  and  C_3
REMARK    3  A    between atoms: C_2  and  C_4
REMARK    4  A    between atoms: C_2  and  C_5
REMARK    5  A    between atoms: C_8  and  C_9
REMARK    6  A    between atoms: C_10  and  C_11
REMARK    7  A    between atoms: C_13  and  O_14
REMARK    8  A    between atoms: C_16  and  O_17
REMARK                            x       y       z     vdW  Elec       q    Type
REMARK                         _______ _______ _______ _____ _____    ______ ____
ROOT
ATOM      1  C   UNL     1       7.895   9.006  17.870  0.00  0.00    +0.000 C 
ATOM      2  C   UNL     1       8.097   7.772  18.361  0.00  0.00    +0.000 C 
ENDROOT
BRANCH   1   6
ATOM      3  C   UNL     1      10.025  12.554  19.104  0.00  0.00    +0.000 A 
ATOM      4  C   UNL     1       9.108  12.566  18.042  0.00  0.00    +0.000 A 
ATOM      5  C   UNL     1       8.414  11.409  17.665  0.00  0.00    +0.000 A 
ATOM      6  C   UNL     1       8.624  10.197  18.327  0.00  0.00    +0.000 A 
ATOM      7  C   UNL     1       9.516  10.177  19.400  0.00  0.00    +0.000 A 
ATOM      8  C   UNL     1      10.210  11.334  19.778  0.00  0.00    +0.000 A 
BRANCH   3  10
ATOM      9  C   UNL     1      10.589  15.023  18.614  0.00  0.00    +0.000 C 
ATOM     10  C   UNL     1      10.817  13.801  19.533  0.00  0.00    +0.000 C 
ATOM     11  C   UNL     1      12.327  13.480  19.514  0.00  0.00    +0.000 C 
ATOM     12  C   UNL     1      10.408  14.225  20.960  0.00  0.00    +0.000 C 
ENDBRANCH   3  10
ENDBRANCH   1   6
BRANCH   2  13
ATOM     13  C   UNL     1       7.436   6.609  17.774  0.00  0.00    +0.000 A 
ATOM     14  C   UNL     1       6.859   5.654  18.623  0.00  0.00    +0.000 A 
ATOM     15  C   UNL     1       6.248   4.529  18.078  0.00  0.00    +0.000 A 
ATOM     16  C   UNL     1       6.185   4.346  16.701  0.00  0.00    +0.000 A 
ATOM     17  C   UNL     1       6.759   5.297  15.866  0.00  0.00    +0.000 A 
ATOM     18  C   UNL     1       7.389   6.425  16.389  0.00  0.00    +0.000 A 
BRANCH  15  19
ATOM     19  O   UNL     1       5.703   3.566  18.874  0.00  0.00    +0.000 OA
ATOM     20  H   UNL     1       4.751   3.510  18.685  0.00  0.00    +0.000 HD
ENDBRANCH  15  19
BRANCH  17  21
ATOM     21  O   UNL     1       6.733   5.156  14.509  0.00  0.00    +0.000 OA
ATOM     22  H   UNL     1       7.349   5.800  14.121  0.00  0.00    +0.000 HD
ENDBRANCH  17  21
ENDBRANCH   2  13
TORSDOF 5
ENDMDL
MODEL 2
REMARK VINA RESULT:      -7.3      0.200      1.090
REMARK  Name = 
REMARK  8 active torsions:
REMARK  status: ('A' for Active; 'I' for Inactive)
REMARK    1  A    between atoms: C_1  and  C_2
REMARK    2  A    between atoms: C_2  and  C_3
REMARK    3  A    between atoms: C_2  and  C_4
REMARK    4  A    between atoms: C_2  and  C_5
REMARK    5  A    between atoms: C_8  and  C_9
REMARK    6  A    between atoms: C_10  and  C_11
REMARK    7  A    between atoms: C_13  and  O_14
REMARK    8  A    between atoms: C_16  and  O_17
REMARK                            x       y       z     vdW  Elec       q    Type
REMARK                         _______ _______ _______ _____ _____    ______ ____
ROOT
ATOM      1  C   UNL     1       7.987   9.142  17.791  0.00  0.00    +0.000 C 
ATOM      2  C   UNL     1       8.112   7.947  18.392  0.00  0.00    +0.000 C 
ENDROOT
BRANCH   1   6
ATOM      3  C   UNL     1      10.090  12.654  19.167  0.00  0.00    +0.000 A 
ATOM      4  C   UNL     1      10.251  11.401  19.777  0.00  0.00    +0.000 A 
ATOM      5  C   UNL     1       9.573  10.268  19.308  0.00  0.00    +0.000 A 
ATOM      6  C   UNL     1       8.699  10.353  18.222  0.00  0.00    +0.000 A 
ATOM      7  C   UNL     1       8.547  11.589  17.591  0.00  0.00    +0.000 A 
ATOM      8  C   UNL     1       9.226  12.721  18.060  0.00  0.00    +0.000 A 
BRANCH   3  10
ATOM      9  C   UNL     1      10.412  15.198  18.891  0.00  0.00    +0.000 C 
ATOM     10  C   UNL     1      10.805  13.920  19.668  0.00  0.00    +0.000 C 
ATOM     11  C   UNL     1      12.331  13.737  19.522  0.00  0.00    +0.000 C 
ATOM     12  C   UNL     1      10.466  14.170  21.154  0.00  0.00    +0.000 C 
ENDBRANCH   3  10
ENDBRANCH   1   6
BRANCH   2  13
ATOM     13  C   UNL     1       7.482   6.753  17.835  0.00  0.00    +0.000 A 
ATOM     14  C   UNL     1       6.977   5.780  18.710  0.00  0.00    +0.000 A 
ATOM     15  C   UNL     1       6.396   4.626  18.194  0.00  0.00    +0.000 A 
ATOM     16  C   UNL     1       6.292   4.430  16.821  0.00  0.00    +0.000 A 
ATOM     17  C   UNL     1       6.795   5.400  15.961  0.00  0.00    +0.000 A 
ATOM     18  C   UNL     1       7.393   6.557  16.454  0.00  0.00    +0.000 A 
BRANCH  15  19
ATOM     19  O   UNL     1       5.922   3.646  19.014  0.00  0.00    +0.000 OA
ATOM     20  H   UNL     1       6.560   3.511  19.735  0.00  0.00    +0.000 HD
ENDBRANCH  15  19
BRANCH  17  21
ATOM     21  O   UNL     1       6.727   5.248  14.606  0.00  0.00    +0.000 OA
ATOM     22  H   UNL     1       7.439   4.649  14.328  0.00  0.00    +0.000 HD
ENDBRANCH  17  21
ENDBRANCH   2  13
TORSDOF 5
ENDMDL
MODEL 3
REMARK VINA RESULT:      -7.2      3.598      8.510
REMARK  Name = 
REMARK  8 active torsions:
REMARK  status: ('A' for Active; 'I' for Inactive)
REMARK    1  A    between atoms: C_1  and  C_2
REMARK    2  A    between atoms: C_2  and  C_3
REMARK    3  A    between atoms: C_2  and  C_4
REMARK    4  A    between atoms: C_2  and  C_5
REMARK    5  A    between atoms: C_8  and  C_9
REMARK    6  A    between atoms: C_10  and  C_11
REMARK    7  A    between atoms: C_13  and  O_14
REMARK    8  A    between atoms: C_16  and  O_17
REMARK                            x       y       z     vdW  Elec       q    Type
REMARK                         _______ _______ _______ _____ _____    ______ ____
ROOT
ATOM      1  C   UNL     1       8.515   9.063  17.942  0.00  0.00    +0.000 C 
ATOM      2  C   UNL     1       9.001   9.582  19.082  0.00  0.00    +0.000 C 
ENDROOT
BRANCH   1   6
ATOM      3  C   UNL     1       5.775   5.730  17.765  0.00  0.00    +0.000 A 
ATOM      4  C   UNL     1       5.538   6.928  17.076  0.00  0.00    +0.000 A 
ATOM      5  C   UNL     1       6.445   7.994  17.131  0.00  0.00    +0.000 A 
ATOM      6  C   UNL     1       7.614   7.904  17.891  0.00  0.00    +0.000 A 
ATOM      7  C   UNL     1       7.874   6.709  18.563  0.00  0.00    +0.000 A 
ATOM      8  C   UNL     1       6.967   5.643  18.507  0.00  0.00    +0.000 A 
BRANCH   3  10
ATOM      9  C   UNL     1       3.309   4.978  17.680  0.00  0.00    +0.000 C 
ATOM     10  C   UNL     1       4.792   4.547  17.740  0.00  0.00    +0.000 C 
ATOM     11  C   UNL     1       4.979   3.699  19.016  0.00  0.00    +0.000 C 
ATOM     12  C   UNL     1       5.057   3.662  16.502  0.00  0.00    +0.000 C 
ENDBRANCH   3  10
ENDBRANCH   1   6
BRANCH   2  13
ATOM     13  C   UNL     1       9.786  10.815  19.075  0.00  0.00    +0.000 A 
ATOM     14  C   UNL     1      10.604  11.094  17.971  0.00  0.00    +0.000 A 
ATOM     15  C   UNL     1      11.375  12.252  17.961  0.00  0.00    +0.000 A 
ATOM     16  C   UNL     1      11.333  13.148  19.025  0.00  0.00    +0.000 A 
ATOM     17  C   UNL     1      10.519  12.863  20.115  0.00  0.00    +0.000 A 
ATOM     18  C   UNL     1       9.749  11.703  20.153  0.00  0.00    +0.000 A 
BRANCH  15  19
ATOM     19  O   UNL     1      12.204  12.541  16.918  0.00  0.00    +0.000 OA
ATOM     20  H   UNL     1      11.696  12.470  16.092  0.00  0.00    +0.000 HD
ENDBRANCH  15  19
BRANCH  17  21
ATOM     21  O   UNL     1      10.454  13.704  21.187  0.00  0.00    +0.000 OA
ATOM     22  H   UNL     1      10.801  13.239  21.966  0.00  0.00    +0.000 HD
ENDBRANCH  17  21
ENDBRANCH   2  13
TORSDOF 5
ENDMDL
MODEL 4
REMARK VINA RESULT:      -7.2      0.130      1.429
REMARK  Name = 
REMARK  8 active torsions:
REMARK  status: ('A' for Active; 'I' for Inactive)
REMARK    1  A    between atoms: C_1  and  C_2
REMARK    2  A    between atoms: C_2  and  C_3
REMARK    3  A    between atoms: C_2  and  C_4
REMARK    4  A    between atoms: C_2  and  C_5
REMARK    5  A    between atoms: C_8  and  C_9
REMARK    6  A    between atoms: C_10  and  C_11
REMARK    7  A    between atoms: C_13  and  O_14
REMARK    8  A    between atoms: C_16  and  O_17
REMARK                            x       y       z     vdW  Elec       q    Type
REMARK                         _______ _______ _______ _____ _____    ______ ____
ROOT
ATOM      1  C   UNL     1       7.827   8.974  17.847  0.00  0.00    +0.000 C 
ATOM      2  C   UNL     1       8.119   7.742  18.295  0.00  0.00    +0.000 C 
ENDROOT
BRANCH   1   6
ATOM      3  C   UNL     1      10.002  12.484  19.114  0.00  0.00    +0.000 A 
ATOM      4  C   UNL     1      10.126  11.251  19.772  0.00  0.00    +0.000 A 
ATOM      5  C   UNL     1       9.426  10.118  19.338  0.00  0.00    +0.000 A 
ATOM      6  C   UNL     1       8.564  10.183  18.240  0.00  0.00    +0.000 A 
ATOM      7  C   UNL     1       8.449  11.397  17.562  0.00  0.00    +0.000 A 
ATOM      8  C   UNL     1       9.150  12.529  17.996  0.00  0.00    +0.000 A 
BRANCH   3  10
ATOM      9  C   UNL     1      12.282  13.630  19.490  0.00  0.00    +0.000 C 
ATOM     10  C   UNL     1      10.743  13.750  19.574  0.00  0.00    +0.000 C 
ATOM     11  C   UNL     1      10.379  14.049  21.045  0.00  0.00    +0.000 C 
ATOM     12  C   UNL     1      10.333  14.954  18.698  0.00  0.00    +0.000 C 
ENDBRANCH   3  10
ENDBRANCH   1   6
BRANCH   2  13
ATOM     13  C   UNL     1       7.435   6.565  17.765  0.00  0.00    +0.000 A 
ATOM     14  C   UNL     1       6.867   5.648  18.660  0.00  0.00    +0.000 A 
ATOM     15  C   UNL     1       6.233   4.510  18.170  0.00  0.00    +0.000 A 
ATOM     16  C   UNL     1       6.140   4.276  16.802  0.00  0.00    +0.000 A 
ATOM     17  C   UNL     1       6.707   5.191  15.921  0.00  0.00    +0.000 A 
ATOM     18  C   UNL     1       7.358   6.330  16.389  0.00  0.00    +0.000 A 
BRANCH  15  19
ATOM     19  O   UNL     1       5.696   3.583  19.012  0.00  0.00    +0.000 OA
ATOM     20  H   UNL     1       6.381   3.303  19.642  0.00  0.00    +0.000 HD
ENDBRANCH  15  19
BRANCH  17  21
ATOM     21  O   UNL     1       6.652   4.999  14.571  0.00  0.00    +0.000 OA
ATOM     22  H   UNL     1       7.528   4.710  14.266  0.00  0.00    +0.000 HD
ENDBRANCH  17  21
ENDBRANCH   2  13
TORSDOF 5
ENDMDL
MODEL 5
REMARK VINA RESULT:      -7.2      5.966      7.446
REMARK  Name = 
REMARK  8 active torsions:
REMARK  status: ('A' for Active; 'I' for Inactive)
REMARK    1  A    between atoms: C_1  and  C_2
REMARK    2  A    between atoms: C_2  and  C_3
REMARK    3  A    between atoms: C_2  and  C_4
REMARK    4  A    between atoms: C_2  and  C_5
REMARK    5  A    between atoms: C_8  and  C_9
REMARK    6  A    between atoms: C_10  and  C_11
REMARK    7  A    between atoms: C_13  and  O_14
REMARK    8  A    between atoms: C_16  and  O_17
REMARK                            x       y       z     vdW  Elec       q    Type
REMARK                         _______ _______ _______ _____ _____    ______ ____
ROOT
ATOM      1  C   UNL     1       3.610   6.851  18.098  0.00  0.00    +0.000 C 
ATOM      2  C   UNL     1       4.479   7.092  17.103  0.00  0.00    +0.000 C 
ENDROOT
BRANCH   1   6
ATOM      3  C   UNL     1       0.703   9.778  19.376  0.00  0.00    +0.000 A 
ATOM      4  C   UNL     1       1.269   9.800  18.093  0.00  0.00    +0.000 A 
ATOM      5  C   UNL     1       2.199   8.833  17.689  0.00  0.00    +0.000 A 
ATOM      6  C   UNL     1       2.607   7.820  18.560  0.00  0.00    +0.000 A 
ATOM      7  C   UNL     1       2.034   7.772  19.832  0.00  0.00    +0.000 A 
ATOM      8  C   UNL     1       1.103   8.739  20.235  0.00  0.00    +0.000 A 
BRANCH   3  10
ATOM      9  C   UNL     1       0.212  12.284  19.737  0.00  0.00    +0.000 C 
ATOM     10  C   UNL     1      -0.307  10.833  19.857  0.00  0.00    +0.000 C 
ATOM     11  C   UNL     1      -0.642  10.580  21.343  0.00  0.00    +0.000 C 
ATOM     12  C   UNL     1      -1.605  10.745  19.025  0.00  0.00    +0.000 C 
ENDBRANCH   3  10
ENDBRANCH   1   6
BRANCH   2  13
ATOM     13  C   UNL     1       5.362   6.041  16.602  0.00  0.00    +0.000 A 
ATOM     14  C   UNL     1       5.150   5.533  15.313  0.00  0.00    +0.000 A 
ATOM     15  C   UNL     1       5.969   4.515  14.832  0.00  0.00    +0.000 A 
ATOM     16  C   UNL     1       7.006   4.006  15.605  0.00  0.00    +0.000 A 
ATOM     17  C   UNL     1       7.210   4.516  16.882  0.00  0.00    +0.000 A 
ATOM     18  C   UNL     1       6.395   5.526  17.391  0.00  0.00    +0.000 A 
BRANCH  15  19
ATOM     19  O   UNL     1       5.772   3.976  13.595  0.00  0.00    +0.000 OA
ATOM     20  H   UNL     1       5.317   3.124  13.698  0.00  0.00    +0.000 HD
ENDBRANCH  15  19
BRANCH  17  21
ATOM     21  O   UNL     1       8.207   4.041  17.683  0.00  0.00    +0.000 OA
ATOM     22  H   UNL     1       8.827   4.767  17.865  0.00  0.00    +0.000 HD
ENDBRANCH  17  21
ENDBRANCH   2  13
TORSDOF 5
ENDMDL
MODEL 6
REMARK VINA RESULT:      -7.1      5.886      7.229
REMARK  Name = 
REMARK  8 active torsions:
REMARK  status: ('A' for Active; 'I' for Inactive)
REMARK    1  A    between atoms: C_1  and  C_2
REMARK    2  A    between atoms: C_2  and  C_3
REMARK    3  A    between atoms: C_2  and  C_4
REMARK    4  A    between atoms: C_2  and  C_5
REMARK    5  A    between atoms: C_8  and  C_9
REMARK    6  A    between atoms: C_10  and  C_11
REMARK    7  A    between atoms: C_13  and  O_14
REMARK    8  A    between atoms: C_16  and  O_17
REMARK                            x       y       z     vdW  Elec       q    Type
REMARK                         _______ _______ _______ _____ _____    ______ ____
ROOT
ATOM      1  C   UNL     1       3.235   6.851  18.020  0.00  0.00    +0.000 C 
ATOM      2  C   UNL     1       4.549   7.030  17.808  0.00  0.00    +0.000 C 
ENDROOT
BRANCH   1   6
ATOM      3  C   UNL     1       0.680   9.934  19.636  0.00  0.00    +0.000 A 
ATOM      4  C   UNL     1       1.102   9.940  18.299  0.00  0.00    +0.000 A 
ATOM      5  C   UNL     1       1.918   8.924  17.786  0.00  0.00    +0.000 A 
ATOM      6  C   UNL     1       2.353   7.874  18.598  0.00  0.00    +0.000 A 
ATOM      7  C   UNL     1       1.921   7.842  19.925  0.00  0.00    +0.000 A 
ATOM      8  C   UNL     1       1.104   8.859  20.437  0.00  0.00    +0.000 A 
BRANCH   3  10
ATOM      9  C   UNL     1      -1.497  11.303  19.433  0.00  0.00    +0.000 C 
ATOM     10  C   UNL     1      -0.202  11.043  20.235  0.00  0.00    +0.000 C 
ATOM     11  C   UNL     1       0.596  12.365  20.274  0.00  0.00    +0.000 C 
ATOM     12  C   UNL     1      -0.626  10.667  21.672  0.00  0.00    +0.000 C 
ENDBRANCH   3  10
ENDBRANCH   1   6
BRANCH   2  13
ATOM     13  C   UNL     1       5.345   6.024  17.108  0.00  0.00    +0.000 A 
ATOM     14  C   UNL     1       6.464   5.475  17.750  0.00  0.00    +0.000 A 
ATOM     15  C   UNL     1       7.245   4.534  17.087  0.00  0.00    +0.000 A 
ATOM     16  C   UNL     1       6.921   4.115  15.801  0.00  0.00    +0.000 A 
ATOM     17  C   UNL     1       5.810   4.664  15.171  0.00  0.00    +0.000 A 
ATOM     18  C   UNL     1       5.021   5.618  15.811  0.00  0.00    +0.000 A 
BRANCH  15  19
ATOM     19  O   UNL     1       8.357   4.002  17.669  0.00  0.00    +0.000 OA
ATOM     20  H   UNL     1       8.156   3.092  17.945  0.00  0.00    +0.000 HD
ENDBRANCH  15  19
BRANCH  17  21
ATOM     21  O   UNL     1       5.459   4.294  13.906  0.00  0.00    +0.000 OA
ATOM     22  H   UNL     1       6.270   4.127  13.398  0.00  0.00    +0.000 HD
ENDBRANCH  17  21
ENDBRANCH   2  13
TORSDOF 5
ENDMDL
MODEL 7
REMARK VINA RESULT:      -7.1      3.578      8.347
REMARK  Name = 
REMARK  8 active torsions:
REMARK  status: ('A' for Active; 'I' for Inactive)
REMARK    1  A    between atoms: C_1  and  C_2
REMARK    2  A    between atoms: C_2  and  C_3
REMARK    3  A    between atoms: C_2  and  C_4
REMARK    4  A    between atoms: C_2  and  C_5
REMARK    5  A    between atoms: C_8  and  C_9
REMARK    6  A    between atoms: C_10  and  C_11
REMARK    7  A    between atoms: C_13  and  O_14
REMARK    8  A    between atoms: C_16  and  O_17
REMARK                            x       y       z     vdW  Elec       q    Type
REMARK                         _______ _______ _______ _____ _____    ______ ____
ROOT
ATOM      1  C   UNL     1       8.404   9.033  17.862  0.00  0.00    +0.000 C 
ATOM      2  C   UNL     1       8.926   9.548  18.987  0.00  0.00    +0.000 C 
ENDROOT
BRANCH   1   6
ATOM      3  C   UNL     1       5.682   5.682  17.759  0.00  0.00    +0.000 A 
ATOM      4  C   UNL     1       5.392   6.899  17.125  0.00  0.00    +0.000 A 
ATOM      5  C   UNL     1       6.293   7.971  17.154  0.00  0.00    +0.000 A 
ATOM      6  C   UNL     1       7.510   7.868  17.833  0.00  0.00    +0.000 A 
ATOM      7  C   UNL     1       7.821   6.655  18.449  0.00  0.00    +0.000 A 
ATOM      8  C   UNL     1       6.920   5.583  18.418  0.00  0.00    +0.000 A 
BRANCH   3  10
ATOM      9  C   UNL     1       3.222   4.911  17.672  0.00  0.00    +0.000 C 
ATOM     10  C   UNL     1       4.708   4.493  17.761  0.00  0.00    +0.000 C 
ATOM     11  C   UNL     1       4.887   3.687  19.066  0.00  0.00    +0.000 C 
ATOM     12  C   UNL     1       4.993   3.571  16.555  0.00  0.00    +0.000 C 
ENDBRANCH   3  10
ENDBRANCH   1   6
BRANCH   2  13
ATOM     13  C   UNL     1       9.701  10.786  18.962  0.00  0.00    +0.000 A 
ATOM     14  C   UNL     1       9.714  11.603  20.102  0.00  0.00    +0.000 A 
ATOM     15  C   UNL     1      10.429  12.797  20.084  0.00  0.00    +0.000 A 
ATOM     16  C   UNL     1      11.146  13.185  18.957  0.00  0.00    +0.000 A 
ATOM     17  C   UNL     1      11.127  12.368  17.832  0.00  0.00    +0.000 A 
ATOM     18  C   UNL     1      10.408  11.175  17.821  0.00  0.00    +0.000 A 
BRANCH  15  19
ATOM     19  O   UNL     1      10.439  13.630  21.163  0.00  0.00    +0.000 OA
ATOM     20  H   UNL     1       9.541  13.670  21.531  0.00  0.00    +0.000 HD
ENDBRANCH  15  19
BRANCH  17  21
ATOM     21  O   UNL     1      11.805  12.712  16.698  0.00  0.00    +0.000 OA
ATOM     22  H   UNL     1      11.836  11.938  16.112  0.00  0.00    +0.000 HD
ENDBRANCH  17  21
ENDBRANCH   2  13
TORSDOF 5
ENDMDL
MODEL 8
REMARK VINA RESULT:      -7.1      1.384      2.723
REMARK  Name = 
REMARK  8 active torsions:
REMARK  status: ('A' for Active; 'I' for Inactive)
REMARK    1  A    between atoms: C_1  and  C_2
REMARK    2  A    between atoms: C_2  and  C_3
REMARK    3  A    between atoms: C_2  and  C_4
REMARK    4  A    between atoms: C_2  and  C_5
REMARK    5  A    between atoms: C_8  and  C_9
REMARK    6  A    between atoms: C_10  and  C_11
REMARK    7  A    between atoms: C_13  and  O_14
REMARK    8  A    between atoms: C_16  and  O_17
REMARK                            x       y       z     vdW  Elec       q    Type
REMARK                         _______ _______ _______ _____ _____    ______ ____
ROOT
ATOM      1  C   UNL     1       9.032   9.786  18.419  0.00  0.00    +0.000 C 
ATOM      2  C   UNL     1       8.151   9.139  17.639  0.00  0.00    +0.000 C 
ENDROOT
BRANCH   1   6
ATOM      3  C   UNL     1       9.953  13.999  18.191  0.00  0.00    +0.000 A 
ATOM      4  C   UNL     1      10.831  13.074  18.775  0.00  0.00    +0.000 A 
ATOM      5  C   UNL     1      10.524  11.708  18.827  0.00  0.00    +0.000 A 
ATOM      6  C   UNL     1       9.320  11.222  18.309  0.00  0.00    +0.000 A 
ATOM      7  C   UNL     1       8.448  12.128  17.704  0.00  0.00    +0.000 A 
ATOM      8  C   UNL     1       8.756  13.494  17.651  0.00  0.00    +0.000 A 
BRANCH   3  10
ATOM      9  C   UNL     1       8.981  16.386  18.089  0.00  0.00    +0.000 C 
ATOM     10  C   UNL     1      10.251  15.506  18.133  0.00  0.00    +0.000 C 
ATOM     11  C   UNL     1      11.075  15.816  16.865  0.00  0.00    +0.000 C 
ATOM     12  C   UNL     1      11.058  15.937  19.377  0.00  0.00    +0.000 C 
ENDBRANCH   3  10
ENDBRANCH   1   6
BRANCH   2  13
ATOM     13  C   UNL     1       7.811   7.739  17.885  0.00  0.00    +0.000 A 
ATOM     14  C   UNL     1       7.083   7.036  16.915  0.00  0.00    +0.000 A 
ATOM     15  C   UNL     1       6.732   5.709  17.146  0.00  0.00    +0.000 A 
ATOM     16  C   UNL     1       7.108   5.064  18.318  0.00  0.00    +0.000 A 
ATOM     17  C   UNL     1       7.830   5.769  19.275  0.00  0.00    +0.000 A 
ATOM     18  C   UNL     1       8.182   7.102  19.072  0.00  0.00    +0.000 A 
BRANCH  15  19
ATOM     19  O   UNL     1       5.998   5.004  16.238  0.00  0.00    +0.000 OA
ATOM     20  H   UNL     1       6.163   5.374  15.354  0.00  0.00    +0.000 HD
ENDBRANCH  15  19
BRANCH  17  21
ATOM     21  O   UNL     1       8.212   5.182  20.447  0.00  0.00    +0.000 OA
ATOM     22  H   UNL     1       7.474   5.243  21.076  0.00  0.00    +0.000 HD
ENDBRANCH  17  21
ENDBRANCH   2  13
TORSDOF 5
ENDMDL
MODEL 9
REMARK VINA RESULT:      -7.0      0.406      2.324
REMARK  Name = 
REMARK  8 active torsions:
REMARK  status: ('A' for Active; 'I' for Inactive)
REMARK    1  A    between atoms: C_1  and  C_2
REMARK    2  A    between atoms: C_2  and  C_3
REMARK    3  A    between atoms: C_2  and  C_4
REMARK    4  A    between atoms: C_2  and  C_5
REMARK    5  A    between atoms: C_8  and  C_9
REMARK    6  A    between atoms: C_10  and  C_11
REMARK    7  A    between atoms: C_13  and  O_14
REMARK    8  A    between atoms: C_16  and  O_17
REMARK                            x       y       z     vdW  Elec       q    Type
REMARK                         _______ _______ _______ _____ _____    ______ ____
ROOT
ATOM      1  C   UNL     1       7.741   8.977  17.849  0.00  0.00    +0.000 C 
ATOM      2  C   UNL     1       8.124   7.740  18.202  0.00  0.00    +0.000 C 
ENDROOT
BRANCH   1   6
ATOM      3  C   UNL     1      10.081  12.486  18.782  0.00  0.00    +0.000 A 
ATOM      4  C   UNL     1      10.367  11.229  19.335  0.00  0.00    +0.000 A 
ATOM      5  C   UNL     1       9.608  10.098  19.010  0.00  0.00    +0.000 A 
ATOM      6  C   UNL     1       8.526  10.187  18.131  0.00  0.00    +0.000 A 
ATOM      7  C   UNL     1       8.244  11.427  17.555  0.00  0.00    +0.000 A 
ATOM      8  C   UNL     1       9.004  12.558  17.880  0.00  0.00    +0.000 A 
BRANCH   3  10
ATOM      9  C   UNL     1      10.297  14.544  20.321  0.00  0.00    +0.000 C 
ATOM     10  C   UNL     1      10.883  13.750  19.131  0.00  0.00    +0.000 C 
ATOM     11  C   UNL     1      10.908  14.694  17.909  0.00  0.00    +0.000 C 
ATOM     12  C   UNL     1      12.332  13.373  19.508  0.00  0.00    +0.000 C 
ENDBRANCH   3  10
ENDBRANCH   1   6
BRANCH   2  13
ATOM     13  C   UNL     1       7.366   6.565  17.776  0.00  0.00    +0.000 A 
ATOM     14  C   UNL     1       7.064   6.407  16.417  0.00  0.00    +0.000 A 
ATOM     15  C   UNL     1       6.322   5.306  16.000  0.00  0.00    +0.000 A 
ATOM     16  C   UNL     1       5.889   4.349  16.911  0.00  0.00    +0.000 A 
ATOM     17  C   UNL     1       6.193   4.514  18.258  0.00  0.00    +0.000 A 
ATOM     18  C   UNL     1       6.923   5.615  18.701  0.00  0.00    +0.000 A 
BRANCH  15  19
ATOM     19  O   UNL     1       5.986   5.136  14.690  0.00  0.00    +0.000 OA
ATOM     20  H   UNL     1       6.799   5.149  14.158  0.00  0.00    +0.000 HD
ENDBRANCH  15  19
BRANCH  17  21
ATOM     21  O   UNL     1       5.780   3.608  19.192  0.00  0.00    +0.000 OA
ATOM     22  H   UNL     1       6.357   2.828  19.140  0.00  0.00    +0.000 HD
ENDBRANCH  17  21
ENDBRANCH   2  13
TORSDOF 5
ENDMDL
