MODEL 1
REMARK VINA RESULT:     -10.1      0.000      0.000
REMARK  Name = 
REMARK  4 active torsions:
REMARK  status: ('A' for Active; 'I' for Inactive)
REMARK    1  A    between atoms: C_1  and  C_2
REMARK    2  A    between atoms: C_5  and  C_6
REMARK    3  A    between atoms: C_6  and  N_7
REMARK    4  A    between atoms: C_8  and  C_9
REMARK                            x       y       z     vdW  Elec       q    Type
REMARK                         _______ _______ _______ _____ _____    ______ ____
ROOT
ATOM      1  N   UNL     1       3.350   5.418  18.753  0.00  0.00    +0.000 N 
ATOM      2  C   UNL     1       4.686   5.134  19.025  0.00  0.00    +0.000 A 
ATOM      3  N   UNL     1       4.761   4.156  19.913  0.00  0.00    +0.000 NA
ATOM      4  C   UNL     1       3.472   3.721  20.118  0.00  0.00    +0.000 A 
ATOM      5  C   UNL     1       2.990   2.640  20.876  0.00  0.00    +0.000 A 
ATOM      6  C   UNL     1       1.611   2.377  20.881  0.00  0.00    +0.000 A 
ATOM      7  C   UNL     1       0.726   3.171  20.154  0.00  0.00    +0.000 A 
ATOM      8  C   UNL     1       1.188   4.253  19.402  0.00  0.00    +0.000 A 
ATOM      9  C   UNL     1       2.567   4.495  19.406  0.00  0.00    +0.000 A 
ENDROOT
BRANCH   2  10
ATOM     10  C   UNL     1       5.784   5.679  18.166  0.00  0.00    +0.000 C 
ATOM     11  C   UNL     1       7.181   5.838  18.777  0.00  0.00    +0.000 C 
ATOM     12  C   UNL     1       7.802   6.999  17.964  0.00  0.00    +0.000 C 
ATOM     13  O   UNL     1       8.374   7.922  18.513  0.00  0.00    +0.000 OA
ATOM     14  N   UNL     1       7.680   6.895  16.588  0.00  0.00    +0.000 N 
ATOM     15  C   UNL     1       7.009   5.824  16.040  0.00  0.00    +0.000 A 
ATOM     16  N   UNL     1       7.234   5.277  14.866  0.00  0.00    +0.000 NA
ATOM     17  N   UNL     1       6.593   4.081  14.978  0.00  0.00    +0.000 N 
ATOM     18  C   UNL     1       5.840   3.963  16.115  0.00  0.00    +0.000 A 
ATOM     19  C   UNL     1       6.063   5.115  16.819  0.00  0.00    +0.000 A 
ATOM     20  H   UNL     1       8.171   7.535  15.974  0.00  0.00    +0.000 HD
ATOM     21  H   UNL     1       6.791   3.368  14.273  0.00  0.00    +0.000 HD
ENDBRANCH   2  10
BRANCH   1  22
ATOM     22  C   UNL     1       2.824   6.473  17.890  0.00  0.00    +0.000 C 
BRANCH  22  27
ATOM     23  C   UNL     1       0.199  10.974  20.510  0.00  0.00    +0.000 C 
ATOM     24  C   UNL     1       0.909   9.831  19.850  0.00  0.00    +0.000 A 
ATOM     25  C   UNL     1       1.141   9.830  18.472  0.00  0.00    +0.000 A 
ATOM     26  C   UNL     1       1.777   8.747  17.864  0.00  0.00    +0.000 A 
ATOM     27  C   UNL     1       2.205   7.643  18.618  0.00  0.00    +0.000 A 
ATOM     28  C   UNL     1       1.955   7.642  19.997  0.00  0.00    +0.000 A 
ATOM     29  C   UNL     1       1.317   8.726  20.606  0.00  0.00    +0.000 A 
ENDBRANCH  22  27
ENDBRANCH   1  22
TORSDOF 3
ENDMDL
MODEL 2
REMARK VINA RESULT:      -9.8      1.141      1.621
REMARK  Name = 
REMARK  4 active torsions:
REMARK  status: ('A' for Active; 'I' for Inactive)
REMARK    1  A    between atoms: C_1  and  C_2
REMARK    2  A    between atoms: C_5  and  C_6
REMARK    3  A    between atoms: C_6  and  N_7
REMARK    4  A    between atoms: C_8  and  C_9
REMARK                            x       y       z     vdW  Elec       q    Type
REMARK                         _______ _______ _______ _____ _____    ______ ____
ROOT
ATOM      1  N   UNL     1       3.653   4.740  19.053  0.00  0.00    +0.000 N 
ATOM      2  C   UNL     1       4.524   4.124  18.158  0.00  0.00    +0.000 A 
ATOM      3  N   UNL     1       4.051   2.935  17.822  0.00  0.00    +0.000 NA
ATOM      4  C   UNL     1       2.807   2.838  18.403  0.00  0.00    +0.000 A 
ATOM      5  C   UNL     1       1.827   1.837  18.285  0.00  0.00    +0.000 A 
ATOM      6  C   UNL     1       0.604   2.004  18.953  0.00  0.00    +0.000 A 
ATOM      7  C   UNL     1       0.357   3.135  19.727  0.00  0.00    +0.000 A 
ATOM      8  C   UNL     1       1.323   4.135  19.861  0.00  0.00    +0.000 A 
ATOM      9  C   UNL     1       2.533   3.953  19.181  0.00  0.00    +0.000 A 
ENDROOT
BRANCH   2  10
ATOM     10  C   UNL     1       5.626   4.892  17.496  0.00  0.00    +0.000 C 
ATOM     11  C   UNL     1       6.970   5.017  18.223  0.00  0.00    +0.000 C 
ATOM     12  C   UNL     1       7.548   6.350  17.688  0.00  0.00    +0.000 C 
ATOM     13  O   UNL     1       8.017   7.185  18.439  0.00  0.00    +0.000 OA
ATOM     14  N   UNL     1       7.512   6.505  16.312  0.00  0.00    +0.000 N 
ATOM     15  C   UNL     1       6.956   5.520  15.526  0.00  0.00    +0.000 A 
ATOM     16  N   UNL     1       7.288   5.223  14.290  0.00  0.00    +0.000 NA
ATOM     17  N   UNL     1       6.733   3.990  14.130  0.00  0.00    +0.000 N 
ATOM     18  C   UNL     1       5.928   3.608  15.168  0.00  0.00    +0.000 A 
ATOM     19  C   UNL     1       6.023   4.616  16.090  0.00  0.00    +0.000 A 
ATOM     20  H   UNL     1       7.989   7.280  15.865  0.00  0.00    +0.000 HD
ATOM     21  H   UNL     1       7.025   3.439  13.319  0.00  0.00    +0.000 HD
ENDBRANCH   2  10
BRANCH   1  22
ATOM     22  C   UNL     1       3.833   6.024  19.727  0.00  0.00    +0.000 C 
BRANCH  22  27
ATOM     23  C   UNL     1       0.176  10.360  18.372  0.00  0.00    +0.000 C 
ATOM     24  C   UNL     1       1.091   9.219  18.702  0.00  0.00    +0.000 A 
ATOM     25  C   UNL     1       1.142   8.693  19.996  0.00  0.00    +0.000 A 
ATOM     26  C   UNL     1       2.019   7.651  20.300  0.00  0.00    +0.000 A 
ATOM     27  C   UNL     1       2.858   7.102  19.318  0.00  0.00    +0.000 A 
ATOM     28  C   UNL     1       2.814   7.645  18.026  0.00  0.00    +0.000 A 
ATOM     29  C   UNL     1       1.936   8.689  17.722  0.00  0.00    +0.000 A 
ENDBRANCH  22  27
ENDBRANCH   1  22
TORSDOF 3
ENDMDL
MODEL 3
REMARK VINA RESULT:      -8.6      1.463      2.180
REMARK  Name = 
REMARK  4 active torsions:
REMARK  status: ('A' for Active; 'I' for Inactive)
REMARK    1  A    between atoms: C_1  and  C_2
REMARK    2  A    between atoms: C_5  and  C_6
REMARK    3  A    between atoms: C_6  and  N_7
REMARK    4  A    between atoms: C_8  and  C_9
REMARK                            x       y       z     vdW  Elec       q    Type
REMARK                         _______ _______ _______ _____ _____    ______ ____
ROOT
ATOM      1  N   UNL     1       3.317   4.853  18.644  0.00  0.00    +0.000 N 
ATOM      2  C   UNL     1       4.639   4.416  18.639  0.00  0.00    +0.000 A 
ATOM      3  N   UNL     1       4.817   3.524  19.600  0.00  0.00    +0.000 NA
ATOM      4  C   UNL     1       3.574   3.290  20.143  0.00  0.00    +0.000 A 
ATOM      5  C   UNL     1       3.171   2.360  21.117  0.00  0.00    +0.000 A 
ATOM      6  C   UNL     1       1.813   2.289  21.466  0.00  0.00    +0.000 A 
ATOM      7  C   UNL     1       0.874   3.126  20.867  0.00  0.00    +0.000 A 
ATOM      8  C   UNL     1       1.259   4.061  19.904  0.00  0.00    +0.000 A 
ATOM      9  C   UNL     1       2.617   4.111  19.565  0.00  0.00    +0.000 A 
ENDROOT
BRANCH   2  10
ATOM     10  C   UNL     1       5.552   4.724  17.494  0.00  0.00    +0.000 C 
ATOM     11  C   UNL     1       4.998   4.628  16.068  0.00  0.00    +0.000 C 
ATOM     12  C   UNL     1       6.246   4.294  15.216  0.00  0.00    +0.000 C 
ATOM     13  O   UNL     1       6.228   3.405  14.385  0.00  0.00    +0.000 OA
ATOM     14  N   UNL     1       7.357   5.087  15.451  0.00  0.00    +0.000 N 
ATOM     15  C   UNL     1       7.306   6.069  16.416  0.00  0.00    +0.000 A 
ATOM     16  N   UNL     1       7.978   7.198  16.421  0.00  0.00    +0.000 NA
ATOM     17  N   UNL     1       7.302   7.933  17.348  0.00  0.00    +0.000 N 
ATOM     18  C   UNL     1       6.351   7.221  18.029  0.00  0.00    +0.000 A 
ATOM     19  C   UNL     1       6.357   5.975  17.463  0.00  0.00    +0.000 A 
ATOM     20  H   UNL     1       8.171   5.031  14.849  0.00  0.00    +0.000 HD
ATOM     21  H   UNL     1       7.494   8.935  17.392  0.00  0.00    +0.000 HD
ENDBRANCH   2  10
BRANCH   1  22
ATOM     22  C   UNL     1       2.719   5.886  17.801  0.00  0.00    +0.000 C 
BRANCH  22  27
ATOM     23  C   UNL     1       0.743  10.689  20.454  0.00  0.00    +0.000 C 
ATOM     24  C   UNL     1       1.289   9.464  19.783  0.00  0.00    +0.000 A 
ATOM     25  C   UNL     1       1.438   9.414  18.395  0.00  0.00    +0.000 A 
ATOM     26  C   UNL     1       1.919   8.258  17.778  0.00  0.00    +0.000 A 
ATOM     27  C   UNL     1       2.272   7.129  18.533  0.00  0.00    +0.000 A 
ATOM     28  C   UNL     1       2.104   7.180  19.924  0.00  0.00    +0.000 A 
ATOM     29  C   UNL     1       1.622   8.337  20.542  0.00  0.00    +0.000 A 
ENDBRANCH  22  27
ENDBRANCH   1  22
TORSDOF 3
ENDMDL
MODEL 4
REMARK VINA RESULT:      -7.7      5.608      9.093
REMARK  Name = 
REMARK  4 active torsions:
REMARK  status: ('A' for Active; 'I' for Inactive)
REMARK    1  A    between atoms: C_1  and  C_2
REMARK    2  A    between atoms: C_5  and  C_6
REMARK    3  A    between atoms: C_6  and  N_7
REMARK    4  A    between atoms: C_8  and  C_9
REMARK                            x       y       z     vdW  Elec       q    Type
REMARK                         _______ _______ _______ _____ _____    ______ ____
ROOT
ATOM      1  N   UNL     1      -0.194  10.515  19.474  0.00  0.00    +0.000 N 
ATOM      2  C   UNL     1      -0.388  10.388  20.847  0.00  0.00    +0.000 A 
ATOM      3  N   UNL     1       0.258   9.322  21.291  0.00  0.00    +0.000 NA
ATOM      4  C   UNL     1       0.976   8.834  20.223  0.00  0.00    +0.000 A 
ATOM      5  C   UNL     1       1.910   7.787  20.163  0.00  0.00    +0.000 A 
ATOM      6  C   UNL     1       2.548   7.517  18.941  0.00  0.00    +0.000 A 
ATOM      7  C   UNL     1       2.262   8.265  17.801  0.00  0.00    +0.000 A 
ATOM      8  C   UNL     1       1.329   9.304  17.843  0.00  0.00    +0.000 A 
ATOM      9  C   UNL     1       0.709   9.561  19.072  0.00  0.00    +0.000 A 
ENDROOT
BRANCH   2  10
ATOM     10  C   UNL     1      -0.981  11.502  21.653  0.00  0.00    +0.000 C 
ATOM     11  C   UNL     1      -1.372  11.225  23.109  0.00  0.00    +0.000 C 
ATOM     12  C   UNL     1      -2.518  12.231  23.374  0.00  0.00    +0.000 C 
ATOM     13  O   UNL     1      -3.554  11.885  23.909  0.00  0.00    +0.000 OA
ATOM     14  N   UNL     1      -2.267  13.537  22.983  0.00  0.00    +0.000 N 
ATOM     15  C   UNL     1      -1.072  13.851  22.373  0.00  0.00    +0.000 A 
ATOM     16  N   UNL     1      -0.446  15.005  22.425  0.00  0.00    +0.000 NA
ATOM     17  N   UNL     1       0.805  14.674  21.999  0.00  0.00    +0.000 N 
ATOM     18  C   UNL     1       0.906  13.394  21.525  0.00  0.00    +0.000 A 
ATOM     19  C   UNL     1      -0.328  12.837  21.723  0.00  0.00    +0.000 A 
ATOM     20  H   UNL     1      -2.900  14.285  23.239  0.00  0.00    +0.000 HD
ATOM     21  H   UNL     1       1.552  15.356  22.147  0.00  0.00    +0.000 HD
ENDBRANCH   2  10
BRANCH   1  22
ATOM     22  C   UNL     1      -0.789  11.508  18.581  0.00  0.00    +0.000 C 
BRANCH  22  27
ATOM     23  C   UNL     1      -6.587  10.986  18.232  0.00  0.00    +0.000 C 
ATOM     24  C   UNL     1      -5.099  11.153  18.298  0.00  0.00    +0.000 A 
ATOM     25  C   UNL     1      -4.252  10.334  17.547  0.00  0.00    +0.000 A 
ATOM     26  C   UNL     1      -2.867  10.478  17.638  0.00  0.00    +0.000 A 
ATOM     27  C   UNL     1      -2.294  11.450  18.474  0.00  0.00    +0.000 A 
ATOM     28  C   UNL     1      -3.149  12.258  19.237  0.00  0.00    +0.000 A 
ATOM     29  C   UNL     1      -4.536  12.113  19.147  0.00  0.00    +0.000 A 
ENDBRANCH  22  27
ENDBRANCH   1  22
TORSDOF 3
ENDMDL
MODEL 5
REMARK VINA RESULT:      -7.7      3.284      7.161
REMARK  Name = 
REMARK  4 active torsions:
REMARK  status: ('A' for Active; 'I' for Inactive)
REMARK    1  A    between atoms: C_1  and  C_2
REMARK    2  A    between atoms: C_5  and  C_6
REMARK    3  A    between atoms: C_6  and  N_7
REMARK    4  A    between atoms: C_8  and  C_9
REMARK                            x       y       z     vdW  Elec       q    Type
REMARK                         _______ _______ _______ _____ _____    ______ ____
ROOT
ATOM      1  N   UNL     1       5.940   5.629  17.034  0.00  0.00    +0.000 N 
ATOM      2  C   UNL     1       5.817   4.626  17.991  0.00  0.00    +0.000 A 
ATOM      3  N   UNL     1       6.703   4.817  18.955  0.00  0.00    +0.000 NA
ATOM      4  C   UNL     1       7.313   6.021  18.684  0.00  0.00    +0.000 A 
ATOM      5  C   UNL     1       8.249   6.751  19.434  0.00  0.00    +0.000 A 
ATOM      6  C   UNL     1       8.685   7.995  18.949  0.00  0.00    +0.000 A 
ATOM      7  C   UNL     1       8.207   8.502  17.743  0.00  0.00    +0.000 A 
ATOM      8  C   UNL     1       7.283   7.785  16.981  0.00  0.00    +0.000 A 
ATOM      9  C   UNL     1       6.856   6.550  17.485  0.00  0.00    +0.000 A 
ENDROOT
BRANCH   2  10
ATOM     10  C   UNL     1       4.634   3.707  18.003  0.00  0.00    +0.000 C 
ATOM     11  C   UNL     1       4.490   2.713  19.161  0.00  0.00    +0.000 C 
ATOM     12  C   UNL     1       3.688   1.545  18.539  0.00  0.00    +0.000 C 
ATOM     13  O   UNL     1       4.030   0.388  18.694  0.00  0.00    +0.000 OA
ATOM     14  N   UNL     1       2.559   1.912  17.824  0.00  0.00    +0.000 N 
ATOM     15  C   UNL     1       2.241   3.245  17.683  0.00  0.00    +0.000 A 
ATOM     16  N   UNL     1       1.037   3.752  17.546  0.00  0.00    +0.000 NA
ATOM     17  N   UNL     1       1.245   5.069  17.823  0.00  0.00    +0.000 N 
ATOM     18  C   UNL     1       2.566   5.403  17.951  0.00  0.00    +0.000 A 
ATOM     19  C   UNL     1       3.252   4.226  17.824  0.00  0.00    +0.000 A 
ATOM     20  H   UNL     1       1.902   1.212  17.499  0.00  0.00    +0.000 HD
ATOM     21  H   UNL     1       0.425   5.654  17.993  0.00  0.00    +0.000 HD
ENDBRANCH   2  10
BRANCH   1  22
ATOM     22  C   UNL     1       5.208   5.752  15.775  0.00  0.00    +0.000 C 
BRANCH  22  27
ATOM     23  C   UNL     1       7.159   2.747  11.173  0.00  0.00    +0.000 C 
ATOM     24  C   UNL     1       6.678   3.494  12.380  0.00  0.00    +0.000 A 
ATOM     25  C   UNL     1       5.375   3.325  12.856  0.00  0.00    +0.000 A 
ATOM     26  C   UNL     1       4.928   4.047  13.963  0.00  0.00    +0.000 A 
ATOM     27  C   UNL     1       5.774   4.949  14.628  0.00  0.00    +0.000 A 
ATOM     28  C   UNL     1       7.075   5.127  14.136  0.00  0.00    +0.000 A 
ATOM     29  C   UNL     1       7.522   4.404  13.026  0.00  0.00    +0.000 A 
ENDBRANCH  22  27
ENDBRANCH   1  22
TORSDOF 3
ENDMDL
MODEL 6
REMARK VINA RESULT:      -7.6      2.554      5.495
REMARK  Name = 
REMARK  4 active torsions:
REMARK  status: ('A' for Active; 'I' for Inactive)
REMARK    1  A    between atoms: C_1  and  C_2
REMARK    2  A    between atoms: C_5  and  C_6
REMARK    3  A    between atoms: C_6  and  N_7
REMARK    4  A    between atoms: C_8  and  C_9
REMARK                            x       y       z     vdW  Elec       q    Type
REMARK                         _______ _______ _______ _____ _____    ______ ____
ROOT
ATOM      1  N   UNL     1       4.264   5.656  17.957  0.00  0.00    +0.000 N 
ATOM      2  C   UNL     1       4.229   4.424  18.603  0.00  0.00    +0.000 A 
ATOM      3  N   UNL     1       5.457   4.059  18.933  0.00  0.00    +0.000 NA
ATOM      4  C   UNL     1       6.273   5.120  18.613  0.00  0.00    +0.000 A 
ATOM      5  C   UNL     1       7.646   5.311  18.849  0.00  0.00    +0.000 A 
ATOM      6  C   UNL     1       8.237   6.524  18.462  0.00  0.00    +0.000 A 
ATOM      7  C   UNL     1       7.488   7.525  17.847  0.00  0.00    +0.000 A 
ATOM      8  C   UNL     1       6.125   7.347  17.598  0.00  0.00    +0.000 A 
ATOM      9  C   UNL     1       5.552   6.133  17.999  0.00  0.00    +0.000 A 
ENDROOT
BRANCH   2  10
ATOM     10  C   UNL     1       2.939   3.836  19.083  0.00  0.00    +0.000 C 
ATOM     11  C   UNL     1       2.197   2.853  18.171  0.00  0.00    +0.000 C 
ATOM     12  C   UNL     1       0.715   3.020  18.586  0.00  0.00    +0.000 C 
ATOM     13  O   UNL     1      -0.165   3.152  17.757  0.00  0.00    +0.000 OA
ATOM     14  N   UNL     1       0.472   2.985  19.950  0.00  0.00    +0.000 N 
ATOM     15  C   UNL     1       1.522   2.843  20.830  0.00  0.00    +0.000 A 
ATOM     16  N   UNL     1       1.481   2.273  22.013  0.00  0.00    +0.000 NA
ATOM     17  N   UNL     1       2.800   2.065  22.280  0.00  0.00    +0.000 N 
ATOM     18  C   UNL     1       3.644   2.650  21.375  0.00  0.00    +0.000 A 
ATOM     19  C   UNL     1       2.830   3.205  20.425  0.00  0.00    +0.000 A 
ATOM     20  H   UNL     1      -0.477   2.950  20.306  0.00  0.00    +0.000 HD
ATOM     21  H   UNL     1       3.036   1.440  23.053  0.00  0.00    +0.000 HD
ENDBRANCH   2  10
BRANCH   1  22
ATOM     22  C   UNL     1       3.142   6.382  17.365  0.00  0.00    +0.000 C 
BRANCH  22  27
ATOM     23  C   UNL     1       0.380  10.308  20.678  0.00  0.00    +0.000 C 
ATOM     24  C   UNL     1       1.125   9.311  19.841  0.00  0.00    +0.000 A 
ATOM     25  C   UNL     1       1.339   9.536  18.479  0.00  0.00    +0.000 A 
ATOM     26  C   UNL     1       2.008   8.588  17.704  0.00  0.00    +0.000 A 
ATOM     27  C   UNL     1       2.488   7.397  18.271  0.00  0.00    +0.000 A 
ATOM     28  C   UNL     1       2.256   7.170  19.635  0.00  0.00    +0.000 A 
ATOM     29  C   UNL     1       1.585   8.119  20.412  0.00  0.00    +0.000 A 
ENDBRANCH  22  27
ENDBRANCH   1  22
TORSDOF 3
ENDMDL
MODEL 7
REMARK VINA RESULT:      -7.5      5.017      8.242
REMARK  Name = 
REMARK  4 active torsions:
REMARK  status: ('A' for Active; 'I' for Inactive)
REMARK    1  A    between atoms: C_1  and  C_2
REMARK    2  A    between atoms: C_5  and  C_6
REMARK    3  A    between atoms: C_6  and  N_7
REMARK    4  A    between atoms: C_8  and  C_9
REMARK                            x       y       z     vdW  Elec       q    Type
REMARK                         _______ _______ _______ _____ _____    ______ ____
ROOT
ATOM      1  N   UNL     1       0.545   9.732  19.340  0.00  0.00    +0.000 N 
ATOM      2  C   UNL     1       0.242   9.690  20.699  0.00  0.00    +0.000 A 
ATOM      3  N   UNL     1       0.765   8.602  21.239  0.00  0.00    +0.000 NA
ATOM      4  C   UNL     1       1.518   8.006  20.253  0.00  0.00    +0.000 A 
ATOM      5  C   UNL     1       2.368   6.888  20.312  0.00  0.00    +0.000 A 
ATOM      6  C   UNL     1       3.069   6.509  19.157  0.00  0.00    +0.000 A 
ATOM      7  C   UNL     1       2.928   7.217  17.965  0.00  0.00    +0.000 A 
ATOM      8  C   UNL     1       2.082   8.325  17.888  0.00  0.00    +0.000 A 
ATOM      9  C   UNL     1       1.396   8.691  19.052  0.00  0.00    +0.000 A 
ENDROOT
BRANCH   2  10
ATOM     10  C   UNL     1      -0.317  10.886  21.405  0.00  0.00    +0.000 C 
ATOM     11  C   UNL     1      -0.695  10.753  22.885  0.00  0.00    +0.000 C 
ATOM     12  C   UNL     1      -1.816  11.804  23.069  0.00  0.00    +0.000 C 
ATOM     13  O   UNL     1      -2.852  11.532  23.645  0.00  0.00    +0.000 OA
ATOM     14  N   UNL     1      -1.542  13.062  22.556  0.00  0.00    +0.000 N 
ATOM     15  C   UNL     1      -0.349  13.293  21.907  0.00  0.00    +0.000 A 
ATOM     16  N   UNL     1       0.302  14.433  21.845  0.00  0.00    +0.000 NA
ATOM     17  N   UNL     1       1.540  14.037  21.438  0.00  0.00    +0.000 N 
ATOM     18  C   UNL     1       1.607  12.717  21.083  0.00  0.00    +0.000 A 
ATOM     19  C   UNL     1       0.364  12.207  21.344  0.00  0.00    +0.000 A 
ATOM     20  H   UNL     1      -2.157  13.845  22.749  0.00  0.00    +0.000 HD
ATOM     21  H   UNL     1       2.303  14.712  21.514  0.00  0.00    +0.000 HD
ENDBRANCH   2  10
BRANCH   1  22
ATOM     22  C   UNL     1       0.099  10.720  18.360  0.00  0.00    +0.000 C 
BRANCH  22  27
ATOM     23  C   UNL     1      -5.639  11.240  17.455  0.00  0.00    +0.000 C 
ATOM     24  C   UNL     1      -4.171  11.075  17.713  0.00  0.00    +0.000 A 
ATOM     25  C   UNL     1      -3.488  11.957  18.554  0.00  0.00    +0.000 A 
ATOM     26  C   UNL     1      -2.116  11.814  18.764  0.00  0.00    +0.000 A 
ATOM     27  C   UNL     1      -1.395  10.779  18.148  0.00  0.00    +0.000 A 
ATOM     28  C   UNL     1      -2.083   9.907  17.292  0.00  0.00    +0.000 A 
ATOM     29  C   UNL     1      -3.456  10.052  17.081  0.00  0.00    +0.000 A 
ENDBRANCH  22  27
ENDBRANCH   1  22
TORSDOF 3
ENDMDL
MODEL 8
REMARK VINA RESULT:      -7.3      8.040     10.944
REMARK  Name = 
REMARK  4 active torsions:
REMARK  status: ('A' for Active; 'I' for Inactive)
REMARK    1  A    between atoms: C_1  and  C_2
REMARK    2  A    between atoms: C_5  and  C_6
REMARK    3  A    between atoms: C_6  and  N_7
REMARK    4  A    between atoms: C_8  and  C_9
REMARK                            x       y       z     vdW  Elec       q    Type
REMARK                         _______ _______ _______ _____ _____    ______ ____
ROOT
ATOM      1  N   UNL     1      -1.978  11.728  19.329  0.00  0.00    +0.000 N 
ATOM      2  C   UNL     1      -3.050  12.397  19.913  0.00  0.00    +0.000 A 
ATOM      3  N   UNL     1      -4.070  12.422  19.072  0.00  0.00    +0.000 NA
ATOM      4  C   UNL     1      -3.699  11.654  17.992  0.00  0.00    +0.000 A 
ATOM      5  C   UNL     1      -4.438  11.259  16.864  0.00  0.00    +0.000 A 
ATOM      6  C   UNL     1      -3.831  10.420  15.916  0.00  0.00    +0.000 A 
ATOM      7  C   UNL     1      -2.516   9.987  16.077  0.00  0.00    +0.000 A 
ATOM      8  C   UNL     1      -1.766  10.378  17.188  0.00  0.00    +0.000 A 
ATOM      9  C   UNL     1      -2.392  11.209  18.126  0.00  0.00    +0.000 A 
ENDROOT
BRANCH   2  10
ATOM     10  C   UNL     1      -3.059  12.719  21.375  0.00  0.00    +0.000 C 
ATOM     11  C   UNL     1      -2.482  14.064  21.832  0.00  0.00    +0.000 C 
ATOM     12  C   UNL     1      -2.000  13.780  23.276  0.00  0.00    +0.000 C 
ATOM     13  O   UNL     1      -0.899  14.130  23.657  0.00  0.00    +0.000 OA
ATOM     14  N   UNL     1      -2.912  13.129  24.090  0.00  0.00    +0.000 N 
ATOM     15  C   UNL     1      -4.137  12.754  23.584  0.00  0.00    +0.000 A 
ATOM     16  N   UNL     1      -5.262  12.644  24.255  0.00  0.00    +0.000 NA
ATOM     17  N   UNL     1      -6.191  12.625  23.260  0.00  0.00    +0.000 N 
ATOM     18  C   UNL     1      -5.653  12.542  22.005  0.00  0.00    +0.000 A 
ATOM     19  C   UNL     1      -4.297  12.586  22.188  0.00  0.00    +0.000 A 
ATOM     20  H   UNL     1      -2.736  13.023  25.083  0.00  0.00    +0.000 HD
ATOM     21  H   UNL     1      -7.170  12.758  23.522  0.00  0.00    +0.000 HD
ENDBRANCH   2  10
BRANCH   1  22
ATOM     22  C   UNL     1      -0.638  11.540  19.884  0.00  0.00    +0.000 C 
BRANCH  22  27
ATOM     23  C   UNL     1       3.519  15.056  17.793  0.00  0.00    +0.000 C 
ATOM     24  C   UNL     1       2.438  14.145  18.293  0.00  0.00    +0.000 A 
ATOM     25  C   UNL     1       1.276  14.663  18.871  0.00  0.00    +0.000 A 
ATOM     26  C   UNL     1       0.289  13.806  19.360  0.00  0.00    +0.000 A 
ATOM     27  C   UNL     1       0.433  12.412  19.274  0.00  0.00    +0.000 A 
ATOM     28  C   UNL     1       1.608  11.899  18.707  0.00  0.00    +0.000 A 
ATOM     29  C   UNL     1       2.597  12.757  18.219  0.00  0.00    +0.000 A 
ENDBRANCH  22  27
ENDBRANCH   1  22
TORSDOF 3
ENDMDL
MODEL 9
REMARK VINA RESULT:      -7.3      2.462      5.150
REMARK  Name = 
REMARK  4 active torsions:
REMARK  status: ('A' for Active; 'I' for Inactive)
REMARK    1  A    between atoms: C_1  and  C_2
REMARK    2  A    between atoms: C_5  and  C_6
REMARK    3  A    between atoms: C_6  and  N_7
REMARK    4  A    between atoms: C_8  and  C_9
REMARK                            x       y       z     vdW  Elec       q    Type
REMARK                         _______ _______ _______ _____ _____    ______ ____
ROOT
ATOM      1  N   UNL     1       4.470   5.685  18.198  0.00  0.00    +0.000 N 
ATOM      2  C   UNL     1       4.632   4.542  18.976  0.00  0.00    +0.000 A 
ATOM      3  N   UNL     1       5.910   4.385  19.278  0.00  0.00    +0.000 NA
ATOM      4  C   UNL     1       6.558   5.502  18.801  0.00  0.00    +0.000 A 
ATOM      5  C   UNL     1       7.898   5.901  18.940  0.00  0.00    +0.000 A 
ATOM      6  C   UNL     1       8.300   7.129  18.391  0.00  0.00    +0.000 A 
ATOM      7  C   UNL     1       7.396   7.943  17.712  0.00  0.00    +0.000 A 
ATOM      8  C   UNL     1       6.063   7.557  17.557  0.00  0.00    +0.000 A 
ATOM      9  C   UNL     1       5.680   6.332  18.118  0.00  0.00    +0.000 A 
ENDROOT
BRANCH   2  10
ATOM     10  C   UNL     1       3.455   3.846  19.587  0.00  0.00    +0.000 C 
ATOM     11  C   UNL     1       2.764   4.496  20.792  0.00  0.00    +0.000 C 
ATOM     12  C   UNL     1       2.160   3.292  21.555  0.00  0.00    +0.000 C 
ATOM     13  O   UNL     1       2.294   3.173  22.758  0.00  0.00    +0.000 OA
ATOM     14  N   UNL     1       1.448   2.392  20.779  0.00  0.00    +0.000 N 
ATOM     15  C   UNL     1       1.349   2.588  19.419  0.00  0.00    +0.000 A 
ATOM     16  N   UNL     1       0.355   2.216  18.644  0.00  0.00    +0.000 NA
ATOM     17  N   UNL     1       0.569   2.959  17.523  0.00  0.00    +0.000 N 
ATOM     18  C   UNL     1       1.758   3.635  17.528  0.00  0.00    +0.000 A 
ATOM     19  C   UNL     1       2.315   3.379  18.752  0.00  0.00    +0.000 A 
ATOM     20  H   UNL     1       0.906   1.651  21.210  0.00  0.00    +0.000 HD
ATOM     21  H   UNL     1      -0.188   3.015  16.839  0.00  0.00    +0.000 HD
ENDBRANCH   2  10
BRANCH   1  22
ATOM     22  C   UNL     1       3.236   6.180  17.591  0.00  0.00    +0.000 C 
BRANCH  22  27
ATOM     23  C   UNL     1       0.477  10.599  20.212  0.00  0.00    +0.000 C 
ATOM     24  C   UNL     1       1.221   9.475  19.555  0.00  0.00    +0.000 A 
ATOM     25  C   UNL     1       1.561   9.536  18.202  0.00  0.00    +0.000 A 
ATOM     26  C   UNL     1       2.227   8.471  17.593  0.00  0.00    +0.000 A 
ATOM     27  C   UNL     1       2.579   7.325  18.324  0.00  0.00    +0.000 A 
ATOM     28  C   UNL     1       2.220   7.264  19.678  0.00  0.00    +0.000 A 
ATOM     29  C   UNL     1       1.552   8.329  20.287  0.00  0.00    +0.000 A 
ENDBRANCH  22  27
ENDBRANCH   1  22
TORSDOF 3
ENDMDL
