MODEL 1
REMARK VINA RESULT:      -8.5      0.000      0.000
REMARK  Name = 
REMARK  6 active torsions:
REMARK  status: ('A' for Active; 'I' for Inactive)
REMARK    1  A    between atoms: C_1  and  N_2
REMARK    2  A    between atoms: C_4  and  N_5
REMARK    3  A    between atoms: C_10  and  C_11
REMARK    4  A    between atoms: C_14  and  N_15
REMARK    5  A    between atoms: C_18  and  O_19
REMARK    6  A    between atoms: C_21  and  C_22
REMARK                            x       y       z     vdW  Elec       q    Type
REMARK                         _______ _______ _______ _____ _____    ______ ____
ROOT
ATOM      1  C   UNL     1       2.092   6.993  20.013  0.00  0.00    +0.000 A 
ATOM      2  C   UNL     1       1.945   7.794  18.889  0.00  0.00    +0.000 A 
ATOM      3  N   UNL     1       1.433   9.054  18.883  0.00  0.00    +0.000 NA
ATOM      4  C   UNL     1       1.036   9.619  20.048  0.00  0.00    +0.000 A 
ATOM      5  C   UNL     1       1.124   8.864  21.226  0.00  0.00    +0.000 A 
ATOM      6  C   UNL     1       1.676   7.577  21.205  0.00  0.00    +0.000 A 
ENDROOT
BRANCH   1  12
ATOM      7  N   UNL     1       5.127   3.914  18.032  0.00  0.00    +0.000 N 
ATOM      8  C   UNL     1       4.082   4.150  18.930  0.00  0.00    +0.000 A 
ATOM      9  N   UNL     1       3.683   3.124  19.690  0.00  0.00    +0.000 NA
ATOM     10  C   UNL     1       2.768   3.398  20.639  0.00  0.00    +0.000 A 
ATOM     11  C   UNL     1       2.198   4.635  20.819  0.00  0.00    +0.000 A 
ATOM     12  C   UNL     1       2.608   5.618  19.954  0.00  0.00    +0.000 A 
ATOM     13  N   UNL     1       3.557   5.386  19.027  0.00  0.00    +0.000 NA
ATOM     14  H   UNL     1       5.283   2.917  17.949  0.00  0.00    +0.000 HD
BRANCH   7  18
ATOM     15  C   UNL     1       7.918   7.870  17.559  0.00  0.00    +0.000 C 
ATOM     16  N   UNL     1       7.295   6.584  17.376  0.00  0.00    +0.000 N 
ATOM     17  C   UNL     1       6.444   5.948  18.236  0.00  0.00    +0.000 A 
ATOM     18  C   UNL     1       6.033   4.811  17.584  0.00  0.00    +0.000 A 
ATOM     19  C   UNL     1       6.720   4.846  16.353  0.00  0.00    +0.000 A 
ATOM     20  N   UNL     1       7.495   5.924  16.223  0.00  0.00    +0.000 NA
ENDBRANCH   7  18
ENDBRANCH   1  12
BRANCH   4  21
ATOM     21  N   UNL     1       0.546  10.911  19.993  0.00  0.00    +0.000 N 
ATOM     22  C   UNL     1       1.296  11.987  19.341  0.00  0.00    +0.000 C 
ATOM     23  C   UNL     1       0.264  13.026  18.930  0.00  0.00    +0.000 C 
ATOM     24  C   UNL     1      -1.035  12.245  18.829  0.00  0.00    +0.000 C 
ATOM     25  C   UNL     1      -0.893  11.175  19.922  0.00  0.00    +0.000 C 
BRANCH  24  26
ATOM     26  O   UNL     1      -2.156  13.100  19.013  0.00  0.00    +0.000 OA
ATOM     27  H   UNL     1      -2.802  12.642  19.578  0.00  0.00    +0.000 HD
ENDBRANCH  24  26
ENDBRANCH   4  21
BRANCH   5  28
ATOM     28  C   UNL     1       0.611   9.306  22.480  0.00  0.00    +0.000 C 
ATOM     29  N   UNL     1       0.197   9.690  23.500  0.00  0.00    +0.000 NA
ENDBRANCH   5  28
TORSDOF 5
ENDMDL
MODEL 2
REMARK VINA RESULT:      -8.2      0.929      1.268
REMARK  Name = 
REMARK  6 active torsions:
REMARK  status: ('A' for Active; 'I' for Inactive)
REMARK    1  A    between atoms: C_1  and  N_2
REMARK    2  A    between atoms: C_4  and  N_5
REMARK    3  A    between atoms: C_10  and  C_11
REMARK    4  A    between atoms: C_14  and  N_15
REMARK    5  A    between atoms: C_18  and  O_19
REMARK    6  A    between atoms: C_21  and  C_22
REMARK                            x       y       z     vdW  Elec       q    Type
REMARK                         _______ _______ _______ _____ _____    ______ ____
ROOT
ATOM      1  C   UNL     1       2.113   6.757  19.981  0.00  0.00    +0.000 A 
ATOM      2  C   UNL     1       2.091   7.508  18.814  0.00  0.00    +0.000 A 
ATOM      3  N   UNL     1       1.690   8.805  18.721  0.00  0.00    +0.000 NA
ATOM      4  C   UNL     1       1.287   9.460  19.835  0.00  0.00    +0.000 A 
ATOM      5  C   UNL     1       1.251   8.762  21.050  0.00  0.00    +0.000 A 
ATOM      6  C   UNL     1       1.691   7.435  21.119  0.00  0.00    +0.000 A 
ENDROOT
BRANCH   1  12
ATOM      7  N   UNL     1       4.542   3.209  17.948  0.00  0.00    +0.000 N 
ATOM      8  C   UNL     1       3.682   3.639  18.964  0.00  0.00    +0.000 A 
ATOM      9  N   UNL     1       3.344   2.746  19.902  0.00  0.00    +0.000 NA
ATOM     10  C   UNL     1       2.624   3.209  20.941  0.00  0.00    +0.000 A 
ATOM     11  C   UNL     1       2.183   4.505  21.052  0.00  0.00    +0.000 A 
ATOM     12  C   UNL     1       2.512   5.343  20.015  0.00  0.00    +0.000 A 
ATOM     13  N   UNL     1       3.272   4.921  18.986  0.00  0.00    +0.000 NA
ATOM     14  H   UNL     1       4.609   2.199  17.969  0.00  0.00    +0.000 HD
BRANCH   7  18
ATOM     15  C   UNL     1       7.146   5.190  14.350  0.00  0.00    +0.000 C 
ATOM     16  N   UNL     1       6.586   4.862  15.636  0.00  0.00    +0.000 N 
ATOM     17  C   UNL     1       5.506   4.061  15.886  0.00  0.00    +0.000 A 
ATOM     18  C   UNL     1       5.421   3.963  17.253  0.00  0.00    +0.000 A 
ATOM     19  C   UNL     1       6.478   4.766  17.728  0.00  0.00    +0.000 A 
ATOM     20  N   UNL     1       7.189   5.321  16.745  0.00  0.00    +0.000 NA
ENDBRANCH   7  18
ENDBRANCH   1  12
BRANCH   4  21
ATOM     21  N   UNL     1       0.913  10.784  19.693  0.00  0.00    +0.000 N 
ATOM     22  C   UNL     1       1.723  11.729  18.922  0.00  0.00    +0.000 C 
ATOM     23  C   UNL     1       0.769  12.824  18.469  0.00  0.00    +0.000 C 
ATOM     24  C   UNL     1      -0.598  12.164  18.488  0.00  0.00    +0.000 C 
ATOM     25  C   UNL     1      -0.499  11.175  19.659  0.00  0.00    +0.000 C 
BRANCH  24  26
ATOM     26  O   UNL     1      -1.627  13.131  18.646  0.00  0.00    +0.000 OA
ATOM     27  H   UNL     1      -1.408  13.690  19.411  0.00  0.00    +0.000 HD
ENDBRANCH  24  26
ENDBRANCH   4  21
BRANCH   5  28
ATOM     28  C   UNL     1       0.716   9.311  22.252  0.00  0.00    +0.000 C 
ATOM     29  N   UNL     1       0.292   9.778  23.233  0.00  0.00    +0.000 NA
ENDBRANCH   5  28
TORSDOF 5
ENDMDL
MODEL 3
REMARK VINA RESULT:      -8.1      0.962      1.206
REMARK  Name = 
REMARK  6 active torsions:
REMARK  status: ('A' for Active; 'I' for Inactive)
REMARK    1  A    between atoms: C_1  and  N_2
REMARK    2  A    between atoms: C_4  and  N_5
REMARK    3  A    between atoms: C_10  and  C_11
REMARK    4  A    between atoms: C_14  and  N_15
REMARK    5  A    between atoms: C_18  and  O_19
REMARK    6  A    between atoms: C_21  and  C_22
REMARK                            x       y       z     vdW  Elec       q    Type
REMARK                         _______ _______ _______ _____ _____    ______ ____
ROOT
ATOM      1  C   UNL     1       2.045   7.105  20.007  0.00  0.00    +0.000 A 
ATOM      2  C   UNL     1       1.932   7.917  18.887  0.00  0.00    +0.000 A 
ATOM      3  N   UNL     1       1.425   9.179  18.879  0.00  0.00    +0.000 NA
ATOM      4  C   UNL     1       0.999   9.735  20.037  0.00  0.00    +0.000 A 
ATOM      5  C   UNL     1       1.051   8.968  21.210  0.00  0.00    +0.000 A 
ATOM      6  C   UNL     1       1.598   7.680  21.192  0.00  0.00    +0.000 A 
ENDROOT
BRANCH   1  12
ATOM      7  N   UNL     1       5.079   4.018  18.036  0.00  0.00    +0.000 N 
ATOM      8  C   UNL     1       4.030   4.256  18.930  0.00  0.00    +0.000 A 
ATOM      9  N   UNL     1       3.625   3.231  19.689  0.00  0.00    +0.000 NA
ATOM     10  C   UNL     1       2.707   3.508  20.634  0.00  0.00    +0.000 A 
ATOM     11  C   UNL     1       2.141   4.746  20.813  0.00  0.00    +0.000 A 
ATOM     12  C   UNL     1       2.557   5.729  19.950  0.00  0.00    +0.000 A 
ATOM     13  N   UNL     1       3.509   5.494  19.026  0.00  0.00    +0.000 NA
ATOM     14  H   UNL     1       5.232   3.021  17.954  0.00  0.00    +0.000 HD
BRANCH   7  18
ATOM     15  C   UNL     1       7.949   7.923  17.627  0.00  0.00    +0.000 C 
ATOM     16  N   UNL     1       7.286   6.662  17.411  0.00  0.00    +0.000 N 
ATOM     17  C   UNL     1       6.454   6.008  18.276  0.00  0.00    +0.000 A 
ATOM     18  C   UNL     1       5.988   4.913  17.592  0.00  0.00    +0.000 A 
ATOM     19  C   UNL     1       6.627   4.987  16.337  0.00  0.00    +0.000 A 
ATOM     20  N   UNL     1       7.424   6.050  16.223  0.00  0.00    +0.000 NA
ENDBRANCH   7  18
ENDBRANCH   1  12
BRANCH   4  21
ATOM     21  N   UNL     1       0.516  11.029  19.981  0.00  0.00    +0.000 N 
ATOM     22  C   UNL     1      -0.922  11.310  19.979  0.00  0.00    +0.000 C 
ATOM     23  C   UNL     1      -1.073  12.722  20.523  0.00  0.00    +0.000 C 
ATOM     24  C   UNL     1       0.185  12.944  21.345  0.00  0.00    +0.000 C 
ATOM     25  C   UNL     1       1.253  12.142  20.587  0.00  0.00    +0.000 C 
BRANCH  24  26
ATOM     26  O   UNL     1       0.483  14.330  21.451  0.00  0.00    +0.000 OA
ATOM     27  H   UNL     1       1.350  14.490  21.040  0.00  0.00    +0.000 HD
ENDBRANCH  24  26
ENDBRANCH   4  21
BRANCH   5  28
ATOM     28  C   UNL     1       0.506   9.402  22.454  0.00  0.00    +0.000 C 
ATOM     29  N   UNL     1       0.080   9.765  23.477  0.00  0.00    +0.000 NA
ENDBRANCH   5  28
TORSDOF 5
ENDMDL
MODEL 4
REMARK VINA RESULT:      -8.1      1.364      1.798
REMARK  Name = 
REMARK  6 active torsions:
REMARK  status: ('A' for Active; 'I' for Inactive)
REMARK    1  A    between atoms: C_1  and  N_2
REMARK    2  A    between atoms: C_4  and  N_5
REMARK    3  A    between atoms: C_10  and  C_11
REMARK    4  A    between atoms: C_14  and  N_15
REMARK    5  A    between atoms: C_18  and  O_19
REMARK    6  A    between atoms: C_21  and  C_22
REMARK                            x       y       z     vdW  Elec       q    Type
REMARK                         _______ _______ _______ _____ _____    ______ ____
ROOT
ATOM      1  C   UNL     1       2.137   7.106  19.457  0.00  0.00    +0.000 A 
ATOM      2  C   UNL     1       2.156   7.686  18.195  0.00  0.00    +0.000 A 
ATOM      3  N   UNL     1       1.759   8.954  17.907  0.00  0.00    +0.000 NA
ATOM      4  C   UNL     1       1.317   9.759  18.903  0.00  0.00    +0.000 A 
ATOM      5  C   UNL     1       1.239   9.238  20.202  0.00  0.00    +0.000 A 
ATOM      6  C   UNL     1       1.676   7.936  20.473  0.00  0.00    +0.000 A 
ENDROOT
BRANCH   1  12
ATOM      7  N   UNL     1       4.634   3.318  18.029  0.00  0.00    +0.000 N 
ATOM      8  C   UNL     1       3.740   3.884  18.944  0.00  0.00    +0.000 A 
ATOM      9  N   UNL     1       3.369   3.130  19.986  0.00  0.00    +0.000 NA
ATOM     10  C   UNL     1       2.613   3.732  20.924  0.00  0.00    +0.000 A 
ATOM     11  C   UNL     1       2.170   5.028  20.836  0.00  0.00    +0.000 A 
ATOM     12  C   UNL     1       2.534   5.713  19.704  0.00  0.00    +0.000 A 
ATOM     13  N   UNL     1       3.329   5.154  18.771  0.00  0.00    +0.000 NA
ATOM     14  H   UNL     1       4.700   2.322  18.194  0.00  0.00    +0.000 HD
BRANCH   7  18
ATOM     15  C   UNL     1       7.163   5.007  14.233  0.00  0.00    +0.000 C 
ATOM     16  N   UNL     1       6.668   4.738  15.559  0.00  0.00    +0.000 N 
ATOM     17  C   UNL     1       5.527   4.064  15.895  0.00  0.00    +0.000 A 
ATOM     18  C   UNL     1       5.537   3.971  17.265  0.00  0.00    +0.000 A 
ATOM     19  C   UNL     1       6.711   4.648  17.654  0.00  0.00    +0.000 A 
ATOM     20  N   UNL     1       7.402   5.123  16.617  0.00  0.00    +0.000 NA
ENDBRANCH   7  18
ENDBRANCH   1  12
BRANCH   4  21
ATOM     21  N   UNL     1       0.948  11.047  18.563  0.00  0.00    +0.000 N 
ATOM     22  C   UNL     1      -0.453  11.472  18.580  0.00  0.00    +0.000 C 
ATOM     23  C   UNL     1      -0.429  12.980  18.772  0.00  0.00    +0.000 C 
ATOM     24  C   UNL     1       0.908  13.254  19.436  0.00  0.00    +0.000 C 
ATOM     25  C   UNL     1       1.831  12.185  18.832  0.00  0.00    +0.000 C 
BRANCH  24  26
ATOM     26  O   UNL     1       1.338  14.585  19.183  0.00  0.00    +0.000 OA
ATOM     27  H   UNL     1       2.293  14.638  19.356  0.00  0.00    +0.000 HD
ENDBRANCH  24  26
ENDBRANCH   4  21
BRANCH   5  28
ATOM     28  C   UNL     1       0.663   9.948  21.296  0.00  0.00    +0.000 C 
ATOM     29  N   UNL     1       0.213  10.530  22.201  0.00  0.00    +0.000 NA
ENDBRANCH   5  28
TORSDOF 5
ENDMDL
MODEL 5
REMARK VINA RESULT:      -8.0      3.199      8.228
REMARK  Name = 
REMARK  6 active torsions:
REMARK  status: ('A' for Active; 'I' for Inactive)
REMARK    1  A    between atoms: C_1  and  N_2
REMARK    2  A    between atoms: C_4  and  N_5
REMARK    3  A    between atoms: C_10  and  C_11
REMARK    4  A    between atoms: C_14  and  N_15
REMARK    5  A    between atoms: C_18  and  O_19
REMARK    6  A    between atoms: C_21  and  C_22
REMARK                            x       y       z     vdW  Elec       q    Type
REMARK                         _______ _______ _______ _____ _____    ______ ____
ROOT
ATOM      1  C   UNL     1       1.328   7.770  20.608  0.00  0.00    +0.000 A 
ATOM      2  C   UNL     1       2.116   7.947  19.479  0.00  0.00    +0.000 A 
ATOM      3  N   UNL     1       2.872   6.983  18.889  0.00  0.00    +0.000 NA
ATOM      4  C   UNL     1       2.876   5.730  19.402  0.00  0.00    +0.000 A 
ATOM      5  C   UNL     1       2.129   5.476  20.561  0.00  0.00    +0.000 A 
ATOM      6  C   UNL     1       1.342   6.483  21.134  0.00  0.00    +0.000 A 
ENDROOT
BRANCH   1  12
ATOM      7  N   UNL     1      -1.447  11.588  20.026  0.00  0.00    +0.000 N 
ATOM      8  C   UNL     1      -0.753  10.737  20.892  0.00  0.00    +0.000 A 
ATOM      9  N   UNL     1      -0.885  10.957  22.205  0.00  0.00    +0.000 NA
ATOM     10  C   UNL     1      -0.318  10.053  23.026  0.00  0.00    +0.000 A 
ATOM     11  C   UNL     1       0.419   8.979  22.592  0.00  0.00    +0.000 A 
ATOM     12  C   UNL     1       0.567   8.862  21.232  0.00  0.00    +0.000 A 
ATOM     13  N   UNL     1      -0.029   9.722  20.385  0.00  0.00    +0.000 NA
ATOM     14  H   UNL     1      -1.786  12.390  20.542  0.00  0.00    +0.000 HD
BRANCH   7  18
ATOM     15  C   UNL     1      -4.309  11.118  16.122  0.00  0.00    +0.000 C 
ATOM     16  N   UNL     1      -3.195  11.087  17.034  0.00  0.00    +0.000 N 
ATOM     17  C   UNL     1      -3.113  11.690  18.258  0.00  0.00    +0.000 A 
ATOM     18  C   UNL     1      -1.913  11.290  18.794  0.00  0.00    +0.000 A 
ATOM     19  C   UNL     1      -1.341  10.473  17.797  0.00  0.00    +0.000 A 
ATOM     20  N   UNL     1      -2.117  10.350  16.719  0.00  0.00    +0.000 NA
ENDBRANCH   7  18
ENDBRANCH   1  12
BRANCH   4  21
ATOM     21  N   UNL     1       3.640   4.779  18.752  0.00  0.00    +0.000 N 
ATOM     22  C   UNL     1       3.149   4.087  17.558  0.00  0.00    +0.000 C 
ATOM     23  C   UNL     1       4.387   3.636  16.798  0.00  0.00    +0.000 C 
ATOM     24  C   UNL     1       5.480   4.582  17.264  0.00  0.00    +0.000 C 
ATOM     25  C   UNL     1       5.103   4.870  18.725  0.00  0.00    +0.000 C 
BRANCH  24  26
ATOM     26  O   UNL     1       6.762   3.988  17.114  0.00  0.00    +0.000 OA
ATOM     27  H   UNL     1       7.125   3.811  18.000  0.00  0.00    +0.000 HD
ENDBRANCH  24  26
ENDBRANCH   4  21
BRANCH   5  28
ATOM     28  C   UNL     1       2.167   4.235  21.261  0.00  0.00    +0.000 C 
ATOM     29  N   UNL     1       2.195   3.230  21.852  0.00  0.00    +0.000 NA
ENDBRANCH   5  28
TORSDOF 5
ENDMDL
MODEL 6
REMARK VINA RESULT:      -8.0      0.997      1.866
REMARK  Name = 
REMARK  6 active torsions:
REMARK  status: ('A' for Active; 'I' for Inactive)
REMARK    1  A    between atoms: C_1  and  N_2
REMARK    2  A    between atoms: C_4  and  N_5
REMARK    3  A    between atoms: C_10  and  C_11
REMARK    4  A    between atoms: C_14  and  N_15
REMARK    5  A    between atoms: C_18  and  O_19
REMARK    6  A    between atoms: C_21  and  C_22
REMARK                            x       y       z     vdW  Elec       q    Type
REMARK                         _______ _______ _______ _____ _____    ______ ____
ROOT
ATOM      1  C   UNL     1       2.055   6.575  20.050  0.00  0.00    +0.000 A 
ATOM      2  C   UNL     1       1.257   6.982  21.111  0.00  0.00    +0.000 A 
ATOM      3  N   UNL     1       0.675   8.205  21.233  0.00  0.00    +0.000 NA
ATOM      4  C   UNL     1       0.847   9.128  20.257  0.00  0.00    +0.000 A 
ATOM      5  C   UNL     1       1.666   8.805  19.164  0.00  0.00    +0.000 A 
ATOM      6  C   UNL     1       2.234   7.530  19.055  0.00  0.00    +0.000 A 
ENDROOT
BRANCH   1  12
ATOM      7  N   UNL     1       5.360   3.792  18.063  0.00  0.00    +0.000 N 
ATOM      8  C   UNL     1       4.300   3.930  18.966  0.00  0.00    +0.000 A 
ATOM      9  N   UNL     1       4.004   2.873  19.730  0.00  0.00    +0.000 NA
ATOM     10  C   UNL     1       3.070   3.063  20.682  0.00  0.00    +0.000 A 
ATOM     11  C   UNL     1       2.387   4.240  20.862  0.00  0.00    +0.000 A 
ATOM     12  C   UNL     1       2.699   5.256  19.993  0.00  0.00    +0.000 A 
ATOM     13  N   UNL     1       3.662   5.112  19.062  0.00  0.00    +0.000 NA
ATOM     14  H   UNL     1       5.609   2.815  17.982  0.00  0.00    +0.000 HD
BRANCH   7  18
ATOM     15  C   UNL     1       7.910   7.915  17.668  0.00  0.00    +0.000 C 
ATOM     16  N   UNL     1       7.329   6.618  17.434  0.00  0.00    +0.000 N 
ATOM     17  C   UNL     1       6.599   5.868  18.314  0.00  0.00    +0.000 A 
ATOM     18  C   UNL     1       6.174   4.770  17.609  0.00  0.00    +0.000 A 
ATOM     19  C   UNL     1       6.730   4.942  16.324  0.00  0.00    +0.000 A 
ATOM     20  N   UNL     1       7.440   6.067  16.214  0.00  0.00    +0.000 NA
ENDBRANCH   7  18
ENDBRANCH   1  12
BRANCH   4  21
ATOM     21  N   UNL     1       0.215  10.347  20.415  0.00  0.00    +0.000 N 
ATOM     22  C   UNL     1       0.950  11.541  20.835  0.00  0.00    +0.000 C 
ATOM     23  C   UNL     1       0.150  12.727  20.318  0.00  0.00    +0.000 C 
ATOM     24  C   UNL     1      -0.646  12.165  19.154  0.00  0.00    +0.000 C 
ATOM     25  C   UNL     1      -0.935  10.719  19.585  0.00  0.00    +0.000 C 
BRANCH  24  26
ATOM     26  O   UNL     1      -1.819  12.934  18.923  0.00  0.00    +0.000 OA
ATOM     27  H   UNL     1      -2.144  12.737  18.027  0.00  0.00    +0.000 HD
ENDBRANCH  24  26
ENDBRANCH   4  21
BRANCH   5  28
ATOM     28  C   UNL     1       2.025   9.742  18.152  0.00  0.00    +0.000 C 
ATOM     29  N   UNL     1       2.329  10.522  17.340  0.00  0.00    +0.000 NA
ENDBRANCH   5  28
TORSDOF 5
ENDMDL
MODEL 7
REMARK VINA RESULT:      -7.8      1.048      1.242
REMARK  Name = 
REMARK  6 active torsions:
REMARK  status: ('A' for Active; 'I' for Inactive)
REMARK    1  A    between atoms: C_1  and  N_2
REMARK    2  A    between atoms: C_4  and  N_5
REMARK    3  A    between atoms: C_10  and  C_11
REMARK    4  A    between atoms: C_14  and  N_15
REMARK    5  A    between atoms: C_18  and  O_19
REMARK    6  A    between atoms: C_21  and  C_22
REMARK                            x       y       z     vdW  Elec       q    Type
REMARK                         _______ _______ _______ _____ _____    ______ ____
ROOT
ATOM      1  C   UNL     1       1.765   7.555  20.127  0.00  0.00    +0.000 A 
ATOM      2  C   UNL     1       1.797   8.423  19.045  0.00  0.00    +0.000 A 
ATOM      3  N   UNL     1       1.335   9.702  19.049  0.00  0.00    +0.000 NA
ATOM      4  C   UNL     1       0.805  10.218  20.184  0.00  0.00    +0.000 A 
ATOM      5  C   UNL     1       0.708   9.394  21.315  0.00  0.00    +0.000 A 
ATOM      6  C   UNL     1       1.213   8.089  21.287  0.00  0.00    +0.000 A 
ENDROOT
BRANCH   1  12
ATOM      7  N   UNL     1       5.157   4.524  18.741  0.00  0.00    +0.000 N 
ATOM      8  C   UNL     1       3.902   4.727  19.325  0.00  0.00    +0.000 A 
ATOM      9  N   UNL     1       3.270   3.652  19.809  0.00  0.00    +0.000 NA
ATOM     10  C   UNL     1       2.126   3.879  20.481  0.00  0.00    +0.000 A 
ATOM     11  C   UNL     1       1.564   5.122  20.639  0.00  0.00    +0.000 A 
ATOM     12  C   UNL     1       2.237   6.165  20.054  0.00  0.00    +0.000 A 
ATOM     13  N   UNL     1       3.408   5.975  19.416  0.00  0.00    +0.000 NA
ATOM     14  H   UNL     1       5.302   3.534  18.587  0.00  0.00    +0.000 HD
BRANCH   7  18
ATOM     15  C   UNL     1       8.079   8.180  17.416  0.00  0.00    +0.000 C 
ATOM     16  N   UNL     1       7.489   7.055  18.095  0.00  0.00    +0.000 N 
ATOM     17  C   UNL     1       6.249   6.519  17.882  0.00  0.00    +0.000 A 
ATOM     18  C   UNL     1       6.179   5.406  18.683  0.00  0.00    +0.000 A 
ATOM     19  C   UNL     1       7.417   5.382  19.358  0.00  0.00    +0.000 A 
ATOM     20  N   UNL     1       8.218   6.390  19.007  0.00  0.00    +0.000 NA
ENDBRANCH   7  18
ENDBRANCH   1  12
BRANCH   4  21
ATOM     21  N   UNL     1       0.372  11.530  20.144  0.00  0.00    +0.000 N 
ATOM     22  C   UNL     1       1.207  12.627  20.638  0.00  0.00    +0.000 C 
ATOM     23  C   UNL     1       0.735  13.874  19.907  0.00  0.00    +0.000 C 
ATOM     24  C   UNL     1       0.090  13.344  18.638  0.00  0.00    +0.000 C 
ATOM     25  C   UNL     1      -0.518  12.004  19.080  0.00  0.00    +0.000 C 
BRANCH  24  26
ATOM     26  O   UNL     1      -0.868  14.264  18.133  0.00  0.00    +0.000 OA
ATOM     27  H   UNL     1      -0.546  14.607  17.282  0.00  0.00    +0.000 HD
ENDBRANCH  24  26
ENDBRANCH   4  21
BRANCH   5  28
ATOM     28  C   UNL     1       0.048   9.788  22.514  0.00  0.00    +0.000 C 
ATOM     29  N   UNL     1      -0.502  10.089  23.498  0.00  0.00    +0.000 NA
ENDBRANCH   5  28
TORSDOF 5
ENDMDL
MODEL 8
REMARK VINA RESULT:      -7.8      1.397      2.228
REMARK  Name = 
REMARK  6 active torsions:
REMARK  status: ('A' for Active; 'I' for Inactive)
REMARK    1  A    between atoms: C_1  and  N_2
REMARK    2  A    between atoms: C_4  and  N_5
REMARK    3  A    between atoms: C_10  and  C_11
REMARK    4  A    between atoms: C_14  and  N_15
REMARK    5  A    between atoms: C_18  and  O_19
REMARK    6  A    between atoms: C_21  and  C_22
REMARK                            x       y       z     vdW  Elec       q    Type
REMARK                         _______ _______ _______ _____ _____    ______ ____
ROOT
ATOM      1  C   UNL     1       2.082   6.567  20.039  0.00  0.00    +0.000 A 
ATOM      2  C   UNL     1       1.321   6.974  21.126  0.00  0.00    +0.000 A 
ATOM      3  N   UNL     1       0.765   8.206  21.279  0.00  0.00    +0.000 NA
ATOM      4  C   UNL     1       0.927   9.137  20.310  0.00  0.00    +0.000 A 
ATOM      5  C   UNL     1       1.710   8.814  19.191  0.00  0.00    +0.000 A 
ATOM      6  C   UNL     1       2.251   7.531  19.051  0.00  0.00    +0.000 A 
ENDROOT
BRANCH   1  12
ATOM      7  N   UNL     1       5.326   3.769  17.974  0.00  0.00    +0.000 N 
ATOM      8  C   UNL     1       4.272   3.905  18.883  0.00  0.00    +0.000 A 
ATOM      9  N   UNL     1       3.956   2.836  19.622  0.00  0.00    +0.000 NA
ATOM     10  C   UNL     1       3.029   3.020  20.581  0.00  0.00    +0.000 A 
ATOM     11  C   UNL     1       2.369   4.206  20.791  0.00  0.00    +0.000 A 
ATOM     12  C   UNL     1       2.699   5.236  19.947  0.00  0.00    +0.000 A 
ATOM     13  N   UNL     1       3.657   5.096  19.010  0.00  0.00    +0.000 NA
ATOM     14  H   UNL     1       5.556   2.789  17.869  0.00  0.00    +0.000 HD
BRANCH   7  18
ATOM     15  C   UNL     1       7.892   7.887  17.634  0.00  0.00    +0.000 C 
ATOM     16  N   UNL     1       7.320   6.587  17.392  0.00  0.00    +0.000 N 
ATOM     17  C   UNL     1       6.555   5.848  18.251  0.00  0.00    +0.000 A 
ATOM     18  C   UNL     1       6.159   4.741  17.542  0.00  0.00    +0.000 A 
ATOM     19  C   UNL     1       6.766   4.898  16.279  0.00  0.00    +0.000 A 
ATOM     20  N   UNL     1       7.480   6.021  16.184  0.00  0.00    +0.000 NA
ENDBRANCH   7  18
ENDBRANCH   1  12
BRANCH   4  21
ATOM     21  N   UNL     1       0.322  10.365  20.500  0.00  0.00    +0.000 N 
ATOM     22  C   UNL     1      -0.878  10.750  19.755  0.00  0.00    +0.000 C 
ATOM     23  C   UNL     1      -1.584  11.793  20.610  0.00  0.00    +0.000 C 
ATOM     24  C   UNL     1      -1.092  11.518  22.020  0.00  0.00    +0.000 C 
ATOM     25  C   UNL     1       0.349  11.031  21.806  0.00  0.00    +0.000 C 
BRANCH  24  26
ATOM     26  O   UNL     1      -1.184  12.685  22.825  0.00  0.00    +0.000 OA
ATOM     27  H   UNL     1      -0.362  12.769  23.340  0.00  0.00    +0.000 HD
ENDBRANCH  24  26
ENDBRANCH   4  21
BRANCH   5  28
ATOM     28  C   UNL     1       2.058   9.758  18.182  0.00  0.00    +0.000 C 
ATOM     29  N   UNL     1       2.327  10.543  17.363  0.00  0.00    +0.000 NA
ENDBRANCH   5  28
TORSDOF 5
ENDMDL
MODEL 9
REMARK VINA RESULT:      -7.6      3.559      8.316
REMARK  Name = 
REMARK  6 active torsions:
REMARK  status: ('A' for Active; 'I' for Inactive)
REMARK    1  A    between atoms: C_1  and  N_2
REMARK    2  A    between atoms: C_4  and  N_5
REMARK    3  A    between atoms: C_10  and  C_11
REMARK    4  A    between atoms: C_14  and  N_15
REMARK    5  A    between atoms: C_18  and  O_19
REMARK    6  A    between atoms: C_21  and  C_22
REMARK                            x       y       z     vdW  Elec       q    Type
REMARK                         _______ _______ _______ _____ _____    ______ ____
ROOT
ATOM      1  C   UNL     1       1.574   8.409  19.655  0.00  0.00    +0.000 A 
ATOM      2  C   UNL     1       2.476   8.453  18.601  0.00  0.00    +0.000 A 
ATOM      3  N   UNL     1       3.278   7.426  18.209  0.00  0.00    +0.000 NA
ATOM      4  C   UNL     1       3.214   6.242  18.862  0.00  0.00    +0.000 A 
ATOM      5  C   UNL     1       2.349   6.125  19.960  0.00  0.00    +0.000 A 
ATOM      6  C   UNL     1       1.519   7.192  20.326  0.00  0.00    +0.000 A 
ENDROOT
BRANCH   1  12
ATOM      7  N   UNL     1      -1.775  11.586  18.515  0.00  0.00    +0.000 N 
ATOM      8  C   UNL     1      -0.846  11.114  19.446  0.00  0.00    +0.000 A 
ATOM      9  N   UNL     1      -0.812  11.717  20.640  0.00  0.00    +0.000 NA
ATOM     10  C   UNL     1      -0.005  11.168  21.568  0.00  0.00    +0.000 A 
ATOM     11  C   UNL     1       0.805  10.084  21.336  0.00  0.00    +0.000 A 
ATOM     12  C   UNL     1       0.765   9.565  20.066  0.00  0.00    +0.000 A 
ATOM     13  N   UNL     1      -0.066  10.062  19.130  0.00  0.00    +0.000 NA
ATOM     14  H   UNL     1      -2.146  12.474  18.829  0.00  0.00    +0.000 HD
BRANCH   7  18
ATOM     15  C   UNL     1      -3.533  10.185  14.201  0.00  0.00    +0.000 C 
ATOM     16  N   UNL     1      -3.153  10.244  15.589  0.00  0.00    +0.000 N 
ATOM     17  C   UNL     1      -2.355  11.177  16.189  0.00  0.00    +0.000 A 
ATOM     18  C   UNL     1      -2.371  10.879  17.530  0.00  0.00    +0.000 A 
ATOM     19  C   UNL     1      -3.184   9.731  17.623  0.00  0.00    +0.000 A 
ATOM     20  N   UNL     1      -3.660   9.336  16.440  0.00  0.00    +0.000 NA
ENDBRANCH   7  18
ENDBRANCH   1  12
BRANCH   4  21
ATOM     21  N   UNL     1       4.031   5.222  18.410  0.00  0.00    +0.000 N 
ATOM     22  C   UNL     1       3.920   4.701  17.046  0.00  0.00    +0.000 C 
ATOM     23  C   UNL     1       5.278   4.101  16.717  0.00  0.00    +0.000 C 
ATOM     24  C   UNL     1       6.242   4.820  17.645  0.00  0.00    +0.000 C 
ATOM     25  C   UNL     1       5.401   5.071  18.906  0.00  0.00    +0.000 C 
BRANCH  24  26
ATOM     26  O   UNL     1       7.401   4.033  17.881  0.00  0.00    +0.000 OA
ATOM     27  H   UNL     1       7.436   3.328  17.211  0.00  0.00    +0.000 HD
ENDBRANCH  24  26
ENDBRANCH   4  21
BRANCH   5  28
ATOM     28  C   UNL     1       2.301   4.975  20.799  0.00  0.00    +0.000 C 
ATOM     29  N   UNL     1       2.280   4.025  21.476  0.00  0.00    +0.000 NA
ENDBRANCH   5  28
TORSDOF 5
ENDMDL
