MODEL 1
REMARK VINA RESULT:      -8.9      0.000      0.000
REMARK  Name = 
REMARK  10 active torsions:
REMARK  status: ('A' for Active; 'I' for Inactive)
REMARK    1  A    between atoms: C_1  and  O_2
REMARK    2  A    between atoms: O_2  and  C_3
REMARK    3  A    between atoms: C_3  and  C_5
REMARK    4  A    between atoms: C_5  and  C_27
REMARK    5  A    between atoms: C_6  and  C_7
REMARK    6  A    between atoms: C_10  and  C_11
REMARK    7  A    between atoms: C_15  and  C_16
REMARK    8  A    between atoms: N_18  and  C_19
REMARK    9  A    between atoms: C_19  and  C_20
REMARK   10  A    between atoms: C_19  and  C_21
REMARK                            x       y       z     vdW  Elec       q    Type
REMARK                         _______ _______ _______ _____ _____    ______ ____
ROOT
ATOM      1  C   UNL     1       2.058   7.543  19.649  0.00  0.00    +0.000 A 
ATOM      2  N   UNL     1       1.666   8.712  19.174  0.00  0.00    +0.000 NA
ATOM      3  C   UNL     1       1.060   9.363  20.229  0.00  0.00    +0.000 A 
ATOM      4  C   UNL     1       0.489  10.648  20.299  0.00  0.00    +0.000 A 
ATOM      5  C   UNL     1      -0.044  11.106  21.523  0.00  0.00    +0.000 A 
ATOM      6  C   UNL     1      -0.003  10.257  22.645  0.00  0.00    +0.000 A 
ATOM      7  C   UNL     1       0.552   8.969  22.591  0.00  0.00    +0.000 A 
ATOM      8  C   UNL     1       1.075   8.568  21.366  0.00  0.00    +0.000 A 
ATOM      9  N   UNL     1       1.701   7.416  20.969  0.00  0.00    +0.000 N 
ATOM     10  H   UNL     1       1.900   6.611  21.544  0.00  0.00    +0.000 HD
ENDROOT
BRANCH   1  14
ATOM     11  C   UNL     1       4.138   5.267  17.247  0.00  0.00    +0.000 A 
ATOM     12  C   UNL     1       3.621   4.460  18.243  0.00  0.00    +0.000 A 
ATOM     13  C   UNL     1       2.823   5.183  19.185  0.00  0.00    +0.000 A 
ATOM     14  C   UNL     1       2.781   6.537  18.918  0.00  0.00    +0.000 A 
ATOM     15  S   UNL     1       3.713   6.910  17.526  0.00  0.00    +0.000 S 
BRANCH  11  17
ATOM     16  C   UNL     1       6.193   5.135  15.905  0.00  0.00    +0.000 C 
ATOM     17  C   UNL     1       4.872   4.912  16.075  0.00  0.00    +0.000 C 
BRANCH  16  18
ATOM     18  C   UNL     1       7.011   5.739  16.975  0.00  0.00    +0.000 A 
ATOM     19  C   UNL     1       7.422   4.977  18.076  0.00  0.00    +0.000 A 
ATOM     20  C   UNL     1       8.052   5.595  19.158  0.00  0.00    +0.000 A 
ATOM     21  C   UNL     1       8.292   6.969  19.135  0.00  0.00    +0.000 A 
ATOM     22  C   UNL     1       7.938   7.720  18.016  0.00  0.00    +0.000 A 
ATOM     23  C   UNL     1       7.302   7.108  16.937  0.00  0.00    +0.000 A 
ENDBRANCH  16  18
BRANCH  16  24
ATOM     24  C   UNL     1       6.857   4.763  14.614  0.00  0.00    +0.000 C 
ATOM     25  O   UNL     1       7.715   5.449  14.074  0.00  0.00    +0.000 OA
BRANCH  24  27
ATOM     26  C   UNL     1       6.216   3.613  12.678  0.00  0.00    +0.000 C 
ATOM     27  O   UNL     1       6.351   3.609  14.103  0.00  0.00    +0.000 OA
ENDBRANCH  24  27
ENDBRANCH  16  24
ENDBRANCH  11  17
ENDBRANCH   1  14
BRANCH   5  28
ATOM     28  C   UNL     1      -0.553  12.532  21.644  0.00  0.00    +0.000 C 
ATOM     29  N   UNL     1      -0.630  13.331  20.624  0.00  0.00    +0.000 NA
ATOM     30  N   UNL     1      -0.994  12.998  22.861  0.00  0.00    +0.000 N 
ATOM     31  H   UNL     1      -0.288  12.926  19.759  0.00  0.00    +0.000 HD
ATOM     32  H   UNL     1      -0.445  12.773  23.682  0.00  0.00    +0.000 HD
BRANCH  30  33
ATOM     33  C   UNL     1      -1.919  14.118  23.000  0.00  0.00    +0.000 C 
ATOM     34  C   UNL     1      -3.154  13.636  23.758  0.00  0.00    +0.000 C 
ATOM     35  C   UNL     1      -1.285  15.301  23.723  0.00  0.00    +0.000 C 
ENDBRANCH  30  33
ENDBRANCH   5  28
TORSDOF 7
ENDMDL
MODEL 2
REMARK VINA RESULT:      -8.8      0.866      1.001
REMARK  Name = 
REMARK  10 active torsions:
REMARK  status: ('A' for Active; 'I' for Inactive)
REMARK    1  A    between atoms: C_1  and  O_2
REMARK    2  A    between atoms: O_2  and  C_3
REMARK    3  A    between atoms: C_3  and  C_5
REMARK    4  A    between atoms: C_5  and  C_27
REMARK    5  A    between atoms: C_6  and  C_7
REMARK    6  A    between atoms: C_10  and  C_11
REMARK    7  A    between atoms: C_15  and  C_16
REMARK    8  A    between atoms: N_18  and  C_19
REMARK    9  A    between atoms: C_19  and  C_20
REMARK   10  A    between atoms: C_19  and  C_21
REMARK                            x       y       z     vdW  Elec       q    Type
REMARK                         _______ _______ _______ _____ _____    ______ ____
ROOT
ATOM      1  C   UNL     1       1.939   7.734  19.842  0.00  0.00    +0.000 A 
ATOM      2  N   UNL     1       1.388   8.795  19.277  0.00  0.00    +0.000 NA
ATOM      3  C   UNL     1       0.743   9.470  20.294  0.00  0.00    +0.000 A 
ATOM      4  C   UNL     1       0.020  10.678  20.269  0.00  0.00    +0.000 A 
ATOM      5  C   UNL     1      -0.523  11.187  21.468  0.00  0.00    +0.000 A 
ATOM      6  C   UNL     1      -0.338  10.466  22.661  0.00  0.00    +0.000 A 
ATOM      7  C   UNL     1       0.370   9.255  22.703  0.00  0.00    +0.000 A 
ATOM      8  C   UNL     1       0.897   8.799  21.499  0.00  0.00    +0.000 A 
ATOM      9  N   UNL     1       1.647   7.697  21.183  0.00  0.00    +0.000 N 
ATOM     10  H   UNL     1       1.963   6.983  21.822  0.00  0.00    +0.000 HD
ENDROOT
BRANCH   1  14
ATOM     11  C   UNL     1       4.145   5.468  17.545  0.00  0.00    +0.000 A 
ATOM     12  C   UNL     1       3.887   4.762  18.705  0.00  0.00    +0.000 A 
ATOM     13  C   UNL     1       3.071   5.488  19.627  0.00  0.00    +0.000 A 
ATOM     14  C   UNL     1       2.756   6.755  19.176  0.00  0.00    +0.000 A 
ATOM     15  S   UNL     1       3.458   7.043  17.637  0.00  0.00    +0.000 S 
BRANCH  11  17
ATOM     16  C   UNL     1       6.121   5.250  16.099  0.00  0.00    +0.000 C 
ATOM     17  C   UNL     1       4.809   5.052  16.352  0.00  0.00    +0.000 C 
BRANCH  16  18
ATOM     18  C   UNL     1       7.003   5.892  17.094  0.00  0.00    +0.000 A 
ATOM     19  C   UNL     1       7.484   5.170  18.193  0.00  0.00    +0.000 A 
ATOM     20  C   UNL     1       8.179   5.825  19.211  0.00  0.00    +0.000 A 
ATOM     21  C   UNL     1       8.415   7.197  19.124  0.00  0.00    +0.000 A 
ATOM     22  C   UNL     1       7.990   7.908  18.004  0.00  0.00    +0.000 A 
ATOM     23  C   UNL     1       7.289   7.259  16.989  0.00  0.00    +0.000 A 
ENDBRANCH  16  18
BRANCH  16  24
ATOM     24  C   UNL     1       6.708   4.812  14.792  0.00  0.00    +0.000 C 
ATOM     25  O   UNL     1       7.620   5.404  14.230  0.00  0.00    +0.000 OA
BRANCH  24  27
ATOM     26  C   UNL     1       6.161   3.588  12.873  0.00  0.00    +0.000 C 
ATOM     27  O   UNL     1       6.070   3.720  14.296  0.00  0.00    +0.000 OA
ENDBRANCH  24  27
ENDBRANCH  16  24
ENDBRANCH  11  17
ENDBRANCH   1  14
BRANCH   5  28
ATOM     28  C   UNL     1      -1.201  12.547  21.477  0.00  0.00    +0.000 C 
ATOM     29  N   UNL     1      -0.668  13.593  20.922  0.00  0.00    +0.000 NA
ATOM     30  N   UNL     1      -2.444  12.685  22.049  0.00  0.00    +0.000 N 
ATOM     31  H   UNL     1       0.248  13.422  20.520  0.00  0.00    +0.000 HD
ATOM     32  H   UNL     1      -2.610  12.228  22.937  0.00  0.00    +0.000 HD
BRANCH  30  33
ATOM     33  C   UNL     1      -3.367  13.761  21.703  0.00  0.00    +0.000 C 
ATOM     34  C   UNL     1      -4.295  13.267  20.595  0.00  0.00    +0.000 C 
ATOM     35  C   UNL     1      -4.182  14.228  22.903  0.00  0.00    +0.000 C 
ENDBRANCH  30  33
ENDBRANCH   5  28
TORSDOF 7
ENDMDL
MODEL 3
REMARK VINA RESULT:      -8.5      1.072      1.646
REMARK  Name = 
REMARK  10 active torsions:
REMARK  status: ('A' for Active; 'I' for Inactive)
REMARK    1  A    between atoms: C_1  and  O_2
REMARK    2  A    between atoms: O_2  and  C_3
REMARK    3  A    between atoms: C_3  and  C_5
REMARK    4  A    between atoms: C_5  and  C_27
REMARK    5  A    between atoms: C_6  and  C_7
REMARK    6  A    between atoms: C_10  and  C_11
REMARK    7  A    between atoms: C_15  and  C_16
REMARK    8  A    between atoms: N_18  and  C_19
REMARK    9  A    between atoms: C_19  and  C_20
REMARK   10  A    between atoms: C_19  and  C_21
REMARK                            x       y       z     vdW  Elec       q    Type
REMARK                         _______ _______ _______ _____ _____    ______ ____
ROOT
ATOM      1  C   UNL     1       1.839   7.666  19.865  0.00  0.00    +0.000 A 
ATOM      2  N   UNL     1       1.508   8.838  19.350  0.00  0.00    +0.000 NA
ATOM      3  C   UNL     1       0.845   9.515  20.353  0.00  0.00    +0.000 A 
ATOM      4  C   UNL     1       0.300  10.814  20.368  0.00  0.00    +0.000 A 
ATOM      5  C   UNL     1      -0.308  11.299  21.546  0.00  0.00    +0.000 A 
ATOM      6  C   UNL     1      -0.366  10.463  22.677  0.00  0.00    +0.000 A 
ATOM      7  C   UNL     1       0.161   9.162  22.677  0.00  0.00    +0.000 A 
ATOM      8  C   UNL     1       0.761   8.734  21.497  0.00  0.00    +0.000 A 
ATOM      9  N   UNL     1       1.386   7.564  21.157  0.00  0.00    +0.000 N 
ATOM     10  H   UNL     1       1.525   6.761  21.753  0.00  0.00    +0.000 HD
ENDROOT
BRANCH   1  14
ATOM     11  C   UNL     1       3.982   5.299  17.611  0.00  0.00    +0.000 A 
ATOM     12  C   UNL     1       3.480   4.542  18.653  0.00  0.00    +0.000 A 
ATOM     13  C   UNL     1       2.661   5.301  19.547  0.00  0.00    +0.000 A 
ATOM     14  C   UNL     1       2.589   6.635  19.198  0.00  0.00    +0.000 A 
ATOM     15  S   UNL     1       3.517   6.946  17.788  0.00  0.00    +0.000 S 
BRANCH  11  17
ATOM     16  C   UNL     1       6.013   5.237  16.227  0.00  0.00    +0.000 C 
ATOM     17  C   UNL     1       4.728   4.891  16.464  0.00  0.00    +0.000 C 
BRANCH  16  18
ATOM     18  C   UNL     1       6.777   6.050  17.194  0.00  0.00    +0.000 A 
ATOM     19  C   UNL     1       7.024   7.407  16.948  0.00  0.00    +0.000 A 
ATOM     20  C   UNL     1       7.883   8.124  17.782  0.00  0.00    +0.000 A 
ATOM     21  C   UNL     1       8.481   7.497  18.875  0.00  0.00    +0.000 A 
ATOM     22  C   UNL     1       8.191   6.164  19.158  0.00  0.00    +0.000 A 
ATOM     23  C   UNL     1       7.340   5.442  18.323  0.00  0.00    +0.000 A 
ENDBRANCH  16  18
BRANCH  16  24
ATOM     24  C   UNL     1       6.690   4.791  14.968  0.00  0.00    +0.000 C 
ATOM     25  O   UNL     1       7.636   5.382  14.464  0.00  0.00    +0.000 OA
BRANCH  24  27
ATOM     26  C   UNL     1       6.146   3.630  13.008  0.00  0.00    +0.000 C 
ATOM     27  O   UNL     1       6.091   3.692  14.437  0.00  0.00    +0.000 OA
ENDBRANCH  24  27
ENDBRANCH  16  24
ENDBRANCH  11  17
ENDBRANCH   1  14
BRANCH   5  28
ATOM     28  C   UNL     1      -0.790  12.737  21.615  0.00  0.00    +0.000 C 
ATOM     29  N   UNL     1      -1.663  13.136  22.490  0.00  0.00    +0.000 NA
ATOM     30  N   UNL     1      -0.263  13.675  20.759  0.00  0.00    +0.000 N 
ATOM     31  H   UNL     1      -2.012  12.395  23.089  0.00  0.00    +0.000 HD
ATOM     32  H   UNL     1      -0.141  13.414  19.788  0.00  0.00    +0.000 HD
BRANCH  30  33
ATOM     33  C   UNL     1      -0.273  15.107  21.038  0.00  0.00    +0.000 C 
ATOM     34  C   UNL     1       1.022  15.471  21.761  0.00  0.00    +0.000 C 
ATOM     35  C   UNL     1      -0.420  15.939  19.769  0.00  0.00    +0.000 C 
ENDBRANCH  30  33
ENDBRANCH   5  28
TORSDOF 7
ENDMDL
MODEL 4
REMARK VINA RESULT:      -8.4      1.115      1.733
REMARK  Name = 
REMARK  10 active torsions:
REMARK  status: ('A' for Active; 'I' for Inactive)
REMARK    1  A    between atoms: C_1  and  O_2
REMARK    2  A    between atoms: O_2  and  C_3
REMARK    3  A    between atoms: C_3  and  C_5
REMARK    4  A    between atoms: C_5  and  C_27
REMARK    5  A    between atoms: C_6  and  C_7
REMARK    6  A    between atoms: C_10  and  C_11
REMARK    7  A    between atoms: C_15  and  C_16
REMARK    8  A    between atoms: N_18  and  C_19
REMARK    9  A    between atoms: C_19  and  C_20
REMARK   10  A    between atoms: C_19  and  C_21
REMARK                            x       y       z     vdW  Elec       q    Type
REMARK                         _______ _______ _______ _____ _____    ______ ____
ROOT
ATOM      1  C   UNL     1       1.965   8.412  19.175  0.00  0.00    +0.000 A 
ATOM      2  N   UNL     1       1.628   8.577  20.443  0.00  0.00    +0.000 NA
ATOM      3  C   UNL     1       0.896   9.746  20.488  0.00  0.00    +0.000 A 
ATOM      4  C   UNL     1       0.264  10.384  21.573  0.00  0.00    +0.000 A 
ATOM      5  C   UNL     1      -0.465  11.571  21.352  0.00  0.00    +0.000 A 
ATOM      6  C   UNL     1      -0.532  12.098  20.049  0.00  0.00    +0.000 A 
ATOM      7  C   UNL     1       0.100  11.483  18.957  0.00  0.00    +0.000 A 
ATOM      8  C   UNL     1       0.797  10.308  19.223  0.00  0.00    +0.000 A 
ATOM      9  N   UNL     1       1.493   9.451  18.412  0.00  0.00    +0.000 N 
ATOM     10  H   UNL     1       1.623   9.539  17.416  0.00  0.00    +0.000 HD
ENDROOT
BRANCH   1  14
ATOM     11  C   UNL     1       4.064   5.756  17.220  0.00  0.00    +0.000 A 
ATOM     12  C   UNL     1       3.575   5.145  18.360  0.00  0.00    +0.000 A 
ATOM     13  C   UNL     1       2.774   6.021  19.158  0.00  0.00    +0.000 A 
ATOM     14  C   UNL     1       2.701   7.297  18.638  0.00  0.00    +0.000 A 
ATOM     15  S   UNL     1       3.608   7.415  17.186  0.00  0.00    +0.000 S 
BRANCH  11  17
ATOM     16  C   UNL     1       6.132   5.273  15.982  0.00  0.00    +0.000 C 
ATOM     17  C   UNL     1       4.790   5.197  16.126  0.00  0.00    +0.000 C 
BRANCH  16  18
ATOM     18  C   UNL     1       6.975   5.922  17.005  0.00  0.00    +0.000 A 
ATOM     19  C   UNL     1       7.385   5.217  18.144  0.00  0.00    +0.000 A 
ATOM     20  C   UNL     1       8.041   5.883  19.181  0.00  0.00    +0.000 A 
ATOM     21  C   UNL     1       8.309   7.248  19.075  0.00  0.00    +0.000 A 
ATOM     22  C   UNL     1       7.956   7.940  17.918  0.00  0.00    +0.000 A 
ATOM     23  C   UNL     1       7.294   7.280  16.884  0.00  0.00    +0.000 A 
ENDBRANCH  16  18
BRANCH  16  24
ATOM     24  C   UNL     1       6.790   4.690  14.770  0.00  0.00    +0.000 C 
ATOM     25  O   UNL     1       7.795   5.162  14.254  0.00  0.00    +0.000 OA
BRANCH  24  27
ATOM     26  C   UNL     1       6.033   3.558  12.865  0.00  0.00    +0.000 C 
ATOM     27  O   UNL     1       6.107   3.616  14.294  0.00  0.00    +0.000 OA
ENDBRANCH  24  27
ENDBRANCH  16  24
ENDBRANCH  11  17
ENDBRANCH   1  14
BRANCH   5  28
ATOM     28  C   UNL     1      -1.250  12.203  22.488  0.00  0.00    +0.000 C 
ATOM     29  N   UNL     1      -0.692  12.962  23.381  0.00  0.00    +0.000 NA
ATOM     30  N   UNL     1      -2.610  12.011  22.566  0.00  0.00    +0.000 N 
ATOM     31  H   UNL     1       0.311  13.061  23.266  0.00  0.00    +0.000 HD
ATOM     32  H   UNL     1      -2.968  11.079  22.396  0.00  0.00    +0.000 HD
BRANCH  30  33
ATOM     33  C   UNL     1      -3.505  12.917  23.279  0.00  0.00    +0.000 C 
ATOM     34  C   UNL     1      -4.553  13.436  22.297  0.00  0.00    +0.000 C 
ATOM     35  C   UNL     1      -4.183  12.241  24.465  0.00  0.00    +0.000 C 
ENDBRANCH  30  33
ENDBRANCH   5  28
TORSDOF 7
ENDMDL
MODEL 5
REMARK VINA RESULT:      -8.4      1.079      1.521
REMARK  Name = 
REMARK  10 active torsions:
REMARK  status: ('A' for Active; 'I' for Inactive)
REMARK    1  A    between atoms: C_1  and  O_2
REMARK    2  A    between atoms: O_2  and  C_3
REMARK    3  A    between atoms: C_3  and  C_5
REMARK    4  A    between atoms: C_5  and  C_27
REMARK    5  A    between atoms: C_6  and  C_7
REMARK    6  A    between atoms: C_10  and  C_11
REMARK    7  A    between atoms: C_15  and  C_16
REMARK    8  A    between atoms: N_18  and  C_19
REMARK    9  A    between atoms: C_19  and  C_20
REMARK   10  A    between atoms: C_19  and  C_21
REMARK                            x       y       z     vdW  Elec       q    Type
REMARK                         _______ _______ _______ _____ _____    ______ ____
ROOT
ATOM      1  C   UNL     1       1.912   7.721  19.895  0.00  0.00    +0.000 A 
ATOM      2  N   UNL     1       1.470   8.841  19.351  0.00  0.00    +0.000 NA
ATOM      3  C   UNL     1       0.809   9.514  20.358  0.00  0.00    +0.000 A 
ATOM      4  C   UNL     1       0.171  10.769  20.349  0.00  0.00    +0.000 A 
ATOM      5  C   UNL     1      -0.411  11.261  21.537  0.00  0.00    +0.000 A 
ATOM      6  C   UNL     1      -0.350  10.476  22.703  0.00  0.00    +0.000 A 
ATOM      7  C   UNL     1       0.271   9.218  22.728  0.00  0.00    +0.000 A 
ATOM      8  C   UNL     1       0.841   8.781  21.536  0.00  0.00    +0.000 A 
ATOM      9  N   UNL     1       1.534   7.644  21.213  0.00  0.00    +0.000 N 
ATOM     10  H   UNL     1       1.761   6.882  21.833  0.00  0.00    +0.000 HD
ENDROOT
BRANCH   1  14
ATOM     11  C   UNL     1       4.036   5.378  17.598  0.00  0.00    +0.000 A 
ATOM     12  C   UNL     1       3.802   4.702  18.781  0.00  0.00    +0.000 A 
ATOM     13  C   UNL     1       3.017   5.459  19.706  0.00  0.00    +0.000 A 
ATOM     14  C   UNL     1       2.702   6.717  19.232  0.00  0.00    +0.000 A 
ATOM     15  S   UNL     1       3.366   6.961  17.669  0.00  0.00    +0.000 S 
BRANCH  11  17
ATOM     16  C   UNL     1       5.968   5.116  16.100  0.00  0.00    +0.000 C 
ATOM     17  C   UNL     1       4.664   4.926  16.398  0.00  0.00    +0.000 C 
BRANCH  16  18
ATOM     18  C   UNL     1       6.879   5.787  17.049  0.00  0.00    +0.000 A 
ATOM     19  C   UNL     1       7.442   5.080  18.119  0.00  0.00    +0.000 A 
ATOM     20  C   UNL     1       8.167   5.758  19.101  0.00  0.00    +0.000 A 
ATOM     21  C   UNL     1       8.351   7.138  19.006  0.00  0.00    +0.000 A 
ATOM     22  C   UNL     1       7.842   7.835  17.912  0.00  0.00    +0.000 A 
ATOM     23  C   UNL     1       7.112   7.163  16.934  0.00  0.00    +0.000 A 
ENDBRANCH  16  18
BRANCH  16  24
ATOM     24  C   UNL     1       6.516   4.640  14.791  0.00  0.00    +0.000 C 
ATOM     25  O   UNL     1       6.062   3.684  14.176  0.00  0.00    +0.000 OA
BRANCH  24  27
ATOM     26  C   UNL     1       7.916   5.247  13.014  0.00  0.00    +0.000 C 
ATOM     27  O   UNL     1       7.600   5.364  14.406  0.00  0.00    +0.000 OA
ENDBRANCH  24  27
ENDBRANCH  16  24
ENDBRANCH  11  17
ENDBRANCH   1  14
BRANCH   5  28
ATOM     28  C   UNL     1      -0.995  12.663  21.572  0.00  0.00    +0.000 C 
ATOM     29  N   UNL     1      -1.991  12.982  22.341  0.00  0.00    +0.000 NA
ATOM     30  N   UNL     1      -0.434  13.655  20.802  0.00  0.00    +0.000 N 
ATOM     31  H   UNL     1      -2.358  12.205  22.881  0.00  0.00    +0.000 HD
ATOM     32  H   UNL     1      -0.179  13.427  19.848  0.00  0.00    +0.000 HD
BRANCH  30  33
ATOM     33  C   UNL     1      -0.575  15.076  21.102  0.00  0.00    +0.000 C 
ATOM     34  C   UNL     1       0.730  15.573  21.723  0.00  0.00    +0.000 C 
ATOM     35  C   UNL     1      -0.915  15.895  19.863  0.00  0.00    +0.000 C 
ENDBRANCH  30  33
ENDBRANCH   5  28
TORSDOF 7
ENDMDL
MODEL 6
REMARK VINA RESULT:      -8.3      1.049      1.537
REMARK  Name = 
REMARK  10 active torsions:
REMARK  status: ('A' for Active; 'I' for Inactive)
REMARK    1  A    between atoms: C_1  and  O_2
REMARK    2  A    between atoms: O_2  and  C_3
REMARK    3  A    between atoms: C_3  and  C_5
REMARK    4  A    between atoms: C_5  and  C_27
REMARK    5  A    between atoms: C_6  and  C_7
REMARK    6  A    between atoms: C_10  and  C_11
REMARK    7  A    between atoms: C_15  and  C_16
REMARK    8  A    between atoms: N_18  and  C_19
REMARK    9  A    between atoms: C_19  and  C_20
REMARK   10  A    between atoms: C_19  and  C_21
REMARK                            x       y       z     vdW  Elec       q    Type
REMARK                         _______ _______ _______ _____ _____    ______ ____
ROOT
ATOM      1  C   UNL     1       1.689   7.739  20.144  0.00  0.00    +0.000 A 
ATOM      2  N   UNL     1       1.205   8.811  19.541  0.00  0.00    +0.000 NA
ATOM      3  C   UNL     1       0.559   9.535  20.523  0.00  0.00    +0.000 A 
ATOM      4  C   UNL     1      -0.108  10.773  20.451  0.00  0.00    +0.000 A 
ATOM      5  C   UNL     1      -0.665  11.331  21.622  0.00  0.00    +0.000 A 
ATOM      6  C   UNL     1      -0.551  10.626  22.834  0.00  0.00    +0.000 A 
ATOM      7  C   UNL     1       0.099   9.385  22.922  0.00  0.00    +0.000 A 
ATOM      8  C   UNL     1       0.643   8.882  21.745  0.00  0.00    +0.000 A 
ATOM      9  N   UNL     1       1.352   7.742  21.475  0.00  0.00    +0.000 N 
ATOM     10  H   UNL     1       1.615   7.027  22.137  0.00  0.00    +0.000 HD
ENDROOT
BRANCH   1  14
ATOM     11  C   UNL     1       3.841   5.319  17.955  0.00  0.00    +0.000 A 
ATOM     12  C   UNL     1       3.562   4.670  19.143  0.00  0.00    +0.000 A 
ATOM     13  C   UNL     1       2.762   5.457  20.030  0.00  0.00    +0.000 A 
ATOM     14  C   UNL     1       2.481   6.710  19.524  0.00  0.00    +0.000 A 
ATOM     15  S   UNL     1       3.194   6.914  17.976  0.00  0.00    +0.000 S 
BRANCH  11  17
ATOM     16  C   UNL     1       5.763   5.146  16.432  0.00  0.00    +0.000 C 
ATOM     17  C   UNL     1       4.496   4.834  16.783  0.00  0.00    +0.000 C 
BRANCH  16  18
ATOM     18  C   UNL     1       6.605   6.003  17.290  0.00  0.00    +0.000 A 
ATOM     19  C   UNL     1       6.810   7.351  16.971  0.00  0.00    +0.000 A 
ATOM     20  C   UNL     1       7.736   8.108  17.692  0.00  0.00    +0.000 A 
ATOM     21  C   UNL     1       8.442   7.529  18.746  0.00  0.00    +0.000 A 
ATOM     22  C   UNL     1       8.198   6.204  19.105  0.00  0.00    +0.000 A 
ATOM     23  C   UNL     1       7.280   5.443  18.382  0.00  0.00    +0.000 A 
ENDBRANCH  16  18
BRANCH  16  24
ATOM     24  C   UNL     1       6.340   4.617  15.155  0.00  0.00    +0.000 C 
ATOM     25  O   UNL     1       5.889   3.647  14.561  0.00  0.00    +0.000 OA
BRANCH  24  27
ATOM     26  C   UNL     1       7.749   5.210  13.381  0.00  0.00    +0.000 C 
ATOM     27  O   UNL     1       7.444   5.313  14.776  0.00  0.00    +0.000 OA
ENDBRANCH  24  27
ENDBRANCH  16  24
ENDBRANCH  11  17
ENDBRANCH   1  14
BRANCH   5  28
ATOM     28  C   UNL     1      -1.280  12.719  21.583  0.00  0.00    +0.000 C 
ATOM     29  N   UNL     1      -0.671  13.734  21.051  0.00  0.00    +0.000 NA
ATOM     30  N   UNL     1      -2.546  12.918  22.084  0.00  0.00    +0.000 N 
ATOM     31  H   UNL     1       0.258  13.519  20.703  0.00  0.00    +0.000 HD
ATOM     32  H   UNL     1      -2.781  12.478  22.965  0.00  0.00    +0.000 HD
BRANCH  30  33
ATOM     33  C   UNL     1      -3.399  14.031  21.679  0.00  0.00    +0.000 C 
ATOM     34  C   UNL     1      -4.635  13.466  20.982  0.00  0.00    +0.000 C 
ATOM     35  C   UNL     1      -3.812  14.899  22.862  0.00  0.00    +0.000 C 
ENDBRANCH  30  33
ENDBRANCH   5  28
TORSDOF 7
ENDMDL
MODEL 7
REMARK VINA RESULT:      -8.1      1.260      2.248
REMARK  Name = 
REMARK  10 active torsions:
REMARK  status: ('A' for Active; 'I' for Inactive)
REMARK    1  A    between atoms: C_1  and  O_2
REMARK    2  A    between atoms: O_2  and  C_3
REMARK    3  A    between atoms: C_3  and  C_5
REMARK    4  A    between atoms: C_5  and  C_27
REMARK    5  A    between atoms: C_6  and  C_7
REMARK    6  A    between atoms: C_10  and  C_11
REMARK    7  A    between atoms: C_15  and  C_16
REMARK    8  A    between atoms: N_18  and  C_19
REMARK    9  A    between atoms: C_19  and  C_20
REMARK   10  A    between atoms: C_19  and  C_21
REMARK                            x       y       z     vdW  Elec       q    Type
REMARK                         _______ _______ _______ _____ _____    ______ ____
ROOT
ATOM      1  C   UNL     1       1.357   8.573  20.152  0.00  0.00    +0.000 A 
ATOM      2  N   UNL     1       0.784   8.714  21.335  0.00  0.00    +0.000 NA
ATOM      3  C   UNL     1       0.153   9.941  21.303  0.00  0.00    +0.000 A 
ATOM      4  C   UNL     1      -0.633  10.586  22.277  0.00  0.00    +0.000 A 
ATOM      5  C   UNL     1      -1.206  11.843  21.987  0.00  0.00    +0.000 A 
ATOM      6  C   UNL     1      -0.966  12.428  20.730  0.00  0.00    +0.000 A 
ATOM      7  C   UNL     1      -0.176  11.805  19.751  0.00  0.00    +0.000 A 
ATOM      8  C   UNL     1       0.357  10.563  20.079  0.00  0.00    +0.000 A 
ATOM      9  N   UNL     1       1.133   9.682  19.374  0.00  0.00    +0.000 N 
ATOM     10  H   UNL     1       1.469   9.800  18.429  0.00  0.00    +0.000 HD
ENDROOT
BRANCH   1  14
ATOM     11  C   UNL     1       3.288   5.683  18.365  0.00  0.00    +0.000 A 
ATOM     12  C   UNL     1       3.178   5.347  19.701  0.00  0.00    +0.000 A 
ATOM     13  C   UNL     1       2.473   6.331  20.464  0.00  0.00    +0.000 A 
ATOM     14  C   UNL     1       2.096   7.421  19.706  0.00  0.00    +0.000 A 
ATOM     15  S   UNL     1       2.604   7.235  18.078  0.00  0.00    +0.000 S 
BRANCH  11  17
ATOM     16  C   UNL     1       5.089   4.968  16.852  0.00  0.00    +0.000 C 
ATOM     17  C   UNL     1       3.806   4.922  17.273  0.00  0.00    +0.000 C 
BRANCH  16  18
ATOM     18  C   UNL     1       6.092   5.800  17.544  0.00  0.00    +0.000 A 
ATOM     19  C   UNL     1       6.398   7.085  17.077  0.00  0.00    +0.000 A 
ATOM     20  C   UNL     1       7.461   7.797  17.636  0.00  0.00    +0.000 A 
ATOM     21  C   UNL     1       8.207   7.240  18.675  0.00  0.00    +0.000 A 
ATOM     22  C   UNL     1       7.868   5.986  19.181  0.00  0.00    +0.000 A 
ATOM     23  C   UNL     1       6.812   5.269  18.621  0.00  0.00    +0.000 A 
ENDBRANCH  16  18
BRANCH  16  24
ATOM     24  C   UNL     1       5.518   4.161  15.665  0.00  0.00    +0.000 C 
ATOM     25  O   UNL     1       5.739   2.958  15.710  0.00  0.00    +0.000 OA
BRANCH  24  27
ATOM     26  C   UNL     1       6.966   4.821  13.947  0.00  0.00    +0.000 C 
ATOM     27  O   UNL     1       5.677   4.937  14.561  0.00  0.00    +0.000 OA
ENDBRANCH  24  27
ENDBRANCH  16  24
ENDBRANCH  11  17
ENDBRANCH   1  14
BRANCH   5  28
ATOM     28  C   UNL     1      -2.153  12.493  22.981  0.00  0.00    +0.000 C 
ATOM     29  N   UNL     1      -3.036  11.813  23.647  0.00  0.00    +0.000 NA
ATOM     30  N   UNL     1      -2.057  13.842  23.232  0.00  0.00    +0.000 N 
ATOM     31  H   UNL     1      -3.055  10.826  23.414  0.00  0.00    +0.000 HD
ATOM     32  H   UNL     1      -1.930  14.463  22.442  0.00  0.00    +0.000 HD
BRANCH  30  33
ATOM     33  C   UNL     1      -2.543  14.463  24.459  0.00  0.00    +0.000 C 
ATOM     34  C   UNL     1      -1.390  15.225  25.109  0.00  0.00    +0.000 C 
ATOM     35  C   UNL     1      -3.717  15.401  24.203  0.00  0.00    +0.000 C 
ENDBRANCH  30  33
ENDBRANCH   5  28
TORSDOF 7
ENDMDL
MODEL 8
REMARK VINA RESULT:      -8.0      1.063      1.576
REMARK  Name = 
REMARK  10 active torsions:
REMARK  status: ('A' for Active; 'I' for Inactive)
REMARK    1  A    between atoms: C_1  and  O_2
REMARK    2  A    between atoms: O_2  and  C_3
REMARK    3  A    between atoms: C_3  and  C_5
REMARK    4  A    between atoms: C_5  and  C_27
REMARK    5  A    between atoms: C_6  and  C_7
REMARK    6  A    between atoms: C_10  and  C_11
REMARK    7  A    between atoms: C_15  and  C_16
REMARK    8  A    between atoms: N_18  and  C_19
REMARK    9  A    between atoms: C_19  and  C_20
REMARK   10  A    between atoms: C_19  and  C_21
REMARK                            x       y       z     vdW  Elec       q    Type
REMARK                         _______ _______ _______ _____ _____    ______ ____
ROOT
ATOM      1  C   UNL     1       1.460   8.024  20.401  0.00  0.00    +0.000 A 
ATOM      2  N   UNL     1       1.267   9.204  19.838  0.00  0.00    +0.000 NA
ATOM      3  C   UNL     1       0.551   9.946  20.755  0.00  0.00    +0.000 A 
ATOM      4  C   UNL     1       0.100  11.278  20.695  0.00  0.00    +0.000 A 
ATOM      5  C   UNL     1      -0.592  11.828  21.795  0.00  0.00    +0.000 A 
ATOM      6  C   UNL     1      -0.825  11.022  22.925  0.00  0.00    +0.000 A 
ATOM      7  C   UNL     1      -0.393   9.689  22.999  0.00  0.00    +0.000 A 
ATOM      8  C   UNL     1       0.295   9.196  21.895  0.00  0.00    +0.000 A 
ATOM      9  N   UNL     1       0.870   7.979  21.640  0.00  0.00    +0.000 N 
ATOM     10  H   UNL     1       0.889   7.182  22.258  0.00  0.00    +0.000 HD
ENDROOT
BRANCH   1  14
ATOM     11  C   UNL     1       3.417   5.364  18.310  0.00  0.00    +0.000 A 
ATOM     12  C   UNL     1       3.269   4.862  19.589  0.00  0.00    +0.000 A 
ATOM     13  C   UNL     1       2.550   5.748  20.452  0.00  0.00    +0.000 A 
ATOM     14  C   UNL     1       2.202   6.930  19.831  0.00  0.00    +0.000 A 
ATOM     15  S   UNL     1       2.753   6.947  18.206  0.00  0.00    +0.000 S 
BRANCH  11  17
ATOM     16  C   UNL     1       5.228   4.909  16.711  0.00  0.00    +0.000 C 
ATOM     17  C   UNL     1       3.959   4.743  17.144  0.00  0.00    +0.000 C 
BRANCH  16  18
ATOM     18  C   UNL     1       6.192   5.735  17.464  0.00  0.00    +0.000 A 
ATOM     19  C   UNL     1       6.481   7.044  17.059  0.00  0.00    +0.000 A 
ATOM     20  C   UNL     1       7.511   7.756  17.676  0.00  0.00    +0.000 A 
ATOM     21  C   UNL     1       8.240   7.174  18.713  0.00  0.00    +0.000 A 
ATOM     22  C   UNL     1       7.916   5.894  19.159  0.00  0.00    +0.000 A 
ATOM     23  C   UNL     1       6.894   5.176  18.540  0.00  0.00    +0.000 A 
ENDBRANCH  16  18
BRANCH  16  24
ATOM     24  C   UNL     1       5.682   4.245  15.447  0.00  0.00    +0.000 C 
ATOM     25  O   UNL     1       5.857   3.038  15.343  0.00  0.00    +0.000 OA
BRANCH  24  27
ATOM     26  C   UNL     1       7.192   4.993  13.821  0.00  0.00    +0.000 C 
ATOM     27  O   UNL     1       5.921   5.150  14.462  0.00  0.00    +0.000 OA
ENDBRANCH  24  27
ENDBRANCH  16  24
ENDBRANCH  11  17
ENDBRANCH   1  14
BRANCH   5  28
ATOM     28  C   UNL     1      -0.978  13.296  21.793  0.00  0.00    +0.000 C 
ATOM     29  N   UNL     1      -1.751  13.811  20.885  0.00  0.00    +0.000 NA
ATOM     30  N   UNL     1      -0.541  14.118  22.805  0.00  0.00    +0.000 N 
ATOM     31  H   UNL     1      -2.036  13.151  20.168  0.00  0.00    +0.000 HD
ATOM     32  H   UNL     1       0.423  14.031  23.103  0.00  0.00    +0.000 HD
BRANCH  30  33
ATOM     33  C   UNL     1      -1.212  15.362  23.171  0.00  0.00    +0.000 C 
ATOM     34  C   UNL     1      -2.201  15.067  24.297  0.00  0.00    +0.000 C 
ATOM     35  C   UNL     1      -0.226  16.441  23.604  0.00  0.00    +0.000 C 
ENDBRANCH  30  33
ENDBRANCH   5  28
TORSDOF 7
ENDMDL
MODEL 9
REMARK VINA RESULT:      -8.0      2.314      3.733
REMARK  Name = 
REMARK  10 active torsions:
REMARK  status: ('A' for Active; 'I' for Inactive)
REMARK    1  A    between atoms: C_1  and  O_2
REMARK    2  A    between atoms: O_2  and  C_3
REMARK    3  A    between atoms: C_3  and  C_5
REMARK    4  A    between atoms: C_5  and  C_27
REMARK    5  A    between atoms: C_6  and  C_7
REMARK    6  A    between atoms: C_10  and  C_11
REMARK    7  A    between atoms: C_15  and  C_16
REMARK    8  A    between atoms: N_18  and  C_19
REMARK    9  A    between atoms: C_19  and  C_20
REMARK   10  A    between atoms: C_19  and  C_21
REMARK                            x       y       z     vdW  Elec       q    Type
REMARK                         _______ _______ _______ _____ _____    ______ ____
ROOT
ATOM      1  C   UNL     1       1.047   9.119  18.878  0.00  0.00    +0.000 A 
ATOM      2  N   UNL     1       0.706   9.798  19.959  0.00  0.00    +0.000 NA
ATOM      3  C   UNL     1      -0.362  10.588  19.585  0.00  0.00    +0.000 A 
ATOM      4  C   UNL     1      -1.138  11.487  20.342  0.00  0.00    +0.000 A 
ATOM      5  C   UNL     1      -2.217  12.160  19.729  0.00  0.00    +0.000 A 
ATOM      6  C   UNL     1      -2.482  11.925  18.367  0.00  0.00    +0.000 A 
ATOM      7  C   UNL     1      -1.712  11.042  17.595  0.00  0.00    +0.000 A 
ATOM      8  C   UNL     1      -0.668  10.393  18.246  0.00  0.00    +0.000 A 
ATOM      9  N   UNL     1       0.247   9.468  17.818  0.00  0.00    +0.000 N 
ATOM     10  H   UNL     1       0.318   9.076  16.891  0.00  0.00    +0.000 HD
ENDROOT
BRANCH   1  14
ATOM     11  C   UNL     1       4.016   6.694  18.112  0.00  0.00    +0.000 A 
ATOM     12  C   UNL     1       3.404   6.252  19.270  0.00  0.00    +0.000 A 
ATOM     13  C   UNL     1       2.285   7.059  19.649  0.00  0.00    +0.000 A 
ATOM     14  C   UNL     1       2.089   8.129  18.800  0.00  0.00    +0.000 A 
ATOM     15  S   UNL     1       3.268   8.139  17.553  0.00  0.00    +0.000 S 
BRANCH  11  17
ATOM     16  C   UNL     1       5.250   4.770  17.207  0.00  0.00    +0.000 C 
ATOM     17  C   UNL     1       5.071   6.101  17.355  0.00  0.00    +0.000 C 
BRANCH  16  18
ATOM     18  C   UNL     1       4.308   3.801  17.800  0.00  0.00    +0.000 A 
ATOM     19  C   UNL     1       3.080   3.531  17.184  0.00  0.00    +0.000 A 
ATOM     20  C   UNL     1       2.129   2.741  17.834  0.00  0.00    +0.000 A 
ATOM     21  C   UNL     1       2.409   2.202  19.089  0.00  0.00    +0.000 A 
ATOM     22  C   UNL     1       3.653   2.420  19.680  0.00  0.00    +0.000 A 
ATOM     23  C   UNL     1       4.601   3.214  19.037  0.00  0.00    +0.000 A 
ENDBRANCH  16  18
BRANCH  16  24
ATOM     24  C   UNL     1       6.419   4.253  16.427  0.00  0.00    +0.000 C 
ATOM     25  O   UNL     1       7.581   4.549  16.675  0.00  0.00    +0.000 OA
BRANCH  24  27
ATOM     26  C   UNL     1       5.771   4.182  14.178  0.00  0.00    +0.000 C 
ATOM     27  O   UNL     1       6.024   3.466  15.392  0.00  0.00    +0.000 OA
ENDBRANCH  24  27
ENDBRANCH  16  24
ENDBRANCH  11  17
ENDBRANCH   1  14
BRANCH   5  28
ATOM     28  C   UNL     1      -3.135  13.038  20.560  0.00  0.00    +0.000 C 
ATOM     29  N   UNL     1      -3.152  14.331  20.446  0.00  0.00    +0.000 NA
ATOM     30  N   UNL     1      -4.020  12.459  21.440  0.00  0.00    +0.000 N 
ATOM     31  H   UNL     1      -2.475  14.693  19.782  0.00  0.00    +0.000 HD
ATOM     32  H   UNL     1      -3.685  11.695  22.015  0.00  0.00    +0.000 HD
BRANCH  30  33
ATOM     33  C   UNL     1      -5.233  13.123  21.906  0.00  0.00    +0.000 C 
ATOM     34  C   UNL     1      -6.441  12.384  21.333  0.00  0.00    +0.000 C 
ATOM     35  C   UNL     1      -5.316  13.168  23.427  0.00  0.00    +0.000 C 
ENDBRANCH  30  33
ENDBRANCH   5  28
TORSDOF 7
ENDMDL
