MODEL 1
REMARK VINA RESULT:      -6.9      0.000      0.000
REMARK  Name = 
REMARK  12 active torsions:
REMARK  status: ('A' for Active; 'I' for Inactive)
REMARK    1  A    between atoms: C_1  and  C_2
REMARK    2  A    between atoms: C_2  and  C_3
REMARK    3  A    between atoms: C_3  and  C_4
REMARK    4  A    between atoms: C_3  and  C_5
REMARK    5  A    between atoms: C_5  and  C_6
REMARK    6  A    between atoms: C_5  and  N_14
REMARK    7  A    between atoms: C_16  and  C_17
REMARK    8  A    between atoms: C_17  and  N_18
REMARK    9  A    between atoms: C_17  and  C_19
REMARK   10  A    between atoms: C_19  and  C_20
REMARK   11  A    between atoms: C_20  and  C_21
REMARK   12  A    between atoms: C_20  and  C_22
REMARK                            x       y       z     vdW  Elec       q    Type
REMARK                         _______ _______ _______ _____ _____    ______ ____
ROOT
ATOM      1  C   UNL     1       5.958   4.978  18.140  0.00  0.00    +0.000 C 
ENDROOT
BRANCH   1   2
ATOM      2  C   UNL     1       4.531   4.962  18.728  0.00  0.00    +0.000 C 
ATOM      3  O   UNL     1       4.212   5.869  19.486  0.00  0.00    +0.000 OA
ATOM      4  N   UNL     1       3.587   4.002  18.389  0.00  0.00    +0.000 N 
ATOM      5  C   UNL     1       3.888   2.809  17.604  0.00  0.00    +0.000 C 
ATOM      6  C   UNL     1       3.545   1.579  18.461  0.00  0.00    +0.000 C 
ATOM      7  N   UNL     1       2.127   1.612  18.850  0.00  0.00    +0.000 NA
ATOM      8  C   UNL     1       1.821   2.825  19.626  0.00  0.00    +0.000 C 
ATOM      9  C   UNL     1       2.190   4.082  18.826  0.00  0.00    +0.000 C 
ATOM     10  H   UNL     1       1.921   0.775  19.444  0.00  0.00    +0.000 HD
ENDBRANCH   1   2
BRANCH   1  11
ATOM     11  N   UNL     1       5.828   5.204  16.696  0.00  0.00    +0.000 N 
ATOM     12  C   UNL     1       6.433   4.516  15.708  0.00  0.00    +0.000 A 
ATOM     13  C   UNL     1       6.067   5.127  14.533  0.00  0.00    +0.000 A 
ATOM     14  N   UNL     1       5.254   6.160  14.832  0.00  0.00    +0.000 NA
ATOM     15  N   UNL     1       5.116   6.175  16.149  0.00  0.00    +0.000 NA
BRANCH  13  16
ATOM     16  C   UNL     1       6.554   4.804  13.134  0.00  0.00    +0.000 C 
BRANCH  16  17
ATOM     17  N   UNL     1       7.855   5.439  12.910  0.00  0.00    +0.000 NA
ATOM     18  H   UNL     1       7.727   6.434  12.608  0.00  0.00    +0.000 HD
ATOM     19  H   UNL     1       8.369   4.931  12.156  0.00  0.00    +0.000 HD
ENDBRANCH  16  17
BRANCH  16  20
ATOM     20  C   UNL     1       6.689   3.284  12.865  0.00  0.00    +0.000 C 
BRANCH  20  21
ATOM     21  C   UNL     1       5.468   2.606  12.191  0.00  0.00    +0.000 C 
ATOM     22  C   UNL     1       4.558   3.610  11.461  0.00  0.00    +0.000 C 
ATOM     23  C   UNL     1       5.966   1.560  11.181  0.00  0.00    +0.000 C 
ENDBRANCH  20  21
ENDBRANCH  16  20
ENDBRANCH  13  16
ENDBRANCH   1  11
BRANCH   1  24
ATOM     24  C   UNL     1       6.937   6.022  18.777  0.00  0.00    +0.000 C 
ATOM     25  C   UNL     1       7.855   5.334  19.809  0.00  0.00    +0.000 C 
BRANCH  24  27
ATOM     26  C   UNL     1       7.931   8.298  17.952  0.00  0.00    +0.000 C 
ATOM     27  C   UNL     1       7.797   6.791  17.729  0.00  0.00    +0.000 C 
ENDBRANCH  24  27
ENDBRANCH   1  24
TORSDOF 8
ENDMDL
MODEL 2
REMARK VINA RESULT:      -6.9      2.893      5.083
REMARK  Name = 
REMARK  12 active torsions:
REMARK  status: ('A' for Active; 'I' for Inactive)
REMARK    1  A    between atoms: C_1  and  C_2
REMARK    2  A    between atoms: C_2  and  C_3
REMARK    3  A    between atoms: C_3  and  C_4
REMARK    4  A    between atoms: C_3  and  C_5
REMARK    5  A    between atoms: C_5  and  C_6
REMARK    6  A    between atoms: C_5  and  N_14
REMARK    7  A    between atoms: C_16  and  C_17
REMARK    8  A    between atoms: C_17  and  N_18
REMARK    9  A    between atoms: C_17  and  C_19
REMARK   10  A    between atoms: C_19  and  C_20
REMARK   11  A    between atoms: C_20  and  C_21
REMARK   12  A    between atoms: C_20  and  C_22
REMARK                            x       y       z     vdW  Elec       q    Type
REMARK                         _______ _______ _______ _____ _____    ______ ____
ROOT
ATOM      1  C   UNL     1       2.259   5.105  18.826  0.00  0.00    +0.000 C 
ENDROOT
BRANCH   1   2
ATOM      2  C   UNL     1       1.935   6.245  19.815  0.00  0.00    +0.000 C 
ATOM      3  O   UNL     1       1.587   5.939  20.949  0.00  0.00    +0.000 OA
ATOM      4  N   UNL     1       2.078   7.587  19.492  0.00  0.00    +0.000 N 
ATOM      5  C   UNL     1       2.358   8.073  18.144  0.00  0.00    +0.000 C 
ATOM      6  C   UNL     1       1.204   8.998  17.725  0.00  0.00    +0.000 C 
ATOM      7  N   UNL     1       1.080  10.115  18.674  0.00  0.00    +0.000 NA
ATOM      8  C   UNL     1       0.816   9.624  20.036  0.00  0.00    +0.000 C 
ATOM      9  C   UNL     1       1.923   8.657  20.482  0.00  0.00    +0.000 C 
ATOM     10  H   UNL     1       0.281  10.722  18.377  0.00  0.00    +0.000 HD
ENDBRANCH   1   2
BRANCH   1  11
ATOM     11  N   UNL     1       3.702   5.157  18.564  0.00  0.00    +0.000 N 
ATOM     12  C   UNL     1       4.320   4.967  17.381  0.00  0.00    +0.000 A 
ATOM     13  C   UNL     1       5.668   5.042  17.636  0.00  0.00    +0.000 A 
ATOM     14  N   UNL     1       5.835   5.277  18.952  0.00  0.00    +0.000 NA
ATOM     15  N   UNL     1       4.627   5.355  19.488  0.00  0.00    +0.000 NA
BRANCH  13  16
ATOM     16  C   UNL     1       6.805   4.799  16.663  0.00  0.00    +0.000 C 
BRANCH  16  17
ATOM     17  N   UNL     1       7.937   4.198  17.373  0.00  0.00    +0.000 NA
ATOM     18  H   UNL     1       8.774   4.145  16.745  0.00  0.00    +0.000 HD
ATOM     19  H   UNL     1       7.689   3.229  17.672  0.00  0.00    +0.000 HD
ENDBRANCH  16  17
BRANCH  16  20
ATOM     20  C   UNL     1       6.417   3.882  15.477  0.00  0.00    +0.000 C 
BRANCH  20  21
ATOM     21  C   UNL     1       6.326   4.571  14.091  0.00  0.00    +0.000 C 
ATOM     22  C   UNL     1       7.634   5.274  13.690  0.00  0.00    +0.000 C 
ATOM     23  C   UNL     1       5.981   3.517  13.026  0.00  0.00    +0.000 C 
ENDBRANCH  20  21
ENDBRANCH  16  20
ENDBRANCH  13  16
ENDBRANCH   1  11
BRANCH   1  24
ATOM     24  C   UNL     1       1.832   3.670  19.288  0.00  0.00    +0.000 C 
ATOM     25  C   UNL     1       1.741   2.723  18.073  0.00  0.00    +0.000 C 
BRANCH  24  27
ATOM     26  C   UNL     1       2.088   2.584  21.655  0.00  0.00    +0.000 C 
ATOM     27  C   UNL     1       2.771   3.059  20.371  0.00  0.00    +0.000 C 
ENDBRANCH  24  27
ENDBRANCH   1  24
TORSDOF 8
ENDMDL
MODEL 3
REMARK VINA RESULT:      -6.8      2.889      5.083
REMARK  Name = 
REMARK  12 active torsions:
REMARK  status: ('A' for Active; 'I' for Inactive)
REMARK    1  A    between atoms: C_1  and  C_2
REMARK    2  A    between atoms: C_2  and  C_3
REMARK    3  A    between atoms: C_3  and  C_4
REMARK    4  A    between atoms: C_3  and  C_5
REMARK    5  A    between atoms: C_5  and  C_6
REMARK    6  A    between atoms: C_5  and  N_14
REMARK    7  A    between atoms: C_16  and  C_17
REMARK    8  A    between atoms: C_17  and  N_18
REMARK    9  A    between atoms: C_17  and  C_19
REMARK   10  A    between atoms: C_19  and  C_20
REMARK   11  A    between atoms: C_20  and  C_21
REMARK   12  A    between atoms: C_20  and  C_22
REMARK                            x       y       z     vdW  Elec       q    Type
REMARK                         _______ _______ _______ _____ _____    ______ ____
ROOT
ATOM      1  C   UNL     1       2.550   5.074  18.943  0.00  0.00    +0.000 C 
ENDROOT
BRANCH   1   2
ATOM      2  C   UNL     1       2.038   6.142  19.934  0.00  0.00    +0.000 C 
ATOM      3  O   UNL     1       1.605   5.762  21.014  0.00  0.00    +0.000 OA
ATOM      4  N   UNL     1       2.101   7.504  19.673  0.00  0.00    +0.000 N 
ATOM      5  C   UNL     1       2.472   8.067  18.378  0.00  0.00    +0.000 C 
ATOM      6  C   UNL     1       1.294   8.916  17.876  0.00  0.00    +0.000 C 
ATOM      7  N   UNL     1       0.985   9.979  18.846  0.00  0.00    +0.000 NA
ATOM      8  C   UNL     1       0.629   9.411  20.156  0.00  0.00    +0.000 C 
ATOM      9  C   UNL     1       1.762   8.515  20.678  0.00  0.00    +0.000 C 
ATOM     10  H   UNL     1       0.172  10.534  18.491  0.00  0.00    +0.000 HD
ENDBRANCH   1   2
BRANCH   1  11
ATOM     11  N   UNL     1       4.002   5.253  18.828  0.00  0.00    +0.000 N 
ATOM     12  C   UNL     1       4.719   5.360  17.692  0.00  0.00    +0.000 A 
ATOM     13  C   UNL     1       6.036   5.442  18.076  0.00  0.00    +0.000 A 
ATOM     14  N   UNL     1       6.087   5.385  19.422  0.00  0.00    +0.000 NA
ATOM     15  N   UNL     1       4.838   5.284  19.852  0.00  0.00    +0.000 NA
BRANCH  13  16
ATOM     16  C   UNL     1       7.258   5.477  17.179  0.00  0.00    +0.000 C 
BRANCH  16  17
ATOM     17  N   UNL     1       7.926   4.173  17.211  0.00  0.00    +0.000 NA
ATOM     18  H   UNL     1       7.699   3.627  16.346  0.00  0.00    +0.000 HD
ATOM     19  H   UNL     1       7.597   3.630  18.039  0.00  0.00    +0.000 HD
ENDBRANCH  16  17
BRANCH  16  20
ATOM     20  C   UNL     1       6.932   5.833  15.707  0.00  0.00    +0.000 C 
BRANCH  20  21
ATOM     21  C   UNL     1       6.956   4.650  14.704  0.00  0.00    +0.000 C 
ATOM     22  C   UNL     1       5.546   4.155  14.336  0.00  0.00    +0.000 C 
ATOM     23  C   UNL     1       7.679   5.092  13.422  0.00  0.00    +0.000 C 
ENDBRANCH  20  21
ENDBRANCH  16  20
ENDBRANCH  13  16
ENDBRANCH   1  11
BRANCH   1  24
ATOM     24  C   UNL     1       2.202   3.592  19.311  0.00  0.00    +0.000 C 
ATOM     25  C   UNL     1       1.107   3.050  18.369  0.00  0.00    +0.000 C 
BRANCH  24  27
ATOM     26  C   UNL     1       3.483   1.623  18.157  0.00  0.00    +0.000 C 
ATOM     27  C   UNL     1       3.436   2.640  19.298  0.00  0.00    +0.000 C 
ENDBRANCH  24  27
ENDBRANCH   1  24
TORSDOF 8
ENDMDL
MODEL 4
REMARK VINA RESULT:      -6.7      0.976      1.210
REMARK  Name = 
REMARK  12 active torsions:
REMARK  status: ('A' for Active; 'I' for Inactive)
REMARK    1  A    between atoms: C_1  and  C_2
REMARK    2  A    between atoms: C_2  and  C_3
REMARK    3  A    between atoms: C_3  and  C_4
REMARK    4  A    between atoms: C_3  and  C_5
REMARK    5  A    between atoms: C_5  and  C_6
REMARK    6  A    between atoms: C_5  and  N_14
REMARK    7  A    between atoms: C_16  and  C_17
REMARK    8  A    between atoms: C_17  and  N_18
REMARK    9  A    between atoms: C_17  and  C_19
REMARK   10  A    between atoms: C_19  and  C_20
REMARK   11  A    between atoms: C_20  and  C_21
REMARK   12  A    between atoms: C_20  and  C_22
REMARK                            x       y       z     vdW  Elec       q    Type
REMARK                         _______ _______ _______ _____ _____    ______ ____
ROOT
ATOM      1  C   UNL     1       5.954   5.245  18.407  0.00  0.00    +0.000 C 
ENDROOT
BRANCH   1   2
ATOM      2  C   UNL     1       4.558   5.413  19.047  0.00  0.00    +0.000 C 
ATOM      3  O   UNL     1       4.156   6.551  19.256  0.00  0.00    +0.000 OA
ATOM      4  N   UNL     1       3.728   4.339  19.336  0.00  0.00    +0.000 N 
ATOM      5  C   UNL     1       4.146   2.943  19.253  0.00  0.00    +0.000 C 
ATOM      6  C   UNL     1       3.984   2.316  20.647  0.00  0.00    +0.000 C 
ATOM      7  N   UNL     1       2.585   2.423  21.090  0.00  0.00    +0.000 NA
ATOM      8  C   UNL     1       2.158   3.830  21.157  0.00  0.00    +0.000 C 
ATOM      9  C   UNL     1       2.347   4.512  19.794  0.00  0.00    +0.000 C 
ATOM     10  H   UNL     1       2.501   2.004  22.046  0.00  0.00    +0.000 HD
ENDBRANCH   1   2
BRANCH   1  11
ATOM     11  N   UNL     1       5.790   5.427  16.961  0.00  0.00    +0.000 N 
ATOM     12  C   UNL     1       6.312   4.661  15.982  0.00  0.00    +0.000 A 
ATOM     13  C   UNL     1       5.950   5.254  14.796  0.00  0.00    +0.000 A 
ATOM     14  N   UNL     1       5.222   6.352  15.079  0.00  0.00    +0.000 NA
ATOM     15  N   UNL     1       5.130   6.425  16.398  0.00  0.00    +0.000 NA
BRANCH  13  16
ATOM     16  C   UNL     1       6.366   4.845  13.397  0.00  0.00    +0.000 C 
BRANCH  16  17
ATOM     17  N   UNL     1       7.767   5.213  13.174  0.00  0.00    +0.000 NA
ATOM     18  H   UNL     1       8.397   4.417  13.432  0.00  0.00    +0.000 HD
ATOM     19  H   UNL     1       8.013   6.034  13.771  0.00  0.00    +0.000 HD
ENDBRANCH  16  17
BRANCH  16  20
ATOM     20  C   UNL     1       6.200   3.330  13.122  0.00  0.00    +0.000 C 
BRANCH  20  21
ATOM     21  C   UNL     1       5.788   2.945  11.677  0.00  0.00    +0.000 C 
ATOM     22  C   UNL     1       6.060   1.465  11.356  0.00  0.00    +0.000 C 
ATOM     23  C   UNL     1       4.289   3.228  11.489  0.00  0.00    +0.000 C 
ENDBRANCH  20  21
ENDBRANCH  16  20
ENDBRANCH  13  16
ENDBRANCH   1  11
BRANCH   1  24
ATOM     24  C   UNL     1       7.068   6.197  18.962  0.00  0.00    +0.000 C 
ATOM     25  C   UNL     1       8.006   5.424  19.913  0.00  0.00    +0.000 C 
BRANCH  24  27
ATOM     26  C   UNL     1       7.805   8.425  17.805  0.00  0.00    +0.000 C 
ATOM     27  C   UNL     1       7.899   6.900  17.847  0.00  0.00    +0.000 C 
ENDBRANCH  24  27
ENDBRANCH   1  24
TORSDOF 8
ENDMDL
MODEL 5
REMARK VINA RESULT:      -6.7      3.516      7.191
REMARK  Name = 
REMARK  12 active torsions:
REMARK  status: ('A' for Active; 'I' for Inactive)
REMARK    1  A    between atoms: C_1  and  C_2
REMARK    2  A    between atoms: C_2  and  C_3
REMARK    3  A    between atoms: C_3  and  C_4
REMARK    4  A    between atoms: C_3  and  C_5
REMARK    5  A    between atoms: C_5  and  C_6
REMARK    6  A    between atoms: C_5  and  N_14
REMARK    7  A    between atoms: C_16  and  C_17
REMARK    8  A    between atoms: C_17  and  N_18
REMARK    9  A    between atoms: C_17  and  C_19
REMARK   10  A    between atoms: C_19  and  C_20
REMARK   11  A    between atoms: C_20  and  C_21
REMARK   12  A    between atoms: C_20  and  C_22
REMARK                            x       y       z     vdW  Elec       q    Type
REMARK                         _______ _______ _______ _____ _____    ______ ____
ROOT
ATOM      1  C   UNL     1       3.787   4.052  19.214  0.00  0.00    +0.000 C 
ENDROOT
BRANCH   1   2
ATOM      2  C   UNL     1       5.256   4.434  18.933  0.00  0.00    +0.000 C 
ATOM      3  O   UNL     1       5.981   4.666  19.892  0.00  0.00    +0.000 OA
ATOM      4  N   UNL     1       5.795   4.468  17.654  0.00  0.00    +0.000 N 
ATOM      5  C   UNL     1       5.003   4.340  16.435  0.00  0.00    +0.000 C 
ATOM      6  C   UNL     1       5.201   5.618  15.605  0.00  0.00    +0.000 C 
ATOM      7  N   UNL     1       6.627   5.802  15.292  0.00  0.00    +0.000 NA
ATOM      8  C   UNL     1       7.428   5.913  16.522  0.00  0.00    +0.000 C 
ATOM      9  C   UNL     1       7.225   4.675  17.407  0.00  0.00    +0.000 C 
ATOM     10  H   UNL     1       6.740   6.684  14.740  0.00  0.00    +0.000 HD
ENDBRANCH   1   2
BRANCH   1  11
ATOM     11  N   UNL     1       3.049   5.302  19.428  0.00  0.00    +0.000 N 
ATOM     12  C   UNL     1       3.084   6.409  18.659  0.00  0.00    +0.000 A 
ATOM     13  C   UNL     1       2.292   7.339  19.288  0.00  0.00    +0.000 A 
ATOM     14  N   UNL     1       1.797   6.781  20.410  0.00  0.00    +0.000 NA
ATOM     15  N   UNL     1       2.261   5.542  20.463  0.00  0.00    +0.000 NA
BRANCH  13  16
ATOM     16  C   UNL     1       2.073   8.785  18.888  0.00  0.00    +0.000 C 
BRANCH  16  17
ATOM     17  N   UNL     1       2.047   8.890  17.426  0.00  0.00    +0.000 NA
ATOM     18  H   UNL     1       2.343   7.985  16.991  0.00  0.00    +0.000 HD
ATOM     19  H   UNL     1       2.708   9.636  17.116  0.00  0.00    +0.000 HD
ENDBRANCH  16  17
BRANCH  16  20
ATOM     20  C   UNL     1       0.765   9.390  19.454  0.00  0.00    +0.000 C 
BRANCH  20  21
ATOM     21  C   UNL     1       0.152  10.559  18.639  0.00  0.00    +0.000 C 
ATOM     22  C   UNL     1      -1.232  10.217  18.060  0.00  0.00    +0.000 C 
ATOM     23  C   UNL     1       0.021  11.792  19.547  0.00  0.00    +0.000 C 
ENDBRANCH  20  21
ENDBRANCH  16  20
ENDBRANCH  13  16
ENDBRANCH   1  11
BRANCH   1  24
ATOM     24  C   UNL     1       3.093   3.184  18.109  0.00  0.00    +0.000 C 
ATOM     25  C   UNL     1       3.427   1.691  18.316  0.00  0.00    +0.000 C 
BRANCH  24  27
ATOM     26  C   UNL     1       0.718   2.460  18.933  0.00  0.00    +0.000 C 
ATOM     27  C   UNL     1       1.549   3.380  18.039  0.00  0.00    +0.000 C 
ENDBRANCH  24  27
ENDBRANCH   1  24
TORSDOF 8
ENDMDL
MODEL 6
REMARK VINA RESULT:      -6.6      1.170      1.499
REMARK  Name = 
REMARK  12 active torsions:
REMARK  status: ('A' for Active; 'I' for Inactive)
REMARK    1  A    between atoms: C_1  and  C_2
REMARK    2  A    between atoms: C_2  and  C_3
REMARK    3  A    between atoms: C_3  and  C_4
REMARK    4  A    between atoms: C_3  and  C_5
REMARK    5  A    between atoms: C_5  and  C_6
REMARK    6  A    between atoms: C_5  and  N_14
REMARK    7  A    between atoms: C_16  and  C_17
REMARK    8  A    between atoms: C_17  and  N_18
REMARK    9  A    between atoms: C_17  and  C_19
REMARK   10  A    between atoms: C_19  and  C_20
REMARK   11  A    between atoms: C_20  and  C_21
REMARK   12  A    between atoms: C_20  and  C_22
REMARK                            x       y       z     vdW  Elec       q    Type
REMARK                         _______ _______ _______ _____ _____    ______ ____
ROOT
ATOM      1  C   UNL     1       6.210   5.047  18.413  0.00  0.00    +0.000 C 
ENDROOT
BRANCH   1   2
ATOM      2  C   UNL     1       4.697   5.356  18.430  0.00  0.00    +0.000 C 
ATOM      3  O   UNL     1       4.346   6.515  18.252  0.00  0.00    +0.000 OA
ATOM      4  N   UNL     1       3.729   4.372  18.580  0.00  0.00    +0.000 N 
ATOM      5  C   UNL     1       4.026   2.986  18.927  0.00  0.00    +0.000 C 
ATOM      6  C   UNL     1       3.305   2.663  20.245  0.00  0.00    +0.000 C 
ATOM      7  N   UNL     1       1.857   2.872  20.095  0.00  0.00    +0.000 NA
ATOM      8  C   UNL     1       1.559   4.266  19.728  0.00  0.00    +0.000 C 
ATOM      9  C   UNL     1       2.297   4.649  18.436  0.00  0.00    +0.000 C 
ATOM     10  H   UNL     1       1.390   2.661  21.008  0.00  0.00    +0.000 HD
ENDBRANCH   1   2
BRANCH   1  11
ATOM     11  N   UNL     1       6.603   4.893  17.008  0.00  0.00    +0.000 N 
ATOM     12  C   UNL     1       5.818   5.043  15.923  0.00  0.00    +0.000 A 
ATOM     13  C   UNL     1       6.599   4.732  14.837  0.00  0.00    +0.000 A 
ATOM     14  N   UNL     1       7.829   4.408  15.282  0.00  0.00    +0.000 NA
ATOM     15  N   UNL     1       7.807   4.527  16.601  0.00  0.00    +0.000 NA
BRANCH  13  16
ATOM     16  C   UNL     1       6.169   4.647  13.385  0.00  0.00    +0.000 C 
BRANCH  16  17
ATOM     17  N   UNL     1       7.350   4.715  12.520  0.00  0.00    +0.000 NA
ATOM     18  H   UNL     1       7.136   4.304  11.580  0.00  0.00    +0.000 HD
ATOM     19  H   UNL     1       8.131   4.171  12.947  0.00  0.00    +0.000 HD
ENDBRANCH  16  17
BRANCH  16  20
ATOM     20  C   UNL     1       5.381   3.356  13.051  0.00  0.00    +0.000 C 
BRANCH  20  21
ATOM     21  C   UNL     1       5.328   2.966  11.551  0.00  0.00    +0.000 C 
ATOM     22  C   UNL     1       5.777   1.516  11.298  0.00  0.00    +0.000 C 
ATOM     23  C   UNL     1       3.890   3.139  11.036  0.00  0.00    +0.000 C 
ENDBRANCH  20  21
ENDBRANCH  16  20
ENDBRANCH  13  16
ENDBRANCH   1  11
BRANCH   1  24
ATOM     24  C   UNL     1       7.121   6.101  19.130  0.00  0.00    +0.000 C 
ATOM     25  C   UNL     1       8.041   5.404  20.153  0.00  0.00    +0.000 C 
BRANCH  24  27
ATOM     26  C   UNL     1       7.318   8.253  17.654  0.00  0.00    +0.000 C 
ATOM     27  C   UNL     1       7.971   6.961  18.147  0.00  0.00    +0.000 C 
ENDBRANCH  24  27
ENDBRANCH   1  24
TORSDOF 8
ENDMDL
MODEL 7
REMARK VINA RESULT:      -6.6      3.664      7.557
REMARK  Name = 
REMARK  12 active torsions:
REMARK  status: ('A' for Active; 'I' for Inactive)
REMARK    1  A    between atoms: C_1  and  C_2
REMARK    2  A    between atoms: C_2  and  C_3
REMARK    3  A    between atoms: C_3  and  C_4
REMARK    4  A    between atoms: C_3  and  C_5
REMARK    5  A    between atoms: C_5  and  C_6
REMARK    6  A    between atoms: C_5  and  N_14
REMARK    7  A    between atoms: C_16  and  C_17
REMARK    8  A    between atoms: C_17  and  N_18
REMARK    9  A    between atoms: C_17  and  C_19
REMARK   10  A    between atoms: C_19  and  C_20
REMARK   11  A    between atoms: C_20  and  C_21
REMARK   12  A    between atoms: C_20  and  C_22
REMARK                            x       y       z     vdW  Elec       q    Type
REMARK                         _______ _______ _______ _____ _____    ______ ____
ROOT
ATOM      1  C   UNL     1       3.754   4.266  19.107  0.00  0.00    +0.000 C 
ENDROOT
BRANCH   1   2
ATOM      2  C   UNL     1       5.251   4.484  18.799  0.00  0.00    +0.000 C 
ATOM      3  O   UNL     1       6.015   4.637  19.743  0.00  0.00    +0.000 OA
ATOM      4  N   UNL     1       5.767   4.457  17.510  0.00  0.00    +0.000 N 
ATOM      5  C   UNL     1       4.944   4.415  16.306  0.00  0.00    +0.000 C 
ATOM      6  C   UNL     1       5.265   5.662  15.468  0.00  0.00    +0.000 C 
ATOM      7  N   UNL     1       6.697   5.689  15.129  0.00  0.00    +0.000 NA
ATOM      8  C   UNL     1       7.527   5.714  16.344  0.00  0.00    +0.000 C 
ATOM      9  C   UNL     1       7.206   4.507  17.237  0.00  0.00    +0.000 C 
ATOM     10  H   UNL     1       6.895   6.553  14.572  0.00  0.00    +0.000 HD
ENDBRANCH   1   2
BRANCH   1  11
ATOM     11  N   UNL     1       3.134   5.592  19.199  0.00  0.00    +0.000 N 
ATOM     12  C   UNL     1       2.484   6.113  20.259  0.00  0.00    +0.000 A 
ATOM     13  C   UNL     1       2.020   7.342  19.858  0.00  0.00    +0.000 A 
ATOM     14  N   UNL     1       2.397   7.539  18.579  0.00  0.00    +0.000 NA
ATOM     15  N   UNL     1       3.082   6.468  18.209  0.00  0.00    +0.000 NA
BRANCH  13  16
ATOM     16  C   UNL     1       1.139   8.296  20.642  0.00  0.00    +0.000 C 
BRANCH  16  17
ATOM     17  N   UNL     1       1.754   8.573  21.943  0.00  0.00    +0.000 NA
ATOM     18  H   UNL     1       2.509   9.293  21.842  0.00  0.00    +0.000 HD
ATOM     19  H   UNL     1       2.182   7.700  22.322  0.00  0.00    +0.000 HD
ENDBRANCH  16  17
BRANCH  16  20
ATOM     20  C   UNL     1       0.885   9.640  19.915  0.00  0.00    +0.000 C 
BRANCH  20  21
ATOM     21  C   UNL     1      -0.572  10.168  19.960  0.00  0.00    +0.000 C 
ATOM     22  C   UNL     1      -0.701  11.490  20.738  0.00  0.00    +0.000 C 
ATOM     23  C   UNL     1      -1.074  10.384  18.524  0.00  0.00    +0.000 C 
ENDBRANCH  20  21
ENDBRANCH  16  20
ENDBRANCH  13  16
ENDBRANCH   1  11
BRANCH   1  24
ATOM     24  C   UNL     1       2.981   3.363  18.086  0.00  0.00    +0.000 C 
ATOM     25  C   UNL     1       3.404   1.888  18.251  0.00  0.00    +0.000 C 
BRANCH  24  27
ATOM     26  C   UNL     1       0.791   2.835  19.417  0.00  0.00    +0.000 C 
ATOM     27  C   UNL     1       1.431   3.489  18.192  0.00  0.00    +0.000 C 
ENDBRANCH  24  27
ENDBRANCH   1  24
TORSDOF 8
ENDMDL
MODEL 8
REMARK VINA RESULT:      -6.6      3.943      7.690
REMARK  Name = 
REMARK  12 active torsions:
REMARK  status: ('A' for Active; 'I' for Inactive)
REMARK    1  A    between atoms: C_1  and  C_2
REMARK    2  A    between atoms: C_2  and  C_3
REMARK    3  A    between atoms: C_3  and  C_4
REMARK    4  A    between atoms: C_3  and  C_5
REMARK    5  A    between atoms: C_5  and  C_6
REMARK    6  A    between atoms: C_5  and  N_14
REMARK    7  A    between atoms: C_16  and  C_17
REMARK    8  A    between atoms: C_17  and  N_18
REMARK    9  A    between atoms: C_17  and  C_19
REMARK   10  A    between atoms: C_19  and  C_20
REMARK   11  A    between atoms: C_20  and  C_21
REMARK   12  A    between atoms: C_20  and  C_22
REMARK                            x       y       z     vdW  Elec       q    Type
REMARK                         _______ _______ _______ _____ _____    ______ ____
ROOT
ATOM      1  C   UNL     1       3.380   4.720  19.126  0.00  0.00    +0.000 C 
ENDROOT
BRANCH   1   2
ATOM      2  C   UNL     1       3.818   4.600  17.650  0.00  0.00    +0.000 C 
ATOM      3  O   UNL     1       3.016   4.136  16.850  0.00  0.00    +0.000 OA
ATOM      4  N   UNL     1       5.049   5.047  17.190  0.00  0.00    +0.000 N 
ATOM      5  C   UNL     1       6.129   5.494  18.064  0.00  0.00    +0.000 C 
ATOM      6  C   UNL     1       7.347   4.591  17.813  0.00  0.00    +0.000 C 
ATOM      7  N   UNL     1       7.747   4.663  16.399  0.00  0.00    +0.000 NA
ATOM      8  C   UNL     1       6.651   4.229  15.517  0.00  0.00    +0.000 C 
ATOM      9  C   UNL     1       5.395   5.076  15.767  0.00  0.00    +0.000 C 
ATOM     10  H   UNL     1       8.567   4.030  16.248  0.00  0.00    +0.000 HD
ENDBRANCH   1   2
BRANCH   1  11
ATOM     11  N   UNL     1       2.817   6.063  19.302  0.00  0.00    +0.000 N 
ATOM     12  C   UNL     1       2.223   6.557  20.406  0.00  0.00    +0.000 A 
ATOM     13  C   UNL     1       1.795   7.821  20.080  0.00  0.00    +0.000 A 
ATOM     14  N   UNL     1       2.138   8.064  18.799  0.00  0.00    +0.000 NA
ATOM     15  N   UNL     1       2.767   6.987  18.356  0.00  0.00    +0.000 NA
BRANCH  13  16
ATOM     16  C   UNL     1       0.979   8.769  20.938  0.00  0.00    +0.000 C 
BRANCH  16  17
ATOM     17  N   UNL     1       1.672   8.998  22.209  0.00  0.00    +0.000 NA
ATOM     18  H   UNL     1       2.692   9.167  22.041  0.00  0.00    +0.000 HD
ATOM     19  H   UNL     1       1.573   8.157  22.819  0.00  0.00    +0.000 HD
ENDBRANCH  16  17
BRANCH  16  20
ATOM     20  C   UNL     1       0.712  10.137  20.262  0.00  0.00    +0.000 C 
BRANCH  20  21
ATOM     21  C   UNL     1      -0.732  10.364  19.743  0.00  0.00    +0.000 C 
ATOM     22  C   UNL     1      -1.306  11.729  20.161  0.00  0.00    +0.000 C 
ATOM     23  C   UNL     1      -0.735  10.271  18.209  0.00  0.00    +0.000 C 
ENDBRANCH  20  21
ENDBRANCH  16  20
ENDBRANCH  13  16
ENDBRANCH   1  11
BRANCH   1  24
ATOM     24  C   UNL     1       2.372   3.628  19.621  0.00  0.00    +0.000 C 
ATOM     25  C   UNL     1       2.905   2.219  19.288  0.00  0.00    +0.000 C 
BRANCH  24  27
ATOM     26  C   UNL     1       1.449   2.471  21.779  0.00  0.00    +0.000 C 
ATOM     27  C   UNL     1       2.040   3.728  21.140  0.00  0.00    +0.000 C 
ENDBRANCH  24  27
ENDBRANCH   1  24
TORSDOF 8
ENDMDL
MODEL 9
REMARK VINA RESULT:      -6.6      1.641      2.342
REMARK  Name = 
REMARK  12 active torsions:
REMARK  status: ('A' for Active; 'I' for Inactive)
REMARK    1  A    between atoms: C_1  and  C_2
REMARK    2  A    between atoms: C_2  and  C_3
REMARK    3  A    between atoms: C_3  and  C_4
REMARK    4  A    between atoms: C_3  and  C_5
REMARK    5  A    between atoms: C_5  and  C_6
REMARK    6  A    between atoms: C_5  and  N_14
REMARK    7  A    between atoms: C_16  and  C_17
REMARK    8  A    between atoms: C_17  and  N_18
REMARK    9  A    between atoms: C_17  and  C_19
REMARK   10  A    between atoms: C_19  and  C_20
REMARK   11  A    between atoms: C_20  and  C_21
REMARK   12  A    between atoms: C_20  and  C_22
REMARK                            x       y       z     vdW  Elec       q    Type
REMARK                         _______ _______ _______ _____ _____    ______ ____
ROOT
ATOM      1  C   UNL     1       5.314   4.775  17.658  0.00  0.00    +0.000 C 
ENDROOT
BRANCH   1   2
ATOM      2  C   UNL     1       4.112   3.841  17.398  0.00  0.00    +0.000 C 
ATOM      3  O   UNL     1       3.707   3.734  16.248  0.00  0.00    +0.000 OA
ATOM      4  N   UNL     1       3.517   3.083  18.398  0.00  0.00    +0.000 N 
ATOM      5  C   UNL     1       3.826   3.224  19.817  0.00  0.00    +0.000 C 
ATOM      6  C   UNL     1       2.529   3.605  20.548  0.00  0.00    +0.000 C 
ATOM      7  N   UNL     1       1.503   2.574  20.330  0.00  0.00    +0.000 NA
ATOM      8  C   UNL     1       1.205   2.419  18.897  0.00  0.00    +0.000 C 
ATOM      9  C   UNL     1       2.484   2.082  18.117  0.00  0.00    +0.000 C 
ATOM     10  H   UNL     1       0.626   2.862  20.824  0.00  0.00    +0.000 HD
ENDBRANCH   1   2
BRANCH   1  11
ATOM     11  N   UNL     1       6.127   4.781  16.437  0.00  0.00    +0.000 N 
ATOM     12  C   UNL     1       5.708   5.040  15.182  0.00  0.00    +0.000 A 
ATOM     13  C   UNL     1       6.800   4.861  14.368  0.00  0.00    +0.000 A 
ATOM     14  N   UNL     1       7.846   4.503  15.138  0.00  0.00    +0.000 NA
ATOM     15  N   UNL     1       7.413   4.476  16.389  0.00  0.00    +0.000 NA
BRANCH  13  16
ATOM     16  C   UNL     1       6.842   4.931  12.854  0.00  0.00    +0.000 C 
BRANCH  16  17
ATOM     17  N   UNL     1       7.969   5.768  12.433  0.00  0.00    +0.000 NA
ATOM     18  H   UNL     1       7.782   6.182  11.489  0.00  0.00    +0.000 HD
ATOM     19  H   UNL     1       8.834   5.187  12.372  0.00  0.00    +0.000 HD
ENDBRANCH  16  17
BRANCH  16  20
ATOM     20  C   UNL     1       6.971   3.545  12.175  0.00  0.00    +0.000 C 
BRANCH  20  21
ATOM     21  C   UNL     1       5.674   2.698  12.114  0.00  0.00    +0.000 C 
ATOM     22  C   UNL     1       4.489   3.470  11.507  0.00  0.00    +0.000 C 
ATOM     23  C   UNL     1       5.933   1.440  11.270  0.00  0.00    +0.000 C 
ENDBRANCH  20  21
ENDBRANCH  16  20
ENDBRANCH  13  16
ENDBRANCH   1  11
BRANCH   1  24
ATOM     24  C   UNL     1       4.951   6.237  18.088  0.00  0.00    +0.000 C 
ATOM     25  C   UNL     1       5.986   7.232  17.523  0.00  0.00    +0.000 C 
BRANCH  24  27
ATOM     26  C   UNL     1       2.539   6.942  18.820  0.00  0.00    +0.000 C 
ATOM     27  C   UNL     1       3.513   6.670  17.672  0.00  0.00    +0.000 C 
ENDBRANCH  24  27
ENDBRANCH   1  24
TORSDOF 8
ENDMDL
