MODEL 1
REMARK VINA RESULT:      -8.1      0.000      0.000
REMARK  Name = 
REMARK  7 active torsions:
REMARK  status: ('A' for Active; 'I' for Inactive)
REMARK    1  A    between atoms: C_8  and  C_9
REMARK    2  A    between atoms: C_9  and  N_10
REMARK    3  A    between atoms: N_17  and  C_18
REMARK    4  A    between atoms: C_18  and  C_19
REMARK    5  A    between atoms: C_19  and  C_20
REMARK    6  A    between atoms: C_20  and  C_21
REMARK    7  A    between atoms: C_21  and  N_22
REMARK                            x       y       z     vdW  Elec       q    Type
REMARK                         _______ _______ _______ _____ _____    ______ ____
ROOT
ATOM      1 BR   UNL     1       5.964   3.135  11.988  0.00  0.00    +0.000 Br
ATOM      2  C   UNL     1       6.242   3.994  13.653  0.00  0.00    +0.000 A 
ATOM      3  C   UNL     1       7.433   4.671  13.889  0.00  0.00    +0.000 A 
ATOM      4  C   UNL     1       7.656   5.319  15.110  0.00  0.00    +0.000 A 
ATOM      5  C   UNL     1       6.645   5.268  16.084  0.00  0.00    +0.000 A 
ATOM      6  C   UNL     1       5.442   4.585  15.863  0.00  0.00    +0.000 A 
ATOM      7  C   UNL     1       5.243   3.936  14.624  0.00  0.00    +0.000 A 
ATOM      8  C   UNL     1       4.642   4.707  17.040  0.00  0.00    +0.000 A 
ATOM      9  C   UNL     1       5.363   5.482  17.926  0.00  0.00    +0.000 A 
ATOM     10  N   UNL     1       6.565   5.804  17.355  0.00  0.00    +0.000 N 
ENDROOT
BRANCH   8  11
ATOM     11  C   UNL     1       3.270   4.156  17.273  0.00  0.00    +0.000 C 
BRANCH  11  12
ATOM     12  N   UNL     1       2.985   3.963  18.711  0.00  0.00    +0.000 NA
ATOM     13  C   UNL     1       2.137   5.046  19.238  0.00  0.00    +0.000 C 
ATOM     14  C   UNL     1       1.710   4.810  20.688  0.00  0.00    +0.000 C 
ATOM     15  C   UNL     1       1.027   3.459  20.847  0.00  0.00    +0.000 C 
ATOM     16  C   UNL     1       1.947   2.363  20.332  0.00  0.00    +0.000 C 
ATOM     17  C   UNL     1       2.369   2.638  18.890  0.00  0.00    +0.000 C 
ENDBRANCH  11  12
ENDBRANCH   8  11
BRANCH  10  18
ATOM     18  C   UNL     1       7.578   6.609  18.022  0.00  0.00    +0.000 C 
BRANCH  18  19
ATOM     19  C   UNL     1       7.586   8.071  17.573  0.00  0.00    +0.000 C 
BRANCH  19  20
ATOM     20  C   UNL     1       8.634   8.913  18.310  0.00  0.00    +0.000 C 
BRANCH  20  21
ATOM     21  C   UNL     1       8.229  10.391  18.400  0.00  0.00    +0.000 C 
BRANCH  21  22
ATOM     22  N   UNL     1       9.351  11.297  18.696  0.00  0.00    +0.000 NA
ATOM     23  C   UNL     1       9.734  11.269  20.116  0.00  0.00    +0.000 C 
ATOM     24  C   UNL     1      10.857  12.266  20.407  0.00  0.00    +0.000 C 
ATOM     25  C   UNL     1      12.067  12.005  19.522  0.00  0.00    +0.000 C 
ATOM     26  C   UNL     1      11.650  11.964  18.058  0.00  0.00    +0.000 C 
ATOM     27  C   UNL     1      10.501  10.983  17.833  0.00  0.00    +0.000 C 
ENDBRANCH  21  22
ENDBRANCH  20  21
ENDBRANCH  19  20
ENDBRANCH  18  19
ENDBRANCH  10  18
TORSDOF 7
ENDMDL
MODEL 2
REMARK VINA RESULT:      -7.8      0.737      1.122
REMARK  Name = 
REMARK  7 active torsions:
REMARK  status: ('A' for Active; 'I' for Inactive)
REMARK    1  A    between atoms: C_8  and  C_9
REMARK    2  A    between atoms: C_9  and  N_10
REMARK    3  A    between atoms: N_17  and  C_18
REMARK    4  A    between atoms: C_18  and  C_19
REMARK    5  A    between atoms: C_19  and  C_20
REMARK    6  A    between atoms: C_20  and  C_21
REMARK    7  A    between atoms: C_21  and  N_22
REMARK                            x       y       z     vdW  Elec       q    Type
REMARK                         _______ _______ _______ _____ _____    ______ ____
ROOT
ATOM      1 BR   UNL     1       5.859   3.168  12.131  0.00  0.00    +0.000 Br
ATOM      2  C   UNL     1       6.204   3.946  13.822  0.00  0.00    +0.000 A 
ATOM      3  C   UNL     1       7.214   4.892  13.953  0.00  0.00    +0.000 A 
ATOM      4  C   UNL     1       7.481   5.485  15.194  0.00  0.00    +0.000 A 
ATOM      5  C   UNL     1       6.700   5.101  16.296  0.00  0.00    +0.000 A 
ATOM      6  C   UNL     1       5.682   4.145  16.181  0.00  0.00    +0.000 A 
ATOM      7  C   UNL     1       5.435   3.558  14.919  0.00  0.00    +0.000 A 
ATOM      8  C   UNL     1       5.095   3.967  17.471  0.00  0.00    +0.000 A 
ATOM      9  C   UNL     1       5.747   4.837  18.322  0.00  0.00    +0.000 A 
ATOM     10  N   UNL     1       6.714   5.503  17.618  0.00  0.00    +0.000 N 
ENDROOT
BRANCH   8  11
ATOM     11  C   UNL     1       3.963   3.062  17.843  0.00  0.00    +0.000 C 
BRANCH  11  12
ATOM     12  N   UNL     1       3.278   3.504  19.075  0.00  0.00    +0.000 NA
ATOM     13  C   UNL     1       2.571   4.779  18.866  0.00  0.00    +0.000 C 
ATOM     14  C   UNL     1       1.740   5.200  20.080  0.00  0.00    +0.000 C 
ATOM     15  C   UNL     1       0.769   4.102  20.489  0.00  0.00    +0.000 C 
ATOM     16  C   UNL     1       1.538   2.813  20.737  0.00  0.00    +0.000 C 
ATOM     17  C   UNL     1       2.371   2.431  19.514  0.00  0.00    +0.000 C 
ENDBRANCH  11  12
ENDBRANCH   8  11
BRANCH  10  18
ATOM     18  C   UNL     1       7.599   6.494  18.213  0.00  0.00    +0.000 C 
BRANCH  18  19
ATOM     19  C   UNL     1       7.371   7.910  17.682  0.00  0.00    +0.000 C 
BRANCH  19  20
ATOM     20  C   UNL     1       8.626   8.786  17.769  0.00  0.00    +0.000 C 
BRANCH  20  21
ATOM     21  C   UNL     1       8.347  10.129  18.458  0.00  0.00    +0.000 C 
BRANCH  21  22
ATOM     22  N   UNL     1       9.551  10.951  18.667  0.00  0.00    +0.000 NA
ATOM     23  C   UNL     1       9.499  12.220  17.924  0.00  0.00    +0.000 C 
ATOM     24  C   UNL     1      10.788  13.022  18.107  0.00  0.00    +0.000 C 
ATOM     25  C   UNL     1      11.072  13.277  19.580  0.00  0.00    +0.000 C 
ATOM     26  C   UNL     1      11.052  11.966  20.356  0.00  0.00    +0.000 C 
ATOM     27  C   UNL     1       9.761  11.189  20.104  0.00  0.00    +0.000 C 
ENDBRANCH  21  22
ENDBRANCH  20  21
ENDBRANCH  19  20
ENDBRANCH  18  19
ENDBRANCH  10  18
TORSDOF 7
ENDMDL
MODEL 3
REMARK VINA RESULT:      -7.4      1.040      1.732
REMARK  Name = 
REMARK  7 active torsions:
REMARK  status: ('A' for Active; 'I' for Inactive)
REMARK    1  A    between atoms: C_8  and  C_9
REMARK    2  A    between atoms: C_9  and  N_10
REMARK    3  A    between atoms: N_17  and  C_18
REMARK    4  A    between atoms: C_18  and  C_19
REMARK    5  A    between atoms: C_19  and  C_20
REMARK    6  A    between atoms: C_20  and  C_21
REMARK    7  A    between atoms: C_21  and  N_22
REMARK                            x       y       z     vdW  Elec       q    Type
REMARK                         _______ _______ _______ _____ _____    ______ ____
ROOT
ATOM      1 BR   UNL     1       5.547   3.236  12.386  0.00  0.00    +0.000 Br
ATOM      2  C   UNL     1       5.966   4.170  13.978  0.00  0.00    +0.000 A 
ATOM      3  C   UNL     1       7.258   4.643  14.180  0.00  0.00    +0.000 A 
ATOM      4  C   UNL     1       7.588   5.343  15.347  0.00  0.00    +0.000 A 
ATOM      5  C   UNL     1       6.581   5.557  16.302  0.00  0.00    +0.000 A 
ATOM      6  C   UNL     1       5.276   5.082  16.115  0.00  0.00    +0.000 A 
ATOM      7  C   UNL     1       4.969   4.374  14.931  0.00  0.00    +0.000 A 
ATOM      8  C   UNL     1       4.505   5.444  17.262  0.00  0.00    +0.000 A 
ATOM      9  C   UNL     1       5.350   6.152  18.095  0.00  0.00    +0.000 A 
ATOM     10  N   UNL     1       6.592   6.205  17.522  0.00  0.00    +0.000 N 
ENDROOT
BRANCH   8  11
ATOM     11  C   UNL     1       3.057   5.168  17.514  0.00  0.00    +0.000 C 
BRANCH  11  12
ATOM     12  N   UNL     1       2.857   3.980  18.370  0.00  0.00    +0.000 NA
ATOM     13  C   UNL     1       4.018   3.076  18.310  0.00  0.00    +0.000 C 
ATOM     14  C   UNL     1       3.906   1.902  19.286  0.00  0.00    +0.000 C 
ATOM     15  C   UNL     1       3.672   2.391  20.708  0.00  0.00    +0.000 C 
ATOM     16  C   UNL     1       2.442   3.286  20.739  0.00  0.00    +0.000 C 
ATOM     17  C   UNL     1       2.579   4.435  19.742  0.00  0.00    +0.000 C 
ENDBRANCH  11  12
ENDBRANCH   8  11
BRANCH  10  18
ATOM     18  C   UNL     1       7.730   6.872  18.139  0.00  0.00    +0.000 C 
BRANCH  18  19
ATOM     19  C   UNL     1       7.929   8.309  17.655  0.00  0.00    +0.000 C 
BRANCH  19  20
ATOM     20  C   UNL     1       8.654   9.186  18.682  0.00  0.00    +0.000 C 
BRANCH  20  21
ATOM     21  C   UNL     1       9.184  10.486  18.060  0.00  0.00    +0.000 C 
BRANCH  21  22
ATOM     22  N   UNL     1       9.841  11.382  19.026  0.00  0.00    +0.000 NA
ATOM     23  C   UNL     1       9.727  12.798  18.644  0.00  0.00    +0.000 C 
ATOM     24  C   UNL     1      10.473  13.700  19.629  0.00  0.00    +0.000 C 
ATOM     25  C   UNL     1       9.976  13.489  21.052  0.00  0.00    +0.000 C 
ATOM     26  C   UNL     1      10.030  12.011  21.415  0.00  0.00    +0.000 C 
ATOM     27  C   UNL     1       9.304  11.155  20.378  0.00  0.00    +0.000 C 
ENDBRANCH  21  22
ENDBRANCH  20  21
ENDBRANCH  19  20
ENDBRANCH  18  19
ENDBRANCH  10  18
TORSDOF 7
ENDMDL
MODEL 4
REMARK VINA RESULT:      -7.2      1.243      1.961
REMARK  Name = 
REMARK  7 active torsions:
REMARK  status: ('A' for Active; 'I' for Inactive)
REMARK    1  A    between atoms: C_8  and  C_9
REMARK    2  A    between atoms: C_9  and  N_10
REMARK    3  A    between atoms: N_17  and  C_18
REMARK    4  A    between atoms: C_18  and  C_19
REMARK    5  A    between atoms: C_19  and  C_20
REMARK    6  A    between atoms: C_20  and  C_21
REMARK    7  A    between atoms: C_21  and  N_22
REMARK                            x       y       z     vdW  Elec       q    Type
REMARK                         _______ _______ _______ _____ _____    ______ ____
ROOT
ATOM      1 BR   UNL     1       5.388   3.250  13.169  0.00  0.00    +0.000 Br
ATOM      2  C   UNL     1       6.046   4.217  14.657  0.00  0.00    +0.000 A 
ATOM      3  C   UNL     1       6.934   5.269  14.457  0.00  0.00    +0.000 A 
ATOM      4  C   UNL     1       7.427   6.003  15.543  0.00  0.00    +0.000 A 
ATOM      5  C   UNL     1       7.000   5.650  16.834  0.00  0.00    +0.000 A 
ATOM      6  C   UNL     1       6.111   4.589  17.051  0.00  0.00    +0.000 A 
ATOM      7  C   UNL     1       5.631   3.861  15.939  0.00  0.00    +0.000 A 
ATOM      8  C   UNL     1       5.892   4.477  18.458  0.00  0.00    +0.000 A 
ATOM      9  C   UNL     1       6.624   5.487  19.051  0.00  0.00    +0.000 A 
ATOM     10  N   UNL     1       7.295   6.176  18.077  0.00  0.00    +0.000 N 
ENDROOT
BRANCH   8  11
ATOM     11  C   UNL     1       5.010   3.501  19.171  0.00  0.00    +0.000 C 
BRANCH  11  12
ATOM     12  N   UNL     1       3.719   3.307  18.477  0.00  0.00    +0.000 NA
ATOM     13  C   UNL     1       3.052   2.072  18.924  0.00  0.00    +0.000 C 
ATOM     14  C   UNL     1       1.653   1.907  18.327  0.00  0.00    +0.000 C 
ATOM     15  C   UNL     1       0.787   3.125  18.612  0.00  0.00    +0.000 C 
ATOM     16  C   UNL     1       1.487   4.375  18.101  0.00  0.00    +0.000 C 
ATOM     17  C   UNL     1       2.886   4.500  18.701  0.00  0.00    +0.000 C 
ENDBRANCH  11  12
ENDBRANCH   8  11
BRANCH  10  18
ATOM     18  C   UNL     1       8.171   7.305  18.354  0.00  0.00    +0.000 C 
BRANCH  18  19
ATOM     19  C   UNL     1       7.624   8.640  17.847  0.00  0.00    +0.000 C 
BRANCH  19  20
ATOM     20  C   UNL     1       8.680   9.750  17.838  0.00  0.00    +0.000 C 
BRANCH  20  21
ATOM     21  C   UNL     1       9.165  10.097  19.253  0.00  0.00    +0.000 C 
BRANCH  21  22
ATOM     22  N   UNL     1      10.179  11.166  19.288  0.00  0.00    +0.000 NA
ATOM     23  C   UNL     1      10.342  11.825  17.982  0.00  0.00    +0.000 C 
ATOM     24  C   UNL     1      11.444  12.884  18.031  0.00  0.00    +0.000 C 
ATOM     25  C   UNL     1      11.171  13.913  19.119  0.00  0.00    +0.000 C 
ATOM     26  C   UNL     1      10.932  13.218  20.453  0.00  0.00    +0.000 C 
ATOM     27  C   UNL     1       9.851  12.144  20.336  0.00  0.00    +0.000 C 
ENDBRANCH  21  22
ENDBRANCH  20  21
ENDBRANCH  19  20
ENDBRANCH  18  19
ENDBRANCH  10  18
TORSDOF 7
ENDMDL
MODEL 5
REMARK VINA RESULT:      -7.1      4.255      6.578
REMARK  Name = 
REMARK  7 active torsions:
REMARK  status: ('A' for Active; 'I' for Inactive)
REMARK    1  A    between atoms: C_8  and  C_9
REMARK    2  A    between atoms: C_9  and  N_10
REMARK    3  A    between atoms: N_17  and  C_18
REMARK    4  A    between atoms: C_18  and  C_19
REMARK    5  A    between atoms: C_19  and  C_20
REMARK    6  A    between atoms: C_20  and  C_21
REMARK    7  A    between atoms: C_21  and  N_22
REMARK                            x       y       z     vdW  Elec       q    Type
REMARK                         _______ _______ _______ _____ _____    ______ ____
ROOT
ATOM      1 BR   UNL     1       7.172   4.649  14.924  0.00  0.00    +0.000 Br
ATOM      2  C   UNL     1       5.802   5.413  15.984  0.00  0.00    +0.000 A 
ATOM      3  C   UNL     1       5.856   6.763  16.313  0.00  0.00    +0.000 A 
ATOM      4  C   UNL     1       4.849   7.350  17.089  0.00  0.00    +0.000 A 
ATOM      5  C   UNL     1       3.786   6.541  17.522  0.00  0.00    +0.000 A 
ATOM      6  C   UNL     1       3.720   5.179  17.204  0.00  0.00    +0.000 A 
ATOM      7  C   UNL     1       4.750   4.609  16.422  0.00  0.00    +0.000 A 
ATOM      8  C   UNL     1       2.539   4.641  17.801  0.00  0.00    +0.000 A 
ATOM      9  C   UNL     1       1.907   5.693  18.435  0.00  0.00    +0.000 A 
ATOM     10  N   UNL     1       2.663   6.823  18.277  0.00  0.00    +0.000 N 
ENDROOT
BRANCH   8  11
ATOM     11  C   UNL     1       2.036   3.234  17.727  0.00  0.00    +0.000 C 
BRANCH  11  12
ATOM     12  N   UNL     1       2.067   2.562  19.043  0.00  0.00    +0.000 NA
ATOM     13  C   UNL     1       3.390   2.689  19.678  0.00  0.00    +0.000 C 
ATOM     14  C   UNL     1       3.421   2.122  21.099  0.00  0.00    +0.000 C 
ATOM     15  C   UNL     1       2.341   2.752  21.966  0.00  0.00    +0.000 C 
ATOM     16  C   UNL     1       0.985   2.566  21.300  0.00  0.00    +0.000 C 
ATOM     17  C   UNL     1       0.994   3.125  19.879  0.00  0.00    +0.000 C 
ENDBRANCH  11  12
ENDBRANCH   8  11
BRANCH  10  18
ATOM     18  C   UNL     1       2.293   8.118  18.829  0.00  0.00    +0.000 C 
BRANCH  18  19
ATOM     19  C   UNL     1       1.895   9.142  17.765  0.00  0.00    +0.000 C 
BRANCH  19  20
ATOM     20  C   UNL     1       1.235  10.391  18.360  0.00  0.00    +0.000 C 
BRANCH  20  21
ATOM     21  C   UNL     1      -0.069  10.058  19.099  0.00  0.00    +0.000 C 
BRANCH  21  22
ATOM     22  N   UNL     1      -0.055  10.430  20.524  0.00  0.00    +0.000 NA
ATOM     23  C   UNL     1      -1.045  11.472  20.841  0.00  0.00    +0.000 C 
ATOM     24  C   UNL     1      -0.963  11.884  22.312  0.00  0.00    +0.000 C 
ATOM     25  C   UNL     1      -1.139  10.683  23.230  0.00  0.00    +0.000 C 
ATOM     26  C   UNL     1      -0.160   9.581  22.849  0.00  0.00    +0.000 C 
ATOM     27  C   UNL     1      -0.256   9.238  21.363  0.00  0.00    +0.000 C 
ENDBRANCH  21  22
ENDBRANCH  20  21
ENDBRANCH  19  20
ENDBRANCH  18  19
ENDBRANCH  10  18
TORSDOF 7
ENDMDL
MODEL 6
REMARK VINA RESULT:      -7.1      3.168      4.204
REMARK  Name = 
REMARK  7 active torsions:
REMARK  status: ('A' for Active; 'I' for Inactive)
REMARK    1  A    between atoms: C_8  and  C_9
REMARK    2  A    between atoms: C_9  and  N_10
REMARK    3  A    between atoms: N_17  and  C_18
REMARK    4  A    between atoms: C_18  and  C_19
REMARK    5  A    between atoms: C_19  and  C_20
REMARK    6  A    between atoms: C_20  and  C_21
REMARK    7  A    between atoms: C_21  and  N_22
REMARK                            x       y       z     vdW  Elec       q    Type
REMARK                         _______ _______ _______ _____ _____    ______ ____
ROOT
ATOM      1 BR   UNL     1       1.007   2.466  18.859  0.00  0.00    +0.000 Br
ATOM      2  C   UNL     1       2.385   3.673  18.381  0.00  0.00    +0.000 A 
ATOM      3  C   UNL     1       3.672   3.196  18.155  0.00  0.00    +0.000 A 
ATOM      4  C   UNL     1       4.704   4.071  17.792  0.00  0.00    +0.000 A 
ATOM      5  C   UNL     1       4.404   5.436  17.661  0.00  0.00    +0.000 A 
ATOM      6  C   UNL     1       3.115   5.932  17.891  0.00  0.00    +0.000 A 
ATOM      7  C   UNL     1       2.091   5.031  18.260  0.00  0.00    +0.000 A 
ATOM      8  C   UNL     1       3.143   7.347  17.694  0.00  0.00    +0.000 A 
ATOM      9  C   UNL     1       4.434   7.665  17.322  0.00  0.00    +0.000 A 
ATOM     10  N   UNL     1       5.187   6.521  17.316  0.00  0.00    +0.000 N 
ENDROOT
BRANCH   8  11
ATOM     11  C   UNL     1       2.004   8.310  17.812  0.00  0.00    +0.000 C 
BRANCH  11  12
ATOM     12  N   UNL     1       1.963   8.964  19.137  0.00  0.00    +0.000 NA
ATOM     13  C   UNL     1       1.100  10.157  19.118  0.00  0.00    +0.000 C 
ATOM     14  C   UNL     1       0.926  10.783  20.503  0.00  0.00    +0.000 C 
ATOM     15  C   UNL     1       0.415   9.761  21.508  0.00  0.00    +0.000 C 
ATOM     16  C   UNL     1       1.352   8.563  21.531  0.00  0.00    +0.000 C 
ATOM     17  C   UNL     1       1.519   7.973  20.132  0.00  0.00    +0.000 C 
ENDBRANCH  11  12
ENDBRANCH   8  11
BRANCH  10  18
ATOM     18  C   UNL     1       6.603   6.496  16.976  0.00  0.00    +0.000 C 
BRANCH  18  19
ATOM     19  C   UNL     1       7.500   7.088  18.063  0.00  0.00    +0.000 C 
BRANCH  19  20
ATOM     20  C   UNL     1       7.902   8.540  17.775  0.00  0.00    +0.000 C 
BRANCH  20  21
ATOM     21  C   UNL     1       8.857   9.096  18.840  0.00  0.00    +0.000 C 
BRANCH  21  22
ATOM     22  N   UNL     1       8.879  10.568  18.907  0.00  0.00    +0.000 NA
ATOM     23  C   UNL     1      10.189  11.089  19.328  0.00  0.00    +0.000 C 
ATOM     24  C   UNL     1      10.163  12.614  19.452  0.00  0.00    +0.000 C 
ATOM     25  C   UNL     1       9.723  13.265  18.149  0.00  0.00    +0.000 C 
ATOM     26  C   UNL     1       8.402  12.667  17.682  0.00  0.00    +0.000 C 
ATOM     27  C   UNL     1       8.472  11.142  17.615  0.00  0.00    +0.000 C 
ENDBRANCH  21  22
ENDBRANCH  20  21
ENDBRANCH  19  20
ENDBRANCH  18  19
ENDBRANCH  10  18
TORSDOF 7
ENDMDL
MODEL 7
REMARK VINA RESULT:      -6.9      4.447      6.842
REMARK  Name = 
REMARK  7 active torsions:
REMARK  status: ('A' for Active; 'I' for Inactive)
REMARK    1  A    between atoms: C_8  and  C_9
REMARK    2  A    between atoms: C_9  and  N_10
REMARK    3  A    between atoms: N_17  and  C_18
REMARK    4  A    between atoms: C_18  and  C_19
REMARK    5  A    between atoms: C_19  and  C_20
REMARK    6  A    between atoms: C_20  and  C_21
REMARK    7  A    between atoms: C_21  and  N_22
REMARK                            x       y       z     vdW  Elec       q    Type
REMARK                         _______ _______ _______ _____ _____    ______ ____
ROOT
ATOM      1 BR   UNL     1      -0.369  10.585  19.931  0.00  0.00    +0.000 Br
ATOM      2  C   UNL     1       0.982   9.476  19.202  0.00  0.00    +0.000 A 
ATOM      3  C   UNL     1       1.682   9.892  18.075  0.00  0.00    +0.000 A 
ATOM      4  C   UNL     1       2.690   9.091  17.524  0.00  0.00    +0.000 A 
ATOM      5  C   UNL     1       2.975   7.862  18.142  0.00  0.00    +0.000 A 
ATOM      6  C   UNL     1       2.274   7.427  19.274  0.00  0.00    +0.000 A 
ATOM      7  C   UNL     1       1.259   8.251  19.809  0.00  0.00    +0.000 A 
ATOM      8  C   UNL     1       2.785   6.145  19.644  0.00  0.00    +0.000 A 
ATOM      9  C   UNL     1       3.797   5.853  18.751  0.00  0.00    +0.000 A 
ATOM     10  N   UNL     1       3.897   6.876  17.847  0.00  0.00    +0.000 N 
ENDROOT
BRANCH   8  11
ATOM     11  C   UNL     1       2.360   5.290  20.796  0.00  0.00    +0.000 C 
BRANCH  11  12
ATOM     12  N   UNL     1       2.097   3.894  20.387  0.00  0.00    +0.000 NA
ATOM     13  C   UNL     1       1.051   3.829  19.353  0.00  0.00    +0.000 C 
ATOM     14  C   UNL     1       0.846   2.413  18.808  0.00  0.00    +0.000 C 
ATOM     15  C   UNL     1       2.153   1.827  18.294  0.00  0.00    +0.000 C 
ATOM     16  C   UNL     1       3.197   1.874  19.400  0.00  0.00    +0.000 C 
ATOM     17  C   UNL     1       3.363   3.295  19.934  0.00  0.00    +0.000 C 
ENDBRANCH  11  12
ENDBRANCH   8  11
BRANCH  10  18
ATOM     18  C   UNL     1       4.861   6.889  16.756  0.00  0.00    +0.000 C 
BRANCH  18  19
ATOM     19  C   UNL     1       6.315   6.851  17.229  0.00  0.00    +0.000 C 
BRANCH  19  20
ATOM     20  C   UNL     1       7.028   5.548  16.850  0.00  0.00    +0.000 C 
BRANCH  20  21
ATOM     21  C   UNL     1       6.119   4.602  16.054  0.00  0.00    +0.000 C 
BRANCH  21  22
ATOM     22  N   UNL     1       6.652   4.240  14.730  0.00  0.00    +0.000 NA
ATOM     23  C   UNL     1       5.603   3.760  13.816  0.00  0.00    +0.000 C 
ATOM     24  C   UNL     1       6.194   3.330  12.472  0.00  0.00    +0.000 C 
ATOM     25  C   UNL     1       6.984   4.462  11.831  0.00  0.00    +0.000 C 
ATOM     26  C   UNL     1       8.019   5.002  12.810  0.00  0.00    +0.000 C 
ATOM     27  C   UNL     1       7.381   5.377  14.146  0.00  0.00    +0.000 C 
ENDBRANCH  21  22
ENDBRANCH  20  21
ENDBRANCH  19  20
ENDBRANCH  18  19
ENDBRANCH  10  18
TORSDOF 7
ENDMDL
MODEL 8
REMARK VINA RESULT:      -6.9      6.224      9.530
REMARK  Name = 
REMARK  7 active torsions:
REMARK  status: ('A' for Active; 'I' for Inactive)
REMARK    1  A    between atoms: C_8  and  C_9
REMARK    2  A    between atoms: C_9  and  N_10
REMARK    3  A    between atoms: N_17  and  C_18
REMARK    4  A    between atoms: C_18  and  C_19
REMARK    5  A    between atoms: C_19  and  C_20
REMARK    6  A    between atoms: C_20  and  C_21
REMARK    7  A    between atoms: C_21  and  N_22
REMARK                            x       y       z     vdW  Elec       q    Type
REMARK                         _______ _______ _______ _____ _____    ______ ____
ROOT
ATOM      1 BR   UNL     1      -2.268  12.143  23.509  0.00  0.00    +0.000 Br
ATOM      2  C   UNL     1      -1.129  11.014  22.503  0.00  0.00    +0.000 A 
ATOM      3  C   UNL     1      -0.760   9.774  23.014  0.00  0.00    +0.000 A 
ATOM      4  C   UNL     1       0.075   8.920  22.283  0.00  0.00    +0.000 A 
ATOM      5  C   UNL     1       0.525   9.348  21.023  0.00  0.00    +0.000 A 
ATOM      6  C   UNL     1       0.166  10.596  20.497  0.00  0.00    +0.000 A 
ATOM      7  C   UNL     1      -0.674  11.441  21.256  0.00  0.00    +0.000 A 
ATOM      8  C   UNL     1       0.794  10.736  19.221  0.00  0.00    +0.000 A 
ATOM      9  C   UNL     1       1.486   9.562  18.995  0.00  0.00    +0.000 A 
ATOM     10  N   UNL     1       1.333   8.742  20.080  0.00  0.00    +0.000 N 
ENDROOT
BRANCH   8  11
ATOM     11  C   UNL     1       0.696  11.891  18.276  0.00  0.00    +0.000 C 
BRANCH  11  12
ATOM     12  N   UNL     1       1.258  13.131  18.852  0.00  0.00    +0.000 NA
ATOM     13  C   UNL     1       2.481  13.543  18.143  0.00  0.00    +0.000 C 
ATOM     14  C   UNL     1       3.016  14.894  18.624  0.00  0.00    +0.000 C 
ATOM     15  C   UNL     1       1.947  15.972  18.533  0.00  0.00    +0.000 C 
ATOM     16  C   UNL     1       0.716  15.531  19.310  0.00  0.00    +0.000 C 
ATOM     17  C   UNL     1       0.218  14.173  18.819  0.00  0.00    +0.000 C 
ENDBRANCH  11  12
ENDBRANCH   8  11
BRANCH  10  18
ATOM     18  C   UNL     1       1.941   7.423  20.179  0.00  0.00    +0.000 C 
BRANCH  18  19
ATOM     19  C   UNL     1       2.613   6.964  18.884  0.00  0.00    +0.000 C 
BRANCH  19  20
ATOM     20  C   UNL     1       3.347   5.627  19.037  0.00  0.00    +0.000 C 
BRANCH  20  21
ATOM     21  C   UNL     1       4.085   5.223  17.754  0.00  0.00    +0.000 C 
BRANCH  21  22
ATOM     22  N   UNL     1       5.535   5.481  17.796  0.00  0.00    +0.000 NA
ATOM     23  C   UNL     1       5.898   6.743  17.132  0.00  0.00    +0.000 C 
ATOM     24  C   UNL     1       7.413   6.953  17.134  0.00  0.00    +0.000 C 
ATOM     25  C   UNL     1       7.972   6.914  18.549  0.00  0.00    +0.000 C 
ATOM     26  C   UNL     1       7.531   5.639  19.255  0.00  0.00    +0.000 C 
ATOM     27  C   UNL     1       6.015   5.460  19.187  0.00  0.00    +0.000 C 
ENDBRANCH  21  22
ENDBRANCH  20  21
ENDBRANCH  19  20
ENDBRANCH  18  19
ENDBRANCH  10  18
TORSDOF 7
ENDMDL
MODEL 9
REMARK VINA RESULT:      -6.8      7.052     10.600
REMARK  Name = 
REMARK  7 active torsions:
REMARK  status: ('A' for Active; 'I' for Inactive)
REMARK    1  A    between atoms: C_8  and  C_9
REMARK    2  A    between atoms: C_9  and  N_10
REMARK    3  A    between atoms: N_17  and  C_18
REMARK    4  A    between atoms: C_18  and  C_19
REMARK    5  A    between atoms: C_19  and  C_20
REMARK    6  A    between atoms: C_20  and  C_21
REMARK    7  A    between atoms: C_21  and  N_22
REMARK                            x       y       z     vdW  Elec       q    Type
REMARK                         _______ _______ _______ _____ _____    ______ ____
ROOT
ATOM      1 BR   UNL     1      -5.014  11.590  17.742  0.00  0.00    +0.000 Br
ATOM      2  C   UNL     1      -3.204  11.057  17.883  0.00  0.00    +0.000 A 
ATOM      3  C   UNL     1      -2.677  10.155  16.965  0.00  0.00    +0.000 A 
ATOM      4  C   UNL     1      -1.338   9.753  17.047  0.00  0.00    +0.000 A 
ATOM      5  C   UNL     1      -0.545  10.286  18.076  0.00  0.00    +0.000 A 
ATOM      6  C   UNL     1      -1.062  11.190  19.012  0.00  0.00    +0.000 A 
ATOM      7  C   UNL     1      -2.418  11.578  18.911  0.00  0.00    +0.000 A 
ATOM      8  C   UNL     1      -0.018  11.526  19.928  0.00  0.00    +0.000 A 
ATOM      9  C   UNL     1       1.106  10.845  19.506  0.00  0.00    +0.000 A 
ATOM     10  N   UNL     1       0.783  10.095  18.408  0.00  0.00    +0.000 N 
ENDROOT
BRANCH   8  11
ATOM     11  C   UNL     1      -0.089  12.465  21.090  0.00  0.00    +0.000 C 
BRANCH  11  12
ATOM     12  N   UNL     1       0.115  13.871  20.684  0.00  0.00    +0.000 NA
ATOM     13  C   UNL     1       0.808  13.958  19.387  0.00  0.00    +0.000 C 
ATOM     14  C   UNL     1       0.917  15.394  18.869  0.00  0.00    +0.000 C 
ATOM     15  C   UNL     1      -0.450  16.058  18.800  0.00  0.00    +0.000 C 
ATOM     16  C   UNL     1      -1.117  15.987  20.165  0.00  0.00    +0.000 C 
ATOM     17  C   UNL     1      -1.194  14.544  20.660  0.00  0.00    +0.000 C 
ENDBRANCH  11  12
ENDBRANCH   8  11
BRANCH  10  18
ATOM     18  C   UNL     1       1.736   9.243  17.711  0.00  0.00    +0.000 C 
BRANCH  18  19
ATOM     19  C   UNL     1       2.024   7.929  18.439  0.00  0.00    +0.000 C 
BRANCH  19  20
ATOM     20  C   UNL     1       3.299   7.240  17.938  0.00  0.00    +0.000 C 
BRANCH  20  21
ATOM     21  C   UNL     1       3.145   5.713  17.881  0.00  0.00    +0.000 C 
BRANCH  21  22
ATOM     22  N   UNL     1       2.279   5.164  18.938  0.00  0.00    +0.000 NA
ATOM     23  C   UNL     1       1.570   3.949  18.506  0.00  0.00    +0.000 C 
ATOM     24  C   UNL     1       0.631   3.438  19.599  0.00  0.00    +0.000 C 
ATOM     25  C   UNL     1       1.384   3.183  20.897  0.00  0.00    +0.000 C 
ATOM     26  C   UNL     1       2.173   4.422  21.300  0.00  0.00    +0.000 C 
ATOM     27  C   UNL     1       3.063   4.912  20.158  0.00  0.00    +0.000 C 
ENDBRANCH  21  22
ENDBRANCH  20  21
ENDBRANCH  19  20
ENDBRANCH  18  19
ENDBRANCH  10  18
TORSDOF 7
ENDMDL
