MODEL 1
REMARK VINA RESULT:      -9.5      0.000      0.000
REMARK  Name = 
REMARK  5 active torsions:
REMARK  status: ('A' for Active; 'I' for Inactive)
REMARK    1  A    between atoms: C_2  and  C_13
REMARK    2  A    between atoms: N_3  and  N_4
REMARK    3  A    between atoms: C_5  and  C_6
REMARK    4  A    between atoms: C_17  and  S_18
REMARK    5  A    between atoms: S_18  and  N_21
REMARK                            x       y       z     vdW  Elec       q    Type
REMARK                         _______ _______ _______ _____ _____    ______ ____
ROOT
ATOM      1  C   UNL     1       6.639   5.329  17.413  0.00  0.00    +0.000 A 
ATOM      2  C   UNL     1       6.753   5.440  16.020  0.00  0.00    +0.000 A 
ATOM      3  C   UNL     1       5.889   4.726  15.183  0.00  0.00    +0.000 A 
ATOM      4  C   UNL     1       4.886   3.923  15.733  0.00  0.00    +0.000 A 
ATOM      5  C   UNL     1       4.793   3.784  17.121  0.00  0.00    +0.000 A 
ATOM      6  C   UNL     1       5.693   4.452  17.957  0.00  0.00    +0.000 A 
ENDROOT
BRANCH   1   8
ATOM      7  O   UNL     1       7.949   5.737  19.328  0.00  0.00    +0.000 OA
ATOM      8  C   UNL     1       7.492   6.196  18.287  0.00  0.00    +0.000 C 
ATOM      9  N   UNL     1       7.721   7.478  17.797  0.00  0.00    +0.000 N 
ATOM     10  H   UNL     1       7.438   7.738  16.860  0.00  0.00    +0.000 HD
BRANCH   9  11
ATOM     11  N   UNL     1       8.450   8.374  18.518  0.00  0.00    +0.000 NA
ATOM     12  C   UNL     1       8.518   9.566  18.017  0.00  0.00    +0.000 C 
BRANCH  12  13
ATOM     13  C   UNL     1       9.278  10.641  18.688  0.00  0.00    +0.000 A 
ATOM     14  C   UNL     1       9.914  11.632  17.930  0.00  0.00    +0.000 A 
ATOM     15  C   UNL     1      10.626  12.646  18.567  0.00  0.00    +0.000 A 
ATOM     16  C   UNL     1      10.700  12.662  19.956  0.00  0.00    +0.000 A 
ATOM     17  F   UNL     1      11.383  13.634  20.572  0.00  0.00    +0.000 F 
ATOM     18  C   UNL     1      10.071  11.677  20.721  0.00  0.00    +0.000 A 
ATOM     19  C   UNL     1       9.356  10.660  20.086  0.00  0.00    +0.000 A 
ENDBRANCH  12  13
ENDBRANCH   9  11
ENDBRANCH   1   8
BRANCH   5  20
ATOM     20  S   UNL     1       3.349   3.033  17.864  0.00  0.00    +0.000 S 
ATOM     21  O   UNL     1       2.221   3.403  17.031  0.00  0.00    +0.000 OA
ATOM     22  O   UNL     1       3.674   1.640  18.096  0.00  0.00    +0.000 OA
BRANCH  20  23
ATOM     23  N   UNL     1       3.160   3.781  19.355  0.00  0.00    +0.000 NA
ATOM     24  C   UNL     1       2.996   2.978  20.575  0.00  0.00    +0.000 C 
ATOM     25  C   UNL     1       1.548   3.208  20.955  0.00  0.00    +0.000 C 
ATOM     26  C   UNL     1       1.300   4.660  20.576  0.00  0.00    +0.000 C 
ATOM     27  C   UNL     1       2.294   4.971  19.459  0.00  0.00    +0.000 C 
ENDBRANCH  20  23
ENDBRANCH   5  20
TORSDOF 5
ENDMDL
MODEL 2
REMARK VINA RESULT:      -9.1      0.835      1.294
REMARK  Name = 
REMARK  5 active torsions:
REMARK  status: ('A' for Active; 'I' for Inactive)
REMARK    1  A    between atoms: C_2  and  C_13
REMARK    2  A    between atoms: N_3  and  N_4
REMARK    3  A    between atoms: C_5  and  C_6
REMARK    4  A    between atoms: C_17  and  S_18
REMARK    5  A    between atoms: S_18  and  N_21
REMARK                            x       y       z     vdW  Elec       q    Type
REMARK                         _______ _______ _______ _____ _____    ______ ____
ROOT
ATOM      1  C   UNL     1       6.703   5.592  17.486  0.00  0.00    +0.000 A 
ATOM      2  C   UNL     1       7.057   5.267  16.169  0.00  0.00    +0.000 A 
ATOM      3  C   UNL     1       6.179   4.530  15.366  0.00  0.00    +0.000 A 
ATOM      4  C   UNL     1       4.933   4.142  15.863  0.00  0.00    +0.000 A 
ATOM      5  C   UNL     1       4.594   4.435  17.187  0.00  0.00    +0.000 A 
ATOM      6  C   UNL     1       5.493   5.122  18.009  0.00  0.00    +0.000 A 
ENDROOT
BRANCH   1   8
ATOM      7  O   UNL     1       8.165   6.040  19.278  0.00  0.00    +0.000 OA
ATOM      8  C   UNL     1       7.603   6.486  18.284  0.00  0.00    +0.000 C 
ATOM      9  N   UNL     1       7.746   7.775  17.780  0.00  0.00    +0.000 N 
ATOM     10  H   UNL     1       7.371   8.027  16.874  0.00  0.00    +0.000 HD
BRANCH   9  11
ATOM     11  N   UNL     1       8.507   8.693  18.438  0.00  0.00    +0.000 NA
ATOM     12  C   UNL     1       8.511   9.882  17.923  0.00  0.00    +0.000 C 
BRANCH  12  13
ATOM     13  C   UNL     1       9.296  10.979  18.526  0.00  0.00    +0.000 A 
ATOM     14  C   UNL     1      10.008  10.764  19.713  0.00  0.00    +0.000 A 
ATOM     15  C   UNL     1      10.749  11.801  20.277  0.00  0.00    +0.000 A 
ATOM     16  C   UNL     1      10.773  13.044  19.652  0.00  0.00    +0.000 A 
ATOM     17  F   UNL     1      11.485  14.041  20.189  0.00  0.00    +0.000 F 
ATOM     18  C   UNL     1      10.065  13.267  18.469  0.00  0.00    +0.000 A 
ATOM     19  C   UNL     1       9.321  12.232  17.901  0.00  0.00    +0.000 A 
ENDBRANCH  12  13
ENDBRANCH   9  11
ENDBRANCH   1   8
BRANCH   5  20
ATOM     20  S   UNL     1       2.908   4.240  17.758  0.00  0.00    +0.000 S 
ATOM     21  O   UNL     1       2.356   5.577  17.863  0.00  0.00    +0.000 OA
ATOM     22  O   UNL     1       2.290   3.247  16.905  0.00  0.00    +0.000 OA
BRANCH  20  23
ATOM     23  N   UNL     1       3.021   3.603  19.308  0.00  0.00    +0.000 NA
ATOM     24  C   UNL     1       2.473   2.273  19.606  0.00  0.00    +0.000 C 
ATOM     25  C   UNL     1       1.267   2.576  20.473  0.00  0.00    +0.000 C 
ATOM     26  C   UNL     1       1.709   3.774  21.299  0.00  0.00    +0.000 C 
ATOM     27  C   UNL     1       2.776   4.481  20.467  0.00  0.00    +0.000 C 
ENDBRANCH  20  23
ENDBRANCH   5  20
TORSDOF 5
ENDMDL
MODEL 3
REMARK VINA RESULT:      -9.0      1.012      1.630
REMARK  Name = 
REMARK  5 active torsions:
REMARK  status: ('A' for Active; 'I' for Inactive)
REMARK    1  A    between atoms: C_2  and  C_13
REMARK    2  A    between atoms: N_3  and  N_4
REMARK    3  A    between atoms: C_5  and  C_6
REMARK    4  A    between atoms: C_17  and  S_18
REMARK    5  A    between atoms: S_18  and  N_21
REMARK                            x       y       z     vdW  Elec       q    Type
REMARK                         _______ _______ _______ _____ _____    ______ ____
ROOT
ATOM      1  C   UNL     1       6.710   5.598  17.625  0.00  0.00    +0.000 A 
ATOM      2  C   UNL     1       6.475   5.789  16.256  0.00  0.00    +0.000 A 
ATOM      3  C   UNL     1       5.524   5.009  15.589  0.00  0.00    +0.000 A 
ATOM      4  C   UNL     1       4.781   4.057  16.292  0.00  0.00    +0.000 A 
ATOM      5  C   UNL     1       5.039   3.842  17.649  0.00  0.00    +0.000 A 
ATOM      6  C   UNL     1       6.030   4.581  18.303  0.00  0.00    +0.000 A 
ENDROOT
BRANCH   1   8
ATOM      7  O   UNL     1       8.281   6.113  19.303  0.00  0.00    +0.000 OA
ATOM      8  C   UNL     1       7.642   6.527  18.342  0.00  0.00    +0.000 C 
ATOM      9  N   UNL     1       7.719   7.808  17.807  0.00  0.00    +0.000 N 
ATOM     10  H   UNL     1       7.278   8.034  16.924  0.00  0.00    +0.000 HD
BRANCH   9  11
ATOM     11  N   UNL     1       8.502   8.756  18.393  0.00  0.00    +0.000 NA
ATOM     12  C   UNL     1       8.429   9.939  17.870  0.00  0.00    +0.000 C 
BRANCH  12  13
ATOM     13  C   UNL     1       9.226  11.065  18.398  0.00  0.00    +0.000 A 
ATOM     14  C   UNL     1      10.109  10.862  19.466  0.00  0.00    +0.000 A 
ATOM     15  C   UNL     1      10.861  11.926  19.959  0.00  0.00    +0.000 A 
ATOM     16  C   UNL     1      10.724  13.186  19.384  0.00  0.00    +0.000 A 
ATOM     17  F   UNL     1      11.444  14.210  19.855  0.00  0.00    +0.000 F 
ATOM     18  C   UNL     1       9.844  13.398  18.321  0.00  0.00    +0.000 A 
ATOM     19  C   UNL     1       9.089  12.335  17.824  0.00  0.00    +0.000 A 
ENDBRANCH  12  13
ENDBRANCH   9  11
ENDBRANCH   1   8
BRANCH   5  20
ATOM     20  S   UNL     1       3.911   2.873  18.646  0.00  0.00    +0.000 S 
ATOM     21  O   UNL     1       3.343   1.873  17.763  0.00  0.00    +0.000 OA
ATOM     22  O   UNL     1       4.635   2.485  19.839  0.00  0.00    +0.000 OA
BRANCH  20  23
ATOM     23  N   UNL     1       2.682   3.925  19.098  0.00  0.00    +0.000 NA
ATOM     24  C   UNL     1       1.874   4.606  18.077  0.00  0.00    +0.000 C 
ATOM     25  C   UNL     1       2.323   6.050  18.181  0.00  0.00    +0.000 C 
ATOM     26  C   UNL     1       2.574   6.244  19.668  0.00  0.00    +0.000 C 
ATOM     27  C   UNL     1       2.910   4.859  20.216  0.00  0.00    +0.000 C 
ENDBRANCH  20  23
ENDBRANCH   5  20
TORSDOF 5
ENDMDL
MODEL 4
REMARK VINA RESULT:      -9.0      1.089      1.618
REMARK  Name = 
REMARK  5 active torsions:
REMARK  status: ('A' for Active; 'I' for Inactive)
REMARK    1  A    between atoms: C_2  and  C_13
REMARK    2  A    between atoms: N_3  and  N_4
REMARK    3  A    between atoms: C_5  and  C_6
REMARK    4  A    between atoms: C_17  and  S_18
REMARK    5  A    between atoms: S_18  and  N_21
REMARK                            x       y       z     vdW  Elec       q    Type
REMARK                         _______ _______ _______ _____ _____    ______ ____
ROOT
ATOM      1  C   UNL     1       6.436   5.286  17.932  0.00  0.00    +0.000 A 
ATOM      2  C   UNL     1       6.733   4.573  16.762  0.00  0.00    +0.000 A 
ATOM      3  C   UNL     1       5.720   3.897  16.073  0.00  0.00    +0.000 A 
ATOM      4  C   UNL     1       4.401   3.956  16.531  0.00  0.00    +0.000 A 
ATOM      5  C   UNL     1       4.110   4.637  17.716  0.00  0.00    +0.000 A 
ATOM      6  C   UNL     1       5.131   5.265  18.437  0.00  0.00    +0.000 A 
ENDROOT
BRANCH   1   8
ATOM      7  O   UNL     1       8.128   5.636  19.533  0.00  0.00    +0.000 OA
ATOM      8  C   UNL     1       7.511   6.103  18.582  0.00  0.00    +0.000 C 
ATOM      9  N   UNL     1       7.737   7.345  17.999  0.00  0.00    +0.000 N 
ATOM     10  H   UNL     1       7.295   7.601  17.125  0.00  0.00    +0.000 HD
BRANCH   9  11
ATOM     11  N   UNL     1       8.663   8.196  18.522  0.00  0.00    +0.000 NA
ATOM     12  C   UNL     1       8.447   9.454  18.304  0.00  0.00    +0.000 C 
BRANCH  12  13
ATOM     13  C   UNL     1       9.370  10.492  18.808  0.00  0.00    +0.000 A 
ATOM     14  C   UNL     1       9.383  10.820  20.170  0.00  0.00    +0.000 A 
ATOM     15  C   UNL     1      10.257  11.797  20.642  0.00  0.00    +0.000 A 
ATOM     16  C   UNL     1      11.110  12.441  19.750  0.00  0.00    +0.000 A 
ATOM     17  F   UNL     1      11.952  13.379  20.199  0.00  0.00    +0.000 F 
ATOM     18  C   UNL     1      11.103  12.122  18.391  0.00  0.00    +0.000 A 
ATOM     19  C   UNL     1      10.229  11.143  17.914  0.00  0.00    +0.000 A 
ENDBRANCH  12  13
ENDBRANCH   9  11
ENDBRANCH   1   8
BRANCH   5  20
ATOM     20  S   UNL     1       2.415   5.002  18.162  0.00  0.00    +0.000 S 
ATOM     21  O   UNL     1       2.268   6.441  18.062  0.00  0.00    +0.000 OA
ATOM     22  O   UNL     1       1.577   4.115  17.381  0.00  0.00    +0.000 OA
BRANCH  20  23
ATOM     23  N   UNL     1       2.265   4.576  19.779  0.00  0.00    +0.000 NA
ATOM     24  C   UNL     1       3.259   3.697  20.412  0.00  0.00    +0.000 C 
ATOM     25  C   UNL     1       2.498   2.405  20.626  0.00  0.00    +0.000 C 
ATOM     26  C   UNL     1       1.090   2.866  20.968  0.00  0.00    +0.000 C 
ATOM     27  C   UNL     1       0.933   4.236  20.313  0.00  0.00    +0.000 C 
ENDBRANCH  20  23
ENDBRANCH   5  20
TORSDOF 5
ENDMDL
MODEL 5
REMARK VINA RESULT:      -9.0      1.216      1.493
REMARK  Name = 
REMARK  5 active torsions:
REMARK  status: ('A' for Active; 'I' for Inactive)
REMARK    1  A    between atoms: C_2  and  C_13
REMARK    2  A    between atoms: N_3  and  N_4
REMARK    3  A    between atoms: C_5  and  C_6
REMARK    4  A    between atoms: C_17  and  S_18
REMARK    5  A    between atoms: S_18  and  N_21
REMARK                            x       y       z     vdW  Elec       q    Type
REMARK                         _______ _______ _______ _____ _____    ______ ____
ROOT
ATOM      1  C   UNL     1       6.365   5.512  17.722  0.00  0.00    +0.000 A 
ATOM      2  C   UNL     1       6.473   5.082  16.392  0.00  0.00    +0.000 A 
ATOM      3  C   UNL     1       5.399   4.434  15.772  0.00  0.00    +0.000 A 
ATOM      4  C   UNL     1       4.202   4.241  16.466  0.00  0.00    +0.000 A 
ATOM      5  C   UNL     1       4.105   4.638  17.803  0.00  0.00    +0.000 A 
ATOM      6  C   UNL     1       5.197   5.234  18.441  0.00  0.00    +0.000 A 
ENDROOT
BRANCH   1   8
ATOM      7  O   UNL     1       8.114   5.846  19.264  0.00  0.00    +0.000 OA
ATOM      8  C   UNL     1       7.480   6.312  18.323  0.00  0.00    +0.000 C 
ATOM      9  N   UNL     1       7.719   7.538  17.710  0.00  0.00    +0.000 N 
ATOM     10  H   UNL     1       7.256   7.790  16.846  0.00  0.00    +0.000 HD
BRANCH   9  11
ATOM     11  N   UNL     1       8.682   8.374  18.190  0.00  0.00    +0.000 NA
ATOM     12  C   UNL     1       8.343   9.621  18.274  0.00  0.00    +0.000 C 
BRANCH  12  13
ATOM     13  C   UNL     1       9.286  10.643  18.772  0.00  0.00    +0.000 A 
ATOM     14  C   UNL     1      10.011  11.430  17.869  0.00  0.00    +0.000 A 
ATOM     15  C   UNL     1      10.897  12.396  18.343  0.00  0.00    +0.000 A 
ATOM     16  C   UNL     1      11.054  12.567  19.715  0.00  0.00    +0.000 A 
ATOM     17  F   UNL     1      11.903  13.493  20.174  0.00  0.00    +0.000 F 
ATOM     18  C   UNL     1      10.336  11.785  20.623  0.00  0.00    +0.000 A 
ATOM     19  C   UNL     1       9.448  10.817  20.153  0.00  0.00    +0.000 A 
ENDBRANCH  12  13
ENDBRANCH   9  11
ENDBRANCH   1   8
BRANCH   5  20
ATOM     20  S   UNL     1       2.513   4.699  18.620  0.00  0.00    +0.000 S 
ATOM     21  O   UNL     1       2.617   5.727  19.638  0.00  0.00    +0.000 OA
ATOM     22  O   UNL     1       1.511   4.785  17.577  0.00  0.00    +0.000 OA
BRANCH  20  23
ATOM     23  N   UNL     1       2.339   3.219  19.393  0.00  0.00    +0.000 NA
ATOM     24  C   UNL     1       1.025   2.791  19.892  0.00  0.00    +0.000 C 
ATOM     25  C   UNL     1       1.177   2.875  21.397  0.00  0.00    +0.000 C 
ATOM     26  C   UNL     1       2.617   2.449  21.639  0.00  0.00    +0.000 C 
ATOM     27  C   UNL     1       3.369   2.783  20.354  0.00  0.00    +0.000 C 
ENDBRANCH  20  23
ENDBRANCH   5  20
TORSDOF 5
ENDMDL
MODEL 6
REMARK VINA RESULT:      -8.9      1.195      1.326
REMARK  Name = 
REMARK  5 active torsions:
REMARK  status: ('A' for Active; 'I' for Inactive)
REMARK    1  A    between atoms: C_2  and  C_13
REMARK    2  A    between atoms: N_3  and  N_4
REMARK    3  A    between atoms: C_5  and  C_6
REMARK    4  A    between atoms: C_17  and  S_18
REMARK    5  A    between atoms: S_18  and  N_21
REMARK                            x       y       z     vdW  Elec       q    Type
REMARK                         _______ _______ _______ _____ _____    ______ ____
ROOT
ATOM      1  C   UNL     1       6.144   5.608  18.007  0.00  0.00    +0.000 A 
ATOM      2  C   UNL     1       5.280   6.132  17.034  0.00  0.00    +0.000 A 
ATOM      3  C   UNL     1       4.079   5.480  16.735  0.00  0.00    +0.000 A 
ATOM      4  C   UNL     1       3.719   4.322  17.428  0.00  0.00    +0.000 A 
ATOM      5  C   UNL     1       4.594   3.780  18.373  0.00  0.00    +0.000 A 
ATOM      6  C   UNL     1       5.822   4.398  18.632  0.00  0.00    +0.000 A 
ENDROOT
BRANCH   1   8
ATOM      7  O   UNL     1       8.111   5.941  19.259  0.00  0.00    +0.000 OA
ATOM      8  C   UNL     1       7.362   6.388  18.397  0.00  0.00    +0.000 C 
ATOM      9  N   UNL     1       7.551   7.572  17.693  0.00  0.00    +0.000 N 
ATOM     10  H   UNL     1       6.975   7.803  16.892  0.00  0.00    +0.000 HD
BRANCH   9  11
ATOM     11  N   UNL     1       8.601   8.389  17.982  0.00  0.00    +0.000 NA
ATOM     12  C   UNL     1       8.289   9.535  18.499  0.00  0.00    +0.000 C 
BRANCH  12  13
ATOM     13  C   UNL     1       9.324  10.525  18.860  0.00  0.00    +0.000 A 
ATOM     14  C   UNL     1      10.103  11.124  17.861  0.00  0.00    +0.000 A 
ATOM     15  C   UNL     1      11.076  12.060  18.206  0.00  0.00    +0.000 A 
ATOM     16  C   UNL     1      11.265  12.390  19.544  0.00  0.00    +0.000 A 
ATOM     17  F   UNL     1      12.197  13.289  19.879  0.00  0.00    +0.000 F 
ATOM     18  C   UNL     1      10.494  11.797  20.547  0.00  0.00    +0.000 A 
ATOM     19  C   UNL     1       9.518  10.859  20.206  0.00  0.00    +0.000 A 
ENDBRANCH  12  13
ENDBRANCH   9  11
ENDBRANCH   1   8
BRANCH   5  20
ATOM     20  S   UNL     1       4.042   2.498  19.494  0.00  0.00    +0.000 S 
ATOM     21  O   UNL     1       3.272   1.563  18.697  0.00  0.00    +0.000 OA
ATOM     22  O   UNL     1       5.208   2.058  20.233  0.00  0.00    +0.000 OA
BRANCH  20  23
ATOM     23  N   UNL     1       2.993   3.250  20.568  0.00  0.00    +0.000 NA
ATOM     24  C   UNL     1       1.668   2.676  20.839  0.00  0.00    +0.000 C 
ATOM     25  C   UNL     1       0.721   3.653  20.173  0.00  0.00    +0.000 C 
ATOM     26  C   UNL     1       1.379   5.005  20.396  0.00  0.00    +0.000 C 
ATOM     27  C   UNL     1       2.871   4.720  20.545  0.00  0.00    +0.000 C 
ENDBRANCH  20  23
ENDBRANCH   5  20
TORSDOF 5
ENDMDL
MODEL 7
REMARK VINA RESULT:      -8.7      4.712      7.302
REMARK  Name = 
REMARK  5 active torsions:
REMARK  status: ('A' for Active; 'I' for Inactive)
REMARK    1  A    between atoms: C_2  and  C_13
REMARK    2  A    between atoms: N_3  and  N_4
REMARK    3  A    between atoms: C_5  and  C_6
REMARK    4  A    between atoms: C_17  and  S_18
REMARK    5  A    between atoms: S_18  and  N_21
REMARK                            x       y       z     vdW  Elec       q    Type
REMARK                         _______ _______ _______ _____ _____    ______ ____
ROOT
ATOM      1  C   UNL     1       3.137   4.891  18.698  0.00  0.00    +0.000 A 
ATOM      2  C   UNL     1       3.125   3.489  18.733  0.00  0.00    +0.000 A 
ATOM      3  C   UNL     1       3.785   2.754  17.742  0.00  0.00    +0.000 A 
ATOM      4  C   UNL     1       4.487   3.415  16.730  0.00  0.00    +0.000 A 
ATOM      5  C   UNL     1       4.470   4.811  16.674  0.00  0.00    +0.000 A 
ATOM      6  C   UNL     1       3.762   5.546  17.632  0.00  0.00    +0.000 A 
ENDROOT
BRANCH   1   8
ATOM      7  O   UNL     1       2.240   5.062  20.869  0.00  0.00    +0.000 OA
ATOM      8  C   UNL     1       2.530   5.654  19.835  0.00  0.00    +0.000 C 
ATOM      9  N   UNL     1       2.380   7.019  19.612  0.00  0.00    +0.000 N 
ATOM     10  H   UNL     1       2.779   7.462  18.795  0.00  0.00    +0.000 HD
BRANCH   9  11
ATOM     11  N   UNL     1       1.804   7.814  20.556  0.00  0.00    +0.000 NA
ATOM     12  C   UNL     1       1.086   8.790  20.098  0.00  0.00    +0.000 C 
BRANCH  12  13
ATOM     13  C   UNL     1       0.406   9.736  21.005  0.00  0.00    +0.000 A 
ATOM     14  C   UNL     1       0.236  11.074  20.627  0.00  0.00    +0.000 A 
ATOM     15  C   UNL     1      -0.410  11.963  21.484  0.00  0.00    +0.000 A 
ATOM     16  C   UNL     1      -0.880  11.510  22.712  0.00  0.00    +0.000 A 
ATOM     17  F   UNL     1      -1.502  12.360  23.538  0.00  0.00    +0.000 F 
ATOM     18  C   UNL     1      -0.714  10.178  23.099  0.00  0.00    +0.000 A 
ATOM     19  C   UNL     1      -0.068   9.285  22.243  0.00  0.00    +0.000 A 
ENDBRANCH  12  13
ENDBRANCH   9  11
ENDBRANCH   1   8
BRANCH   5  20
ATOM     20  S   UNL     1       5.599   5.692  15.600  0.00  0.00    +0.000 S 
ATOM     21  O   UNL     1       5.797   4.848  14.437  0.00  0.00    +0.000 OA
ATOM     22  O   UNL     1       5.080   7.037  15.461  0.00  0.00    +0.000 OA
BRANCH  20  23
ATOM     23  N   UNL     1       7.054   5.775  16.434  0.00  0.00    +0.000 NA
ATOM     24  C   UNL     1       7.562   4.604  17.162  0.00  0.00    +0.000 C 
ATOM     25  C   UNL     1       7.401   4.997  18.616  0.00  0.00    +0.000 C 
ATOM     26  C   UNL     1       7.702   6.488  18.622  0.00  0.00    +0.000 C 
ATOM     27  C   UNL     1       7.366   6.984  17.218  0.00  0.00    +0.000 C 
ENDBRANCH  20  23
ENDBRANCH   5  20
TORSDOF 5
ENDMDL
MODEL 8
REMARK VINA RESULT:      -8.6      1.361      2.016
REMARK  Name = 
REMARK  5 active torsions:
REMARK  status: ('A' for Active; 'I' for Inactive)
REMARK    1  A    between atoms: C_2  and  C_13
REMARK    2  A    between atoms: N_3  and  N_4
REMARK    3  A    between atoms: C_5  and  C_6
REMARK    4  A    between atoms: C_17  and  S_18
REMARK    5  A    between atoms: S_18  and  N_21
REMARK                            x       y       z     vdW  Elec       q    Type
REMARK                         _______ _______ _______ _____ _____    ______ ____
ROOT
ATOM      1  C   UNL     1       6.414   5.770  17.691  0.00  0.00    +0.000 A 
ATOM      2  C   UNL     1       6.495   5.511  16.315  0.00  0.00    +0.000 A 
ATOM      3  C   UNL     1       5.420   4.915  15.647  0.00  0.00    +0.000 A 
ATOM      4  C   UNL     1       4.248   4.605  16.341  0.00  0.00    +0.000 A 
ATOM      5  C   UNL     1       4.179   4.830  17.719  0.00  0.00    +0.000 A 
ATOM      6  C   UNL     1       5.275   5.373  18.399  0.00  0.00    +0.000 A 
ENDROOT
BRANCH   1   8
ATOM      7  O   UNL     1       8.170   5.973  19.248  0.00  0.00    +0.000 OA
ATOM      8  C   UNL     1       7.526   6.519  18.358  0.00  0.00    +0.000 C 
ATOM      9  N   UNL     1       7.752   7.799  17.862  0.00  0.00    +0.000 N 
ATOM     10  H   UNL     1       7.283   8.127  17.027  0.00  0.00    +0.000 HD
BRANCH   9  11
ATOM     11  N   UNL     1       8.711   8.595  18.412  0.00  0.00    +0.000 NA
ATOM     12  C   UNL     1       8.572   9.863  18.193  0.00  0.00    +0.000 C 
BRANCH  12  13
ATOM     13  C   UNL     1       9.539  10.846  18.725  0.00  0.00    +0.000 A 
ATOM     14  C   UNL     1       9.601  11.099  20.101  0.00  0.00    +0.000 A 
ATOM     15  C   UNL     1      10.517  12.024  20.598  0.00  0.00    +0.000 A 
ATOM     16  C   UNL     1      11.363  12.691  19.718  0.00  0.00    +0.000 A 
ATOM     17  F   UNL     1      12.244  13.580  20.191  0.00  0.00    +0.000 F 
ATOM     18  C   UNL     1      11.307  12.447  18.343  0.00  0.00    +0.000 A 
ATOM     19  C   UNL     1      10.391  11.521  17.842  0.00  0.00    +0.000 A 
ENDBRANCH  12  13
ENDBRANCH   9  11
ENDBRANCH   1   8
BRANCH   5  20
ATOM     20  S   UNL     1       2.611   4.746  18.577  0.00  0.00    +0.000 S 
ATOM     21  O   UNL     1       2.701   5.678  19.685  0.00  0.00    +0.000 OA
ATOM     22  O   UNL     1       1.576   4.886  17.572  0.00  0.00    +0.000 OA
BRANCH  20  23
ATOM     23  N   UNL     1       2.519   3.194  19.211  0.00  0.00    +0.000 NA
ATOM     24  C   UNL     1       3.245   2.849  20.441  0.00  0.00    +0.000 C 
ATOM     25  C   UNL     1       4.347   1.931  19.952  0.00  0.00    +0.000 C 
ATOM     26  C   UNL     1       3.691   1.145  18.827  0.00  0.00    +0.000 C 
ATOM     27  C   UNL     1       2.572   2.038  18.296  0.00  0.00    +0.000 C 
ENDBRANCH  20  23
ENDBRANCH   5  20
TORSDOF 5
ENDMDL
MODEL 9
REMARK VINA RESULT:      -8.5      1.076      1.076
REMARK  Name = 
REMARK  5 active torsions:
REMARK  status: ('A' for Active; 'I' for Inactive)
REMARK    1  A    between atoms: C_2  and  C_13
REMARK    2  A    between atoms: N_3  and  N_4
REMARK    3  A    between atoms: C_5  and  C_6
REMARK    4  A    between atoms: C_17  and  S_18
REMARK    5  A    between atoms: S_18  and  N_21
REMARK                            x       y       z     vdW  Elec       q    Type
REMARK                         _______ _______ _______ _____ _____    ______ ____
ROOT
ATOM      1  C   UNL     1       5.933   5.727  16.805  0.00  0.00    +0.000 A 
ATOM      2  C   UNL     1       6.543   5.210  15.654  0.00  0.00    +0.000 A 
ATOM      3  C   UNL     1       6.222   3.924  15.205  0.00  0.00    +0.000 A 
ATOM      4  C   UNL     1       5.268   3.163  15.884  0.00  0.00    +0.000 A 
ATOM      5  C   UNL     1       4.685   3.664  17.051  0.00  0.00    +0.000 A 
ATOM      6  C   UNL     1       5.048   4.926  17.534  0.00  0.00    +0.000 A 
ENDROOT
BRANCH   1   8
ATOM      7  O   UNL     1       5.274   7.846  17.597  0.00  0.00    +0.000 OA
ATOM      8  C   UNL     1       6.200   7.149  17.195  0.00  0.00    +0.000 C 
ATOM      9  N   UNL     1       7.529   7.547  17.091  0.00  0.00    +0.000 N 
ATOM     10  H   UNL     1       8.262   6.876  16.896  0.00  0.00    +0.000 HD
BRANCH   9  11
ATOM     11  N   UNL     1       7.892   8.827  17.379  0.00  0.00    +0.000 NA
ATOM     12  C   UNL     1       8.611   8.974  18.446  0.00  0.00    +0.000 C 
BRANCH  12  13
ATOM     13  C   UNL     1       9.075  10.306  18.886  0.00  0.00    +0.000 A 
ATOM     14  C   UNL     1       9.111  11.373  17.978  0.00  0.00    +0.000 A 
ATOM     15  C   UNL     1       9.545  12.629  18.398  0.00  0.00    +0.000 A 
ATOM     16  C   UNL     1       9.942  12.810  19.719  0.00  0.00    +0.000 A 
ATOM     17  F   UNL     1      10.359  14.014  20.126  0.00  0.00    +0.000 F 
ATOM     18  C   UNL     1       9.911  11.752  20.630  0.00  0.00    +0.000 A 
ATOM     19  C   UNL     1       9.476  10.493  20.214  0.00  0.00    +0.000 A 
ENDBRANCH  12  13
ENDBRANCH   9  11
ENDBRANCH   1   8
BRANCH   5  20
ATOM     20  S   UNL     1       3.247   2.870  17.763  0.00  0.00    +0.000 S 
ATOM     21  O   UNL     1       2.132   3.191  16.895  0.00  0.00    +0.000 OA
ATOM     22  O   UNL     1       3.615   1.493  18.021  0.00  0.00    +0.000 OA
BRANCH  20  23
ATOM     23  N   UNL     1       2.990   3.628  19.240  0.00  0.00    +0.000 NA
ATOM     24  C   UNL     1       3.055   2.860  20.491  0.00  0.00    +0.000 C 
ATOM     25  C   UNL     1       1.612   2.813  20.949  0.00  0.00    +0.000 C 
ATOM     26  C   UNL     1       1.059   4.170  20.541  0.00  0.00    +0.000 C 
ATOM     27  C   UNL     1       1.910   4.625  19.358  0.00  0.00    +0.000 C 
ENDBRANCH  20  23
ENDBRANCH   5  20
TORSDOF 5
ENDMDL
