MODEL 1
REMARK VINA RESULT:      -6.9      0.000      0.000
REMARK  Name = 
REMARK  0 active torsions:
REMARK  status: ('A' for Active; 'I' for Inactive)
REMARK                            x       y       z     vdW  Elec       q    Type
REMARK                         _______ _______ _______ _____ _____    ______ ____
ROOT
ATOM      1 CL   UNL     1       2.690   7.967  17.974  0.00  0.00    +0.000 Cl
ATOM      2  C   UNL     1       3.732   6.645  17.556  0.00  0.00    +0.000 A 
ATOM      3  N   UNL     1       4.899   7.021  17.120  0.00  0.00    +0.000 NA
ATOM      4  N   UNL     1       5.728   6.006  16.789  0.00  0.00    +0.000 N 
ATOM      5  N   UNL     1       6.968   6.198  16.323  0.00  0.00    +0.000 NA
ATOM      6  N   UNL     1       7.458   4.979  16.115  0.00  0.00    +0.000 NA
ATOM      7  N   UNL     1       6.540   4.006  16.444  0.00  0.00    +0.000 NA
ATOM      8  C   UNL     1       5.478   4.658  16.858  0.00  0.00    +0.000 A 
ATOM      9  C   UNL     1       4.192   4.217  17.336  0.00  0.00    +0.000 A 
ATOM     10  C   UNL     1       3.843   2.870  17.444  0.00  0.00    +0.000 A 
ATOM     11  C   UNL     1       2.576   2.525  17.916  0.00  0.00    +0.000 A 
ATOM     12  C   UNL     1       1.665   3.520  18.279  0.00  0.00    +0.000 A 
ATOM     13  C   UNL     1       2.012   4.869  18.174  0.00  0.00    +0.000 A 
ATOM     14  C   UNL     1       3.279   5.219  17.700  0.00  0.00    +0.000 A 
ENDROOT
TORSDOF 0
ENDMDL
MODEL 2
REMARK VINA RESULT:      -6.8      2.223      2.679
REMARK  Name = 
REMARK  0 active torsions:
REMARK  status: ('A' for Active; 'I' for Inactive)
REMARK                            x       y       z     vdW  Elec       q    Type
REMARK                         _______ _______ _______ _____ _____    ______ ____
ROOT
ATOM      1 CL   UNL     1       7.804   5.754  19.497  0.00  0.00    +0.000 Cl
ATOM      2  C   UNL     1       6.968   5.238  18.067  0.00  0.00    +0.000 A 
ATOM      3  N   UNL     1       7.648   5.423  16.972  0.00  0.00    +0.000 NA
ATOM      4  N   UNL     1       7.016   5.028  15.846  0.00  0.00    +0.000 N 
ATOM      5  N   UNL     1       7.557   5.138  14.627  0.00  0.00    +0.000 NA
ATOM      6  N   UNL     1       6.645   4.652  13.790  0.00  0.00    +0.000 NA
ATOM      7  N   UNL     1       5.520   4.230  14.465  0.00  0.00    +0.000 NA
ATOM      8  C   UNL     1       5.766   4.470  15.733  0.00  0.00    +0.000 A 
ATOM      9  C   UNL     1       4.993   4.257  16.930  0.00  0.00    +0.000 A 
ATOM     10  C   UNL     1       3.716   3.696  16.920  0.00  0.00    +0.000 A 
ATOM     11  C   UNL     1       3.033   3.523  18.124  0.00  0.00    +0.000 A 
ATOM     12  C   UNL     1       3.623   3.907  19.330  0.00  0.00    +0.000 A 
ATOM     13  C   UNL     1       4.903   4.468  19.344  0.00  0.00    +0.000 A 
ATOM     14  C   UNL     1       5.590   4.644  18.140  0.00  0.00    +0.000 A 
ENDROOT
TORSDOF 0
ENDMDL
MODEL 3
REMARK VINA RESULT:      -6.6      2.255      3.140
REMARK  Name = 
REMARK  0 active torsions:
REMARK  status: ('A' for Active; 'I' for Inactive)
REMARK                            x       y       z     vdW  Elec       q    Type
REMARK                         _______ _______ _______ _____ _____    ______ ____
ROOT
ATOM      1 CL   UNL     1       4.460   2.849  20.070  0.00  0.00    +0.000 Cl
ATOM      2  C   UNL     1       4.897   4.094  18.944  0.00  0.00    +0.000 A 
ATOM      3  N   UNL     1       6.006   3.852  18.306  0.00  0.00    +0.000 NA
ATOM      4  N   UNL     1       6.365   4.809  17.423  0.00  0.00    +0.000 N 
ATOM      5  N   UNL     1       7.473   4.735  16.676  0.00  0.00    +0.000 NA
ATOM      6  N   UNL     1       7.481   5.847  15.946  0.00  0.00    +0.000 NA
ATOM      7  N   UNL     1       6.385   6.635  16.221  0.00  0.00    +0.000 NA
ATOM      8  C   UNL     1       5.707   5.980  17.135  0.00  0.00    +0.000 A 
ATOM      9  C   UNL     1       4.479   6.271  17.828  0.00  0.00    +0.000 A 
ATOM     10  C   UNL     1       3.736   7.431  17.605  0.00  0.00    +0.000 A 
ATOM     11  C   UNL     1       2.556   7.639  18.319  0.00  0.00    +0.000 A 
ATOM     12  C   UNL     1       2.119   6.692  19.249  0.00  0.00    +0.000 A 
ATOM     13  C   UNL     1       2.859   5.528  19.474  0.00  0.00    +0.000 A 
ATOM     14  C   UNL     1       4.043   5.317  18.762  0.00  0.00    +0.000 A 
ENDROOT
TORSDOF 0
ENDMDL
MODEL 4
REMARK VINA RESULT:      -6.5      1.906      3.046
REMARK  Name = 
REMARK  0 active torsions:
REMARK  status: ('A' for Active; 'I' for Inactive)
REMARK                            x       y       z     vdW  Elec       q    Type
REMARK                         _______ _______ _______ _____ _____    ______ ____
ROOT
ATOM      1 CL   UNL     1       3.249   2.210  17.660  0.00  0.00    +0.000 Cl
ATOM      2  C   UNL     1       4.127   3.660  17.291  0.00  0.00    +0.000 A 
ATOM      3  N   UNL     1       5.289   3.439  16.747  0.00  0.00    +0.000 NA
ATOM      4  N   UNL     1       5.991   4.556  16.451  0.00  0.00    +0.000 N 
ATOM      5  N   UNL     1       7.204   4.528  15.888  0.00  0.00    +0.000 NA
ATOM      6  N   UNL     1       7.561   5.803  15.757  0.00  0.00    +0.000 NA
ATOM      7  N   UNL     1       6.583   6.649  16.234  0.00  0.00    +0.000 NA
ATOM      8  C   UNL     1       5.621   5.862  16.658  0.00  0.00    +0.000 A 
ATOM      9  C   UNL     1       4.341   6.132  17.260  0.00  0.00    +0.000 A 
ATOM     10  C   UNL     1       3.875   7.423  17.511  0.00  0.00    +0.000 A 
ATOM     11  C   UNL     1       2.622   7.599  18.097  0.00  0.00    +0.000 A 
ATOM     12  C   UNL     1       1.838   6.492  18.431  0.00  0.00    +0.000 A 
ATOM     13  C   UNL     1       2.300   5.197  18.181  0.00  0.00    +0.000 A 
ATOM     14  C   UNL     1       3.556   5.017  17.594  0.00  0.00    +0.000 A 
ENDROOT
TORSDOF 0
ENDMDL
MODEL 5
REMARK VINA RESULT:      -6.5      1.567      1.941
REMARK  Name = 
REMARK  0 active torsions:
REMARK  status: ('A' for Active; 'I' for Inactive)
REMARK                            x       y       z     vdW  Elec       q    Type
REMARK                         _______ _______ _______ _____ _____    ______ ____
ROOT
ATOM      1 CL   UNL     1       1.892   7.437  20.240  0.00  0.00    +0.000 Cl
ATOM      2  C   UNL     1       2.584   6.298  19.130  0.00  0.00    +0.000 A 
ATOM      3  N   UNL     1       3.466   6.823  18.329  0.00  0.00    +0.000 NA
ATOM      4  N   UNL     1       4.018   5.952  17.455  0.00  0.00    +0.000 N 
ATOM      5  N   UNL     1       4.942   6.307  16.555  0.00  0.00    +0.000 NA
ATOM      6  N   UNL     1       5.234   5.194  15.890  0.00  0.00    +0.000 NA
ATOM      7  N   UNL     1       4.501   4.124  16.357  0.00  0.00    +0.000 NA
ATOM      8  C   UNL     1       3.756   4.610  17.323  0.00  0.00    +0.000 A 
ATOM      9  C   UNL     1       2.783   4.007  18.198  0.00  0.00    +0.000 A 
ATOM     10  C   UNL     1       2.448   2.653  18.143  0.00  0.00    +0.000 A 
ATOM     11  C   UNL     1       1.495   2.146  19.026  0.00  0.00    +0.000 A 
ATOM     12  C   UNL     1       0.881   2.985  19.959  0.00  0.00    +0.000 A 
ATOM     13  C   UNL     1       1.215   4.341  20.017  0.00  0.00    +0.000 A 
ATOM     14  C   UNL     1       2.168   4.853  19.134  0.00  0.00    +0.000 A 
ENDROOT
TORSDOF 0
ENDMDL
MODEL 6
REMARK VINA RESULT:      -6.5      2.374      3.331
REMARK  Name = 
REMARK  0 active torsions:
REMARK  status: ('A' for Active; 'I' for Inactive)
REMARK                            x       y       z     vdW  Elec       q    Type
REMARK                         _______ _______ _______ _____ _____    ______ ____
ROOT
ATOM      1 CL   UNL     1       3.698   1.449  18.233  0.00  0.00    +0.000 Cl
ATOM      2  C   UNL     1       3.818   3.161  17.977  0.00  0.00    +0.000 A 
ATOM      3  N   UNL     1       4.572   3.483  16.966  0.00  0.00    +0.000 NA
ATOM      4  N   UNL     1       4.680   4.812  16.748  0.00  0.00    +0.000 N 
ATOM      5  N   UNL     1       5.411   5.333  15.756  0.00  0.00    +0.000 NA
ATOM      6  N   UNL     1       5.270   6.651  15.867  0.00  0.00    +0.000 NA
ATOM      7  N   UNL     1       4.453   6.979  16.928  0.00  0.00    +0.000 NA
ATOM      8  C   UNL     1       4.098   5.832  17.460  0.00  0.00    +0.000 A 
ATOM      9  C   UNL     1       3.260   5.501  18.583  0.00  0.00    +0.000 A 
ATOM     10  C   UNL     1       2.624   6.464  19.367  0.00  0.00    +0.000 A 
ATOM     11  C   UNL     1       1.828   6.060  20.440  0.00  0.00    +0.000 A 
ATOM     12  C   UNL     1       1.668   4.703  20.726  0.00  0.00    +0.000 A 
ATOM     13  C   UNL     1       2.303   3.735  19.943  0.00  0.00    +0.000 A 
ATOM     14  C   UNL     1       3.101   4.135  18.869  0.00  0.00    +0.000 A 
ENDROOT
TORSDOF 0
ENDMDL
MODEL 7
REMARK VINA RESULT:      -6.5      3.569      4.869
REMARK  Name = 
REMARK  0 active torsions:
REMARK  status: ('A' for Active; 'I' for Inactive)
REMARK                            x       y       z     vdW  Elec       q    Type
REMARK                         _______ _______ _______ _____ _____    ______ ____
ROOT
ATOM      1 CL   UNL     1       3.542   1.626  18.072  0.00  0.00    +0.000 Cl
ATOM      2  C   UNL     1       3.303   3.313  18.400  0.00  0.00    +0.000 A 
ATOM      3  N   UNL     1       2.523   3.539  19.418  0.00  0.00    +0.000 NA
ATOM      4  N   UNL     1       2.323   4.847  19.691  0.00  0.00    +0.000 N 
ATOM      5  N   UNL     1       1.553   5.273  20.699  0.00  0.00    +0.000 NA
ATOM      6  N   UNL     1       1.603   6.601  20.644  0.00  0.00    +0.000 NA
ATOM      7  N   UNL     1       2.401   7.030  19.606  0.00  0.00    +0.000 NA
ATOM      8  C   UNL     1       2.837   5.934  19.028  0.00  0.00    +0.000 A 
ATOM      9  C   UNL     1       3.702   5.710  17.898  0.00  0.00    +0.000 A 
ATOM     10  C   UNL     1       4.274   6.747  17.161  0.00  0.00    +0.000 A 
ATOM     11  C   UNL     1       5.101   6.445  16.078  0.00  0.00    +0.000 A 
ATOM     12  C   UNL     1       5.355   5.116  15.736  0.00  0.00    +0.000 A 
ATOM     13  C   UNL     1       4.785   4.074  16.472  0.00  0.00    +0.000 A 
ATOM     14  C   UNL     1       3.955   4.372  17.556  0.00  0.00    +0.000 A 
ENDROOT
TORSDOF 0
ENDMDL
MODEL 8
REMARK VINA RESULT:      -6.4      2.537      3.048
REMARK  Name = 
REMARK  0 active torsions:
REMARK  status: ('A' for Active; 'I' for Inactive)
REMARK                            x       y       z     vdW  Elec       q    Type
REMARK                         _______ _______ _______ _____ _____    ______ ____
ROOT
ATOM      1 CL   UNL     1       5.766   3.697  14.617  0.00  0.00    +0.000 Cl
ATOM      2  C   UNL     1       5.798   4.127  16.298  0.00  0.00    +0.000 A 
ATOM      3  N   UNL     1       6.985   4.440  16.731  0.00  0.00    +0.000 NA
ATOM      4  N   UNL     1       7.033   4.779  18.039  0.00  0.00    +0.000 N 
ATOM      5  N   UNL     1       8.164   5.130  18.661  0.00  0.00    +0.000 NA
ATOM      6  N   UNL     1       7.811   5.386  19.917  0.00  0.00    +0.000 NA
ATOM      7  N   UNL     1       6.458   5.200  20.105  0.00  0.00    +0.000 NA
ATOM      8  C   UNL     1       5.994   4.825  18.936  0.00  0.00    +0.000 A 
ATOM      9  C   UNL     1       4.671   4.481  18.480  0.00  0.00    +0.000 A 
ATOM     10  C   UNL     1       3.552   4.498  19.312  0.00  0.00    +0.000 A 
ATOM     11  C   UNL     1       2.305   4.152  18.793  0.00  0.00    +0.000 A 
ATOM     12  C   UNL     1       2.176   3.791  17.450  0.00  0.00    +0.000 A 
ATOM     13  C   UNL     1       3.295   3.773  16.612  0.00  0.00    +0.000 A 
ATOM     14  C   UNL     1       4.546   4.119  17.129  0.00  0.00    +0.000 A 
ENDROOT
TORSDOF 0
ENDMDL
MODEL 9
REMARK VINA RESULT:      -6.4      3.138      4.075
REMARK  Name = 
REMARK  0 active torsions:
REMARK  status: ('A' for Active; 'I' for Inactive)
REMARK                            x       y       z     vdW  Elec       q    Type
REMARK                         _______ _______ _______ _____ _____    ______ ____
ROOT
ATOM      1 CL   UNL     1       2.249   7.599  19.503  0.00  0.00    +0.000 Cl
ATOM      2  C   UNL     1       2.607   6.004  18.921  0.00  0.00    +0.000 A 
ATOM      3  N   UNL     1       1.947   5.066  19.536  0.00  0.00    +0.000 NA
ATOM      4  N   UNL     1       2.211   3.815  19.098  0.00  0.00    +0.000 N 
ATOM      5  N   UNL     1       1.628   2.724  19.608  0.00  0.00    +0.000 NA
ATOM      6  N   UNL     1       2.137   1.701  18.929  0.00  0.00    +0.000 NA
ATOM      7  N   UNL     1       3.046   2.129  17.984  0.00  0.00    +0.000 NA
ATOM      8  C   UNL     1       3.078   3.437  18.102  0.00  0.00    +0.000 A 
ATOM      9  C   UNL     1       3.821   4.457  17.408  0.00  0.00    +0.000 A 
ATOM     10  C   UNL     1       4.725   4.174  16.384  0.00  0.00    +0.000 A 
ATOM     11  C   UNL     1       5.406   5.220  15.761  0.00  0.00    +0.000 A 
ATOM     12  C   UNL     1       5.185   6.541  16.159  0.00  0.00    +0.000 A 
ATOM     13  C   UNL     1       4.280   6.828  17.184  0.00  0.00    +0.000 A 
ATOM     14  C   UNL     1       3.597   5.783  17.811  0.00  0.00    +0.000 A 
ENDROOT
TORSDOF 0
ENDMDL
