MODEL 1
REMARK VINA RESULT:      -7.9      0.000      0.000
REMARK  Name = 
REMARK  15 active torsions:
REMARK  status: ('A' for Active; 'I' for Inactive)
REMARK    1  A    between atoms: C_1  and  C_2
REMARK    2  A    between atoms: C_2  and  C_14
REMARK    3  A    between atoms: C_3  and  C_4
REMARK    4  A    between atoms: C_4  and  O_5
REMARK    5  A    between atoms: O_5  and  P_6
REMARK    6  A    between atoms: P_6  and  O_8
REMARK    7  A    between atoms: P_6  and  O_9
REMARK    8  A    between atoms: O_9  and  P_10
REMARK    9  A    between atoms: P_10  and  O_12
REMARK   10  A    between atoms: P_10  and  O_13
REMARK   11  A    between atoms: C_14  and  O_15
REMARK   12  A    between atoms: O_15  and  C_16
REMARK   13  A    between atoms: C_16  and  C_17
REMARK   14  A    between atoms: C_20  and  C_21
REMARK   15  A    between atoms: C_21  and  C_23
REMARK                            x       y       z     vdW  Elec       q    Type
REMARK                         _______ _______ _______ _____ _____    ______ ____
ROOT
ATOM      1  C   UNL     1       2.224   3.971  20.206  0.00  0.00    +0.000 C 
ENDROOT
BRANCH   1   3
ATOM      2  C   UNL     1       1.407   4.168  17.807  0.00  0.00    +0.000 C 
ATOM      3  C   UNL     1       2.576   3.951  18.729  0.00  0.00    +0.000 C 
ATOM      4  C   UNL     1       3.851   3.817  18.298  0.00  0.00    +0.000 C 
BRANCH   4   5
ATOM      5  C   UNL     1       4.338   3.691  16.878  0.00  0.00    +0.000 C 
BRANCH   5   6
ATOM      6  O   UNL     1       5.730   3.937  16.780  0.00  0.00    +0.000 OA
BRANCH   6   7
ATOM      7  P   UNL     1       6.161   5.324  16.089  0.00  0.00    +0.000 P 
ATOM      8  O   UNL     1       6.525   5.257  14.643  0.00  0.00    +0.000 OA
BRANCH   7   9
ATOM      9  O   UNL     1       4.841   6.212  16.323  0.00  0.00    +0.000 OA
ATOM     10  H   UNL     1       4.299   5.886  17.062  0.00  0.00    +0.000 HD
ENDBRANCH   7   9
BRANCH   7  11
ATOM     11  O   UNL     1       7.213   6.072  17.017  0.00  0.00    +0.000 OA
BRANCH  11  12
ATOM     12  P   UNL     1       7.423   5.800  18.712  0.00  0.00    +0.000 P 
ATOM     13  O   UNL     1       8.303   4.575  18.464  0.00  0.00    +0.000 OA
BRANCH  12  14
ATOM     14  O   UNL     1       8.494   7.020  18.806  0.00  0.00    +0.000 OA
ATOM     15  H   UNL     1       9.148   6.915  18.088  0.00  0.00    +0.000 HD
ENDBRANCH  12  14
BRANCH  12  16
ATOM     16  O   UNL     1       7.634   5.528  20.407  0.00  0.00    +0.000 OA
ATOM     17  H   UNL     1       8.496   5.931  20.620  0.00  0.00    +0.000 HD
ENDBRANCH  12  16
ENDBRANCH  11  12
ENDBRANCH   7  11
ENDBRANCH   6   7
ENDBRANCH   5   6
ENDBRANCH   4   5
ENDBRANCH   1   3
BRANCH   1  18
ATOM     18  O   UNL     1       2.277   5.313  20.708  0.00  0.00    +0.000 OA
BRANCH  18  19
ATOM     19  C   UNL     1       3.033   6.158  19.831  0.00  0.00    +0.000 C 
BRANCH  19  20
ATOM     20  C   UNL     1       2.290   7.439  19.518  0.00  0.00    +0.000 A 
ATOM     21  C   UNL     1       2.247   7.953  18.213  0.00  0.00    +0.000 A 
ATOM     22  C   UNL     1       1.512   9.110  17.922  0.00  0.00    +0.000 A 
ATOM     23  C   UNL     1       0.809   9.777  18.932  0.00  0.00    +0.000 A 
ATOM     24  C   UNL     1       0.815   9.247  20.228  0.00  0.00    +0.000 A 
ATOM     25  C   UNL     1       1.561   8.098  20.518  0.00  0.00    +0.000 A 
BRANCH  23  26
ATOM     26  C   UNL     1       0.031  10.997  18.576  0.00  0.00    +0.000 C 
ATOM     27  O   UNL     1       0.605  12.084  18.529  0.00  0.00    +0.000 OA
BRANCH  26  28
ATOM     28  C   UNL     1      -1.424  10.939  18.264  0.00  0.00    +0.000 A 
ATOM     29  C   UNL     1      -2.294  11.747  18.997  0.00  0.00    +0.000 A 
ATOM     30  C   UNL     1      -3.664  11.735  18.719  0.00  0.00    +0.000 A 
ATOM     31  C   UNL     1      -4.164  10.906  17.714  0.00  0.00    +0.000 A 
ATOM     32  C   UNL     1      -3.300  10.075  17.003  0.00  0.00    +0.000 A 
ATOM     33  C   UNL     1      -1.935  10.077  17.284  0.00  0.00    +0.000 A 
ENDBRANCH  26  28
ENDBRANCH  23  26
ENDBRANCH  19  20
ENDBRANCH  18  19
ENDBRANCH   1  18
TORSDOF 14
ENDMDL
MODEL 2
REMARK VINA RESULT:      -7.4      4.083      8.903
REMARK  Name = 
REMARK  15 active torsions:
REMARK  status: ('A' for Active; 'I' for Inactive)
REMARK    1  A    between atoms: C_1  and  C_2
REMARK    2  A    between atoms: C_2  and  C_14
REMARK    3  A    between atoms: C_3  and  C_4
REMARK    4  A    between atoms: C_4  and  O_5
REMARK    5  A    between atoms: O_5  and  P_6
REMARK    6  A    between atoms: P_6  and  O_8
REMARK    7  A    between atoms: P_6  and  O_9
REMARK    8  A    between atoms: O_9  and  P_10
REMARK    9  A    between atoms: P_10  and  O_12
REMARK   10  A    between atoms: P_10  and  O_13
REMARK   11  A    between atoms: C_14  and  O_15
REMARK   12  A    between atoms: O_15  and  C_16
REMARK   13  A    between atoms: C_16  and  C_17
REMARK   14  A    between atoms: C_20  and  C_21
REMARK   15  A    between atoms: C_21  and  C_23
REMARK                            x       y       z     vdW  Elec       q    Type
REMARK                         _______ _______ _______ _____ _____    ______ ____
ROOT
ATOM      1  C   UNL     1       1.686   4.172  19.707  0.00  0.00    +0.000 C 
ENDROOT
BRANCH   1   3
ATOM      2  C   UNL     1       2.205   6.153  18.200  0.00  0.00    +0.000 C 
ATOM      3  C   UNL     1       1.822   5.679  19.575  0.00  0.00    +0.000 C 
ATOM      4  C   UNL     1       1.551   6.515  20.603  0.00  0.00    +0.000 C 
BRANCH   4   5
ATOM      5  C   UNL     1       1.727   8.011  20.649  0.00  0.00    +0.000 C 
BRANCH   5   6
ATOM      6  O   UNL     1       1.284   8.550  21.883  0.00  0.00    +0.000 OA
BRANCH   6   7
ATOM      7  P   UNL     1       0.164   9.702  21.795  0.00  0.00    +0.000 P 
ATOM      8  O   UNL     1      -0.753   9.822  22.967  0.00  0.00    +0.000 OA
BRANCH   7   9
ATOM      9  O   UNL     1       1.079  11.013  21.626  0.00  0.00    +0.000 OA
ATOM     10  H   UNL     1       1.646  11.174  22.399  0.00  0.00    +0.000 HD
ENDBRANCH   7   9
BRANCH   7  11
ATOM     11  O   UNL     1      -0.554   9.633  20.379  0.00  0.00    +0.000 OA
BRANCH  11  12
ATOM     12  P   UNL     1      -0.553  10.894  19.194  0.00  0.00    +0.000 P 
ATOM     13  O   UNL     1      -1.670  10.223  18.397  0.00  0.00    +0.000 OA
BRANCH  12  14
ATOM     14  O   UNL     1      -1.355  11.884  20.205  0.00  0.00    +0.000 OA
ATOM     15  H   UNL     1      -0.867  12.728  20.264  0.00  0.00    +0.000 HD
ENDBRANCH  12  14
BRANCH  12  16
ATOM     16  O   UNL     1      -0.553  12.155  18.010  0.00  0.00    +0.000 OA
ATOM     17  H   UNL     1       0.308  12.601  18.120  0.00  0.00    +0.000 HD
ENDBRANCH  12  16
ENDBRANCH  11  12
ENDBRANCH   7  11
ENDBRANCH   6   7
ENDBRANCH   5   6
ENDBRANCH   4   5
ENDBRANCH   1   3
BRANCH   1  18
ATOM     18  O   UNL     1       2.645   3.671  20.647  0.00  0.00    +0.000 OA
BRANCH  18  19
ATOM     19  C   UNL     1       3.560   2.767  20.012  0.00  0.00    +0.000 C 
BRANCH  19  20
ATOM     20  C   UNL     1       4.360   3.458  18.928  0.00  0.00    +0.000 A 
ATOM     21  C   UNL     1       5.386   4.360  19.247  0.00  0.00    +0.000 A 
ATOM     22  C   UNL     1       6.157   4.956  18.239  0.00  0.00    +0.000 A 
ATOM     23  C   UNL     1       5.913   4.661  16.892  0.00  0.00    +0.000 A 
ATOM     24  C   UNL     1       4.917   3.731  16.570  0.00  0.00    +0.000 A 
ATOM     25  C   UNL     1       4.140   3.148  17.579  0.00  0.00    +0.000 A 
BRANCH  23  26
ATOM     26  C   UNL     1       6.764   5.306  15.854  0.00  0.00    +0.000 C 
ATOM     27  O   UNL     1       7.472   6.264  16.166  0.00  0.00    +0.000 OA
BRANCH  26  28
ATOM     28  C   UNL     1       6.793   4.820  14.447  0.00  0.00    +0.000 A 
ATOM     29  C   UNL     1       7.700   5.403  13.560  0.00  0.00    +0.000 A 
ATOM     30  C   UNL     1       7.771   4.958  12.237  0.00  0.00    +0.000 A 
ATOM     31  C   UNL     1       6.926   3.938  11.798  0.00  0.00    +0.000 A 
ATOM     32  C   UNL     1       5.998   3.377  12.674  0.00  0.00    +0.000 A 
ATOM     33  C   UNL     1       5.918   3.824  13.992  0.00  0.00    +0.000 A 
ENDBRANCH  26  28
ENDBRANCH  23  26
ENDBRANCH  19  20
ENDBRANCH  18  19
ENDBRANCH   1  18
TORSDOF 14
ENDMDL
MODEL 3
REMARK VINA RESULT:      -7.4      2.568      4.016
REMARK  Name = 
REMARK  15 active torsions:
REMARK  status: ('A' for Active; 'I' for Inactive)
REMARK    1  A    between atoms: C_1  and  C_2
REMARK    2  A    between atoms: C_2  and  C_14
REMARK    3  A    between atoms: C_3  and  C_4
REMARK    4  A    between atoms: C_4  and  O_5
REMARK    5  A    between atoms: O_5  and  P_6
REMARK    6  A    between atoms: P_6  and  O_8
REMARK    7  A    between atoms: P_6  and  O_9
REMARK    8  A    between atoms: O_9  and  P_10
REMARK    9  A    between atoms: P_10  and  O_12
REMARK   10  A    between atoms: P_10  and  O_13
REMARK   11  A    between atoms: C_14  and  O_15
REMARK   12  A    between atoms: O_15  and  C_16
REMARK   13  A    between atoms: C_16  and  C_17
REMARK   14  A    between atoms: C_20  and  C_21
REMARK   15  A    between atoms: C_21  and  C_23
REMARK                            x       y       z     vdW  Elec       q    Type
REMARK                         _______ _______ _______ _____ _____    ______ ____
ROOT
ATOM      1  C   UNL     1       1.674   6.166  20.751  0.00  0.00    +0.000 C 
ENDROOT
BRANCH   1   3
ATOM      2  C   UNL     1       2.538   6.506  18.384  0.00  0.00    +0.000 C 
ATOM      3  C   UNL     1       2.498   5.619  19.599  0.00  0.00    +0.000 C 
ATOM      4  C   UNL     1       3.188   4.460  19.698  0.00  0.00    +0.000 C 
BRANCH   4   5
ATOM      5  C   UNL     1       3.967   3.753  18.620  0.00  0.00    +0.000 C 
BRANCH   5   6
ATOM      6  O   UNL     1       5.321   3.561  18.997  0.00  0.00    +0.000 OA
BRANCH   6   7
ATOM      7  P   UNL     1       6.317   4.793  18.721  0.00  0.00    +0.000 P 
ATOM      8  O   UNL     1       6.764   5.563  19.920  0.00  0.00    +0.000 OA
BRANCH   7   9
ATOM      9  O   UNL     1       7.549   4.044  18.010  0.00  0.00    +0.000 OA
ATOM     10  H   UNL     1       7.377   3.098  17.867  0.00  0.00    +0.000 HD
ENDBRANCH   7   9
BRANCH   7  11
ATOM     11  O   UNL     1       5.751   5.674  17.526  0.00  0.00    +0.000 OA
BRANCH  11  12
ATOM     12  P   UNL     1       6.232   5.541  15.869  0.00  0.00    +0.000 P 
ATOM     13  O   UNL     1       5.257   6.635  15.439  0.00  0.00    +0.000 OA
BRANCH  12  14
ATOM     14  O   UNL     1       7.605   6.356  16.171  0.00  0.00    +0.000 OA
ATOM     15  H   UNL     1       7.898   6.147  17.079  0.00  0.00    +0.000 HD
ENDBRANCH  12  14
BRANCH  12  16
ATOM     16  O   UNL     1       6.713   5.407  14.213  0.00  0.00    +0.000 OA
ATOM     17  H   UNL     1       7.498   4.827  14.226  0.00  0.00    +0.000 HD
ENDBRANCH  12  16
ENDBRANCH  11  12
ENDBRANCH   7  11
ENDBRANCH   6   7
ENDBRANCH   5   6
ENDBRANCH   4   5
ENDBRANCH   1   3
BRANCH   1  18
ATOM     18  O   UNL     1       1.386   7.554  20.535  0.00  0.00    +0.000 OA
BRANCH  18  19
ATOM     19  C   UNL     1       1.759   8.338  21.676  0.00  0.00    +0.000 C 
BRANCH  19  20
ATOM     20  C   UNL     1       0.785   9.473  21.912  0.00  0.00    +0.000 A 
ATOM     21  C   UNL     1      -0.179   9.402  22.930  0.00  0.00    +0.000 A 
ATOM     22  C   UNL     1      -1.043  10.479  23.176  0.00  0.00    +0.000 A 
ATOM     23  C   UNL     1      -0.959  11.645  22.406  0.00  0.00    +0.000 A 
ATOM     24  C   UNL     1       0.027  11.737  21.417  0.00  0.00    +0.000 A 
ATOM     25  C   UNL     1       0.879  10.655  21.165  0.00  0.00    +0.000 A 
BRANCH  23  26
ATOM     26  C   UNL     1      -1.887  12.770  22.710  0.00  0.00    +0.000 C 
ATOM     27  O   UNL     1      -1.497  13.697  23.420  0.00  0.00    +0.000 OA
BRANCH  26  28
ATOM     28  C   UNL     1      -3.274  12.813  22.171  0.00  0.00    +0.000 A 
ATOM     29  C   UNL     1      -3.451  12.784  20.787  0.00  0.00    +0.000 A 
ATOM     30  C   UNL     1      -4.740  12.802  20.245  0.00  0.00    +0.000 A 
ATOM     31  C   UNL     1      -5.850  12.860  21.088  0.00  0.00    +0.000 A 
ATOM     32  C   UNL     1      -5.674  12.921  22.470  0.00  0.00    +0.000 A 
ATOM     33  C   UNL     1      -4.390  12.913  23.013  0.00  0.00    +0.000 A 
ENDBRANCH  26  28
ENDBRANCH  23  26
ENDBRANCH  19  20
ENDBRANCH  18  19
ENDBRANCH   1  18
TORSDOF 14
ENDMDL
MODEL 4
REMARK VINA RESULT:      -7.4      2.254      3.481
REMARK  Name = 
REMARK  15 active torsions:
REMARK  status: ('A' for Active; 'I' for Inactive)
REMARK    1  A    between atoms: C_1  and  C_2
REMARK    2  A    between atoms: C_2  and  C_14
REMARK    3  A    between atoms: C_3  and  C_4
REMARK    4  A    between atoms: C_4  and  O_5
REMARK    5  A    between atoms: O_5  and  P_6
REMARK    6  A    between atoms: P_6  and  O_8
REMARK    7  A    between atoms: P_6  and  O_9
REMARK    8  A    between atoms: O_9  and  P_10
REMARK    9  A    between atoms: P_10  and  O_12
REMARK   10  A    between atoms: P_10  and  O_13
REMARK   11  A    between atoms: C_14  and  O_15
REMARK   12  A    between atoms: O_15  and  C_16
REMARK   13  A    between atoms: C_16  and  C_17
REMARK   14  A    between atoms: C_20  and  C_21
REMARK   15  A    between atoms: C_21  and  C_23
REMARK                            x       y       z     vdW  Elec       q    Type
REMARK                         _______ _______ _______ _____ _____    ______ ____
ROOT
ATOM      1  C   UNL     1       2.826   4.708  20.040  0.00  0.00    +0.000 C 
ENDROOT
BRANCH   1   3
ATOM      2  C   UNL     1       3.012   2.506  18.783  0.00  0.00    +0.000 C 
ATOM      3  C   UNL     1       3.235   3.994  18.764  0.00  0.00    +0.000 C 
ATOM      4  C   UNL     1       3.696   4.665  17.683  0.00  0.00    +0.000 C 
BRANCH   4   5
ATOM      5  C   UNL     1       4.220   4.090  16.394  0.00  0.00    +0.000 C 
BRANCH   5   6
ATOM      6  O   UNL     1       5.636   4.019  16.392  0.00  0.00    +0.000 OA
BRANCH   6   7
ATOM      7  P   UNL     1       6.419   5.411  16.203  0.00  0.00    +0.000 P 
ATOM      8  O   UNL     1       7.686   5.355  15.416  0.00  0.00    +0.000 OA
BRANCH   7   9
ATOM      9  O   UNL     1       5.303   6.297  15.460  0.00  0.00    +0.000 OA
ATOM     10  H   UNL     1       5.564   6.545  14.557  0.00  0.00    +0.000 HD
ENDBRANCH   7   9
BRANCH   7  11
ATOM     11  O   UNL     1       6.527   6.151  17.606  0.00  0.00    +0.000 OA
BRANCH  11  12
ATOM     12  P   UNL     1       7.578   5.692  18.901  0.00  0.00    +0.000 P 
ATOM     13  O   UNL     1       6.401   5.317  19.800  0.00  0.00    +0.000 OA
BRANCH  12  14
ATOM     14  O   UNL     1       7.941   4.296  18.152  0.00  0.00    +0.000 OA
ATOM     15  H   UNL     1       7.176   3.694  18.229  0.00  0.00    +0.000 HD
ENDBRANCH  12  14
BRANCH  12  16
ATOM     16  O   UNL     1       8.630   5.234  20.196  0.00  0.00    +0.000 OA
ATOM     17  H   UNL     1       8.775   6.056  20.703  0.00  0.00    +0.000 HD
ENDBRANCH  12  16
ENDBRANCH  11  12
ENDBRANCH   7  11
ENDBRANCH   6   7
ENDBRANCH   5   6
ENDBRANCH   4   5
ENDBRANCH   1   3
BRANCH   1  18
ATOM     18  O   UNL     1       2.092   5.899  19.725  0.00  0.00    +0.000 OA
BRANCH  18  19
ATOM     19  C   UNL     1       1.604   6.530  20.916  0.00  0.00    +0.000 C 
BRANCH  19  20
ATOM     20  C   UNL     1       1.314   7.998  20.686  0.00  0.00    +0.000 A 
ATOM     21  C   UNL     1       0.958   8.843  21.749  0.00  0.00    +0.000 A 
ATOM     22  C   UNL     1       0.742  10.212  21.537  0.00  0.00    +0.000 A 
ATOM     23  C   UNL     1       0.878  10.760  20.256  0.00  0.00    +0.000 A 
ATOM     24  C   UNL     1       1.273   9.931  19.199  0.00  0.00    +0.000 A 
ATOM     25  C   UNL     1       1.474   8.561  19.413  0.00  0.00    +0.000 A 
BRANCH  23  26
ATOM     26  C   UNL     1       0.652  12.222  20.077  0.00  0.00    +0.000 C 
ATOM     27  O   UNL     1      -0.482  12.678  20.223  0.00  0.00    +0.000 OA
BRANCH  26  28
ATOM     28  C   UNL     1       1.762  13.154  19.737  0.00  0.00    +0.000 A 
ATOM     29  C   UNL     1       2.526  13.686  20.777  0.00  0.00    +0.000 A 
ATOM     30  C   UNL     1       3.590  14.548  20.495  0.00  0.00    +0.000 A 
ATOM     31  C   UNL     1       3.882  14.886  19.173  0.00  0.00    +0.000 A 
ATOM     32  C   UNL     1       3.100  14.380  18.135  0.00  0.00    +0.000 A 
ATOM     33  C   UNL     1       2.033  13.527  18.413  0.00  0.00    +0.000 A 
ENDBRANCH  26  28
ENDBRANCH  23  26
ENDBRANCH  19  20
ENDBRANCH  18  19
ENDBRANCH   1  18
TORSDOF 14
ENDMDL
MODEL 5
REMARK VINA RESULT:      -7.4      5.693     10.949
REMARK  Name = 
REMARK  15 active torsions:
REMARK  status: ('A' for Active; 'I' for Inactive)
REMARK    1  A    between atoms: C_1  and  C_2
REMARK    2  A    between atoms: C_2  and  C_14
REMARK    3  A    between atoms: C_3  and  C_4
REMARK    4  A    between atoms: C_4  and  O_5
REMARK    5  A    between atoms: O_5  and  P_6
REMARK    6  A    between atoms: P_6  and  O_8
REMARK    7  A    between atoms: P_6  and  O_9
REMARK    8  A    between atoms: O_9  and  P_10
REMARK    9  A    between atoms: P_10  and  O_12
REMARK   10  A    between atoms: P_10  and  O_13
REMARK   11  A    between atoms: C_14  and  O_15
REMARK   12  A    between atoms: O_15  and  C_16
REMARK   13  A    between atoms: C_16  and  C_17
REMARK   14  A    between atoms: C_20  and  C_21
REMARK   15  A    between atoms: C_21  and  C_23
REMARK                            x       y       z     vdW  Elec       q    Type
REMARK                         _______ _______ _______ _____ _____    ______ ____
ROOT
ATOM      1  C   UNL     1      -0.989  11.027  18.212  0.00  0.00    +0.000 C 
ENDROOT
BRANCH   1   3
ATOM      2  C   UNL     1      -3.165  10.716  16.934  0.00  0.00    +0.000 C 
ATOM      3  C   UNL     1      -2.490  11.251  18.168  0.00  0.00    +0.000 C 
ATOM      4  C   UNL     1      -3.159  11.826  19.194  0.00  0.00    +0.000 C 
BRANCH   4   5
ATOM      5  C   UNL     1      -4.619  12.192  19.255  0.00  0.00    +0.000 C 
BRANCH   5   6
ATOM      6  O   UNL     1      -4.876  13.143  20.274  0.00  0.00    +0.000 OA
BRANCH   6   7
ATOM      7  P   UNL     1      -6.342  13.101  20.935  0.00  0.00    +0.000 P 
ATOM      8  O   UNL     1      -7.470  13.557  20.070  0.00  0.00    +0.000 OA
BRANCH   7   9
ATOM      9  O   UNL     1      -6.473  11.542  21.302  0.00  0.00    +0.000 OA
ATOM     10  H   UNL     1      -7.381  11.209  21.198  0.00  0.00    +0.000 HD
ENDBRANCH   7   9
BRANCH   7  11
ATOM     11  O   UNL     1      -6.289  13.762  22.380  0.00  0.00    +0.000 OA
BRANCH  11  12
ATOM     12  P   UNL     1      -5.507  13.079  23.764  0.00  0.00    +0.000 P 
ATOM     13  O   UNL     1      -6.588  12.010  23.918  0.00  0.00    +0.000 OA
BRANCH  12  14
ATOM     14  O   UNL     1      -4.396  12.359  22.820  0.00  0.00    +0.000 OA
ATOM     15  H   UNL     1      -3.548  12.832  22.923  0.00  0.00    +0.000 HD
ENDBRANCH  12  14
BRANCH  12  16
ATOM     16  O   UNL     1      -4.726  12.397  25.148  0.00  0.00    +0.000 OA
ATOM     17  H   UNL     1      -4.265  13.146  25.571  0.00  0.00    +0.000 HD
ENDBRANCH  12  16
ENDBRANCH  11  12
ENDBRANCH   7  11
ENDBRANCH   6   7
ENDBRANCH   5   6
ENDBRANCH   4   5
ENDBRANCH   1   3
BRANCH   1  18
ATOM     18  O   UNL     1      -0.615  10.444  19.467  0.00  0.00    +0.000 OA
BRANCH  18  19
ATOM     19  C   UNL     1       0.805  10.511  19.660  0.00  0.00    +0.000 C 
BRANCH  19  20
ATOM     20  C   UNL     1       1.472   9.195  19.322  0.00  0.00    +0.000 A 
ATOM     21  C   UNL     1       1.534   8.151  20.259  0.00  0.00    +0.000 A 
ATOM     22  C   UNL     1       2.106   6.917  19.921  0.00  0.00    +0.000 A 
ATOM     23  C   UNL     1       2.630   6.705  18.640  0.00  0.00    +0.000 A 
ATOM     24  C   UNL     1       2.535   7.728  17.689  0.00  0.00    +0.000 A 
ATOM     25  C   UNL     1       1.975   8.965  18.034  0.00  0.00    +0.000 A 
BRANCH  23  26
ATOM     26  C   UNL     1       3.218   5.375  18.319  0.00  0.00    +0.000 C 
ATOM     27  O   UNL     1       2.479   4.393  18.241  0.00  0.00    +0.000 OA
BRANCH  26  28
ATOM     28  C   UNL     1       4.677   5.196  18.079  0.00  0.00    +0.000 A 
ATOM     29  C   UNL     1       5.088   4.656  16.859  0.00  0.00    +0.000 A 
ATOM     30  C   UNL     1       6.450   4.493  16.589  0.00  0.00    +0.000 A 
ATOM     31  C   UNL     1       7.399   4.858  17.544  0.00  0.00    +0.000 A 
ATOM     32  C   UNL     1       6.988   5.368  18.775  0.00  0.00    +0.000 A 
ATOM     33  C   UNL     1       5.631   5.524  19.051  0.00  0.00    +0.000 A 
ENDBRANCH  26  28
ENDBRANCH  23  26
ENDBRANCH  19  20
ENDBRANCH  18  19
ENDBRANCH   1  18
TORSDOF 14
ENDMDL
MODEL 6
REMARK VINA RESULT:      -7.3      1.320      2.334
REMARK  Name = 
REMARK  15 active torsions:
REMARK  status: ('A' for Active; 'I' for Inactive)
REMARK    1  A    between atoms: C_1  and  C_2
REMARK    2  A    between atoms: C_2  and  C_14
REMARK    3  A    between atoms: C_3  and  C_4
REMARK    4  A    between atoms: C_4  and  O_5
REMARK    5  A    between atoms: O_5  and  P_6
REMARK    6  A    between atoms: P_6  and  O_8
REMARK    7  A    between atoms: P_6  and  O_9
REMARK    8  A    between atoms: O_9  and  P_10
REMARK    9  A    between atoms: P_10  and  O_12
REMARK   10  A    between atoms: P_10  and  O_13
REMARK   11  A    between atoms: C_14  and  O_15
REMARK   12  A    between atoms: O_15  and  C_16
REMARK   13  A    between atoms: C_16  and  C_17
REMARK   14  A    between atoms: C_20  and  C_21
REMARK   15  A    between atoms: C_21  and  C_23
REMARK                            x       y       z     vdW  Elec       q    Type
REMARK                         _______ _______ _______ _____ _____    ______ ____
ROOT
ATOM      1  C   UNL     1       3.219   2.729  19.783  0.00  0.00    +0.000 C 
ENDROOT
BRANCH   1   3
ATOM      2  C   UNL     1       2.221   2.259  17.492  0.00  0.00    +0.000 C 
ATOM      3  C   UNL     1       3.324   2.914  18.280  0.00  0.00    +0.000 C 
ATOM      4  C   UNL     1       4.297   3.665  17.716  0.00  0.00    +0.000 C 
BRANCH   4   5
ATOM      5  C   UNL     1       4.579   3.864  16.250  0.00  0.00    +0.000 C 
BRANCH   5   6
ATOM      6  O   UNL     1       5.924   3.548  15.931  0.00  0.00    +0.000 OA
BRANCH   6   7
ATOM      7  P   UNL     1       7.025   4.657  16.311  0.00  0.00    +0.000 P 
ATOM      8  O   UNL     1       8.200   4.179  17.099  0.00  0.00    +0.000 OA
BRANCH   7   9
ATOM      9  O   UNL     1       7.464   5.173  14.853  0.00  0.00    +0.000 OA
ATOM     10  H   UNL     1       7.362   4.489  14.169  0.00  0.00    +0.000 HD
ENDBRANCH   7   9
BRANCH   7  11
ATOM     11  O   UNL     1       6.298   5.944  16.896  0.00  0.00    +0.000 OA
BRANCH  11  12
ATOM     12  P   UNL     1       7.096   7.349  17.516  0.00  0.00    +0.000 P 
ATOM     13  O   UNL     1       7.634   6.580  18.722  0.00  0.00    +0.000 OA
BRANCH  12  14
ATOM     14  O   UNL     1       8.281   7.199  16.414  0.00  0.00    +0.000 OA
ATOM     15  H   UNL     1       7.878   6.984  15.551  0.00  0.00    +0.000 HD
ENDBRANCH  12  14
BRANCH  12  16
ATOM     16  O   UNL     1       7.893   8.753  18.136  0.00  0.00    +0.000 OA
ATOM     17  H   UNL     1       7.528   8.872  19.034  0.00  0.00    +0.000 HD
ENDBRANCH  12  16
ENDBRANCH  11  12
ENDBRANCH   7  11
ENDBRANCH   6   7
ENDBRANCH   5   6
ENDBRANCH   4   5
ENDBRANCH   1   3
BRANCH   1  18
ATOM     18  O   UNL     1       2.082   3.441  20.289  0.00  0.00    +0.000 OA
BRANCH  18  19
ATOM     19  C   UNL     1       2.491   4.585  21.051  0.00  0.00    +0.000 C 
BRANCH  19  20
ATOM     20  C   UNL     1       2.165   5.876  20.331  0.00  0.00    +0.000 A 
ATOM     21  C   UNL     1       1.594   6.962  21.011  0.00  0.00    +0.000 A 
ATOM     22  C   UNL     1       1.345   8.172  20.349  0.00  0.00    +0.000 A 
ATOM     23  C   UNL     1       1.661   8.316  18.992  0.00  0.00    +0.000 A 
ATOM     24  C   UNL     1       2.268   7.250  18.319  0.00  0.00    +0.000 A 
ATOM     25  C   UNL     1       2.503   6.038  18.980  0.00  0.00    +0.000 A 
BRANCH  23  26
ATOM     26  C   UNL     1       1.391   9.624  18.331  0.00  0.00    +0.000 C 
ATOM     27  O   UNL     1       2.264  10.134  17.629  0.00  0.00    +0.000 OA
BRANCH  26  28
ATOM     28  C   UNL     1       0.089  10.330  18.485  0.00  0.00    +0.000 A 
ATOM     29  C   UNL     1      -0.968   9.965  17.649  0.00  0.00    +0.000 A 
ATOM     30  C   UNL     1      -2.211  10.591  17.778  0.00  0.00    +0.000 A 
ATOM     31  C   UNL     1      -2.392  11.590  18.735  0.00  0.00    +0.000 A 
ATOM     32  C   UNL     1      -1.328  11.978  19.549  0.00  0.00    +0.000 A 
ATOM     33  C   UNL     1      -0.085  11.362  19.416  0.00  0.00    +0.000 A 
ENDBRANCH  26  28
ENDBRANCH  23  26
ENDBRANCH  19  20
ENDBRANCH  18  19
ENDBRANCH   1  18
TORSDOF 14
ENDMDL
MODEL 7
REMARK VINA RESULT:      -7.3      2.074      3.620
REMARK  Name = 
REMARK  15 active torsions:
REMARK  status: ('A' for Active; 'I' for Inactive)
REMARK    1  A    between atoms: C_1  and  C_2
REMARK    2  A    between atoms: C_2  and  C_14
REMARK    3  A    between atoms: C_3  and  C_4
REMARK    4  A    between atoms: C_4  and  O_5
REMARK    5  A    between atoms: O_5  and  P_6
REMARK    6  A    between atoms: P_6  and  O_8
REMARK    7  A    between atoms: P_6  and  O_9
REMARK    8  A    between atoms: O_9  and  P_10
REMARK    9  A    between atoms: P_10  and  O_12
REMARK   10  A    between atoms: P_10  and  O_13
REMARK   11  A    between atoms: C_14  and  O_15
REMARK   12  A    between atoms: O_15  and  C_16
REMARK   13  A    between atoms: C_16  and  C_17
REMARK   14  A    between atoms: C_20  and  C_21
REMARK   15  A    between atoms: C_21  and  C_23
REMARK                            x       y       z     vdW  Elec       q    Type
REMARK                         _______ _______ _______ _____ _____    ______ ____
ROOT
ATOM      1  C   UNL     1       0.925   4.825  20.170  0.00  0.00    +0.000 C 
ENDROOT
BRANCH   1   3
ATOM      2  C   UNL     1       2.273   2.999  21.315  0.00  0.00    +0.000 C 
ATOM      3  C   UNL     1       2.031   3.791  20.059  0.00  0.00    +0.000 C 
ATOM      4  C   UNL     1       2.690   3.568  18.899  0.00  0.00    +0.000 C 
BRANCH   4   5
ATOM      5  C   UNL     1       3.860   2.649  18.662  0.00  0.00    +0.000 C 
BRANCH   5   6
ATOM      6  O   UNL     1       5.072   3.219  19.128  0.00  0.00    +0.000 OA
BRANCH   6   7
ATOM      7  P   UNL     1       5.659   4.445  18.269  0.00  0.00    +0.000 P 
ATOM      8  O   UNL     1       5.147   5.802  18.619  0.00  0.00    +0.000 OA
BRANCH   7   9
ATOM      9  O   UNL     1       7.232   4.312  18.573  0.00  0.00    +0.000 OA
ATOM     10  H   UNL     1       7.633   3.542  18.135  0.00  0.00    +0.000 HD
ENDBRANCH   7   9
BRANCH   7  11
ATOM     11  O   UNL     1       5.605   4.080  16.723  0.00  0.00    +0.000 OA
BRANCH  11  12
ATOM     12  P   UNL     1       6.642   4.735  15.503  0.00  0.00    +0.000 P 
ATOM     13  O   UNL     1       6.218   3.672  14.491  0.00  0.00    +0.000 OA
BRANCH  12  14
ATOM     14  O   UNL     1       5.602   5.953  15.230  0.00  0.00    +0.000 OA
ATOM     15  H   UNL     1       5.813   6.354  14.364  0.00  0.00    +0.000 HD
ENDBRANCH  12  14
BRANCH  12  16
ATOM     16  O   UNL     1       7.680   5.390  14.284  0.00  0.00    +0.000 OA
ATOM     17  H   UNL     1       7.643   6.356  14.416  0.00  0.00    +0.000 HD
ENDBRANCH  12  16
ENDBRANCH  11  12
ENDBRANCH   7  11
ENDBRANCH   6   7
ENDBRANCH   5   6
ENDBRANCH   4   5
ENDBRANCH   1   3
BRANCH   1  18
ATOM     18  O   UNL     1       1.364   5.934  20.965  0.00  0.00    +0.000 OA
BRANCH  18  19
ATOM     19  C   UNL     1       2.322   6.728  20.253  0.00  0.00    +0.000 C 
BRANCH  19  20
ATOM     20  C   UNL     1       1.740   8.064  19.844  0.00  0.00    +0.000 A 
ATOM     21  C   UNL     1       1.776   8.494  18.508  0.00  0.00    +0.000 A 
ATOM     22  C   UNL     1       1.188   9.708  18.129  0.00  0.00    +0.000 A 
ATOM     23  C   UNL     1       0.555  10.517  19.080  0.00  0.00    +0.000 A 
ATOM     24  C   UNL     1       0.480  10.075  20.406  0.00  0.00    +0.000 A 
ATOM     25  C   UNL     1       1.080   8.868  20.784  0.00  0.00    +0.000 A 
BRANCH  23  26
ATOM     26  C   UNL     1      -0.069  11.794  18.632  0.00  0.00    +0.000 C 
ATOM     27  O   UNL     1      -1.241  11.791  18.254  0.00  0.00    +0.000 OA
BRANCH  26  28
ATOM     28  C   UNL     1       0.682  13.080  18.635  0.00  0.00    +0.000 A 
ATOM     29  C   UNL     1       2.063  13.044  18.441  0.00  0.00    +0.000 A 
ATOM     30  C   UNL     1       2.798  14.233  18.417  0.00  0.00    +0.000 A 
ATOM     31  C   UNL     1       2.152  15.456  18.600  0.00  0.00    +0.000 A 
ATOM     32  C   UNL     1       0.777  15.491  18.825  0.00  0.00    +0.000 A 
ATOM     33  C   UNL     1       0.042  14.307  18.858  0.00  0.00    +0.000 A 
ENDBRANCH  26  28
ENDBRANCH  23  26
ENDBRANCH  19  20
ENDBRANCH  18  19
ENDBRANCH   1  18
TORSDOF 14
ENDMDL
MODEL 8
REMARK VINA RESULT:      -7.3      5.513     10.602
REMARK  Name = 
REMARK  15 active torsions:
REMARK  status: ('A' for Active; 'I' for Inactive)
REMARK    1  A    between atoms: C_1  and  C_2
REMARK    2  A    between atoms: C_2  and  C_14
REMARK    3  A    between atoms: C_3  and  C_4
REMARK    4  A    between atoms: C_4  and  O_5
REMARK    5  A    between atoms: O_5  and  P_6
REMARK    6  A    between atoms: P_6  and  O_8
REMARK    7  A    between atoms: P_6  and  O_9
REMARK    8  A    between atoms: O_9  and  P_10
REMARK    9  A    between atoms: P_10  and  O_12
REMARK   10  A    between atoms: P_10  and  O_13
REMARK   11  A    between atoms: C_14  and  O_15
REMARK   12  A    between atoms: O_15  and  C_16
REMARK   13  A    between atoms: C_16  and  C_17
REMARK   14  A    between atoms: C_20  and  C_21
REMARK   15  A    between atoms: C_21  and  C_23
REMARK                            x       y       z     vdW  Elec       q    Type
REMARK                         _______ _______ _______ _____ _____    ______ ____
ROOT
ATOM      1  C   UNL     1      -1.615  10.872  17.870  0.00  0.00    +0.000 C 
ENDROOT
BRANCH   1   3
ATOM      2  C   UNL     1      -3.695  11.047  16.419  0.00  0.00    +0.000 C 
ATOM      3  C   UNL     1      -3.081  11.254  17.777  0.00  0.00    +0.000 C 
ATOM      4  C   UNL     1      -3.780  11.679  18.855  0.00  0.00    +0.000 C 
BRANCH   4   5
ATOM      5  C   UNL     1      -5.202  12.174  18.897  0.00  0.00    +0.000 C 
BRANCH   5   6
ATOM      6  O   UNL     1      -5.301  13.417  19.572  0.00  0.00    +0.000 OA
BRANCH   6   7
ATOM      7  P   UNL     1      -5.994  13.385  21.023  0.00  0.00    +0.000 P 
ATOM      8  O   UNL     1      -7.243  14.189  21.176  0.00  0.00    +0.000 OA
BRANCH   7   9
ATOM      9  O   UNL     1      -6.280  11.813  21.198  0.00  0.00    +0.000 OA
ATOM     10  H   UNL     1      -5.994  11.294  20.426  0.00  0.00    +0.000 HD
ENDBRANCH   7   9
BRANCH   7  11
ATOM     11  O   UNL     1      -4.891  13.631  22.141  0.00  0.00    +0.000 OA
BRANCH  11  12
ATOM     12  P   UNL     1      -4.813  12.818  23.666  0.00  0.00    +0.000 P 
ATOM     13  O   UNL     1      -4.210  14.043  24.352  0.00  0.00    +0.000 OA
BRANCH  12  14
ATOM     14  O   UNL     1      -6.412  13.013  23.885  0.00  0.00    +0.000 OA
ATOM     15  H   UNL     1      -6.723  12.340  24.522  0.00  0.00    +0.000 HD
ENDBRANCH  12  14
BRANCH  12  16
ATOM     16  O   UNL     1      -4.735  12.005  25.191  0.00  0.00    +0.000 OA
ATOM     17  H   UNL     1      -4.644  11.060  24.966  0.00  0.00    +0.000 HD
ENDBRANCH  12  16
ENDBRANCH  11  12
ENDBRANCH   7  11
ENDBRANCH   6   7
ENDBRANCH   5   6
ENDBRANCH   4   5
ENDBRANCH   1   3
BRANCH   1  18
ATOM     18  O   UNL     1      -1.093  11.228  19.157  0.00  0.00    +0.000 OA
BRANCH  18  19
ATOM     19  C   UNL     1       0.327  11.423  19.098  0.00  0.00    +0.000 C 
BRANCH  19  20
ATOM     20  C   UNL     1       1.067  10.103  19.069  0.00  0.00    +0.000 A 
ATOM     21  C   UNL     1       0.969   9.193  20.132  0.00  0.00    +0.000 A 
ATOM     22  C   UNL     1       1.615   7.950  20.075  0.00  0.00    +0.000 A 
ATOM     23  C   UNL     1       2.373   7.597  18.952  0.00  0.00    +0.000 A 
ATOM     24  C   UNL     1       2.441   8.483  17.871  0.00  0.00    +0.000 A 
ATOM     25  C   UNL     1       1.805   9.730  17.938  0.00  0.00    +0.000 A 
BRANCH  23  26
ATOM     26  C   UNL     1       3.033   6.261  18.926  0.00  0.00    +0.000 C 
ATOM     27  O   UNL     1       4.210   6.178  18.576  0.00  0.00    +0.000 OA
BRANCH  26  28
ATOM     28  C   UNL     1       2.312   5.020  19.322  0.00  0.00    +0.000 A 
ATOM     29  C   UNL     1       1.718   4.248  18.322  0.00  0.00    +0.000 A 
ATOM     30  C   UNL     1       1.051   3.065  18.654  0.00  0.00    +0.000 A 
ATOM     31  C   UNL     1       0.968   2.661  19.987  0.00  0.00    +0.000 A 
ATOM     32  C   UNL     1       1.534   3.448  20.990  0.00  0.00    +0.000 A 
ATOM     33  C   UNL     1       2.192   4.633  20.664  0.00  0.00    +0.000 A 
ENDBRANCH  26  28
ENDBRANCH  23  26
ENDBRANCH  19  20
ENDBRANCH  18  19
ENDBRANCH   1  18
TORSDOF 14
ENDMDL
MODEL 9
REMARK VINA RESULT:      -7.2      3.951      5.824
REMARK  Name = 
REMARK  15 active torsions:
REMARK  status: ('A' for Active; 'I' for Inactive)
REMARK    1  A    between atoms: C_1  and  C_2
REMARK    2  A    between atoms: C_2  and  C_14
REMARK    3  A    between atoms: C_3  and  C_4
REMARK    4  A    between atoms: C_4  and  O_5
REMARK    5  A    between atoms: O_5  and  P_6
REMARK    6  A    between atoms: P_6  and  O_8
REMARK    7  A    between atoms: P_6  and  O_9
REMARK    8  A    between atoms: O_9  and  P_10
REMARK    9  A    between atoms: P_10  and  O_12
REMARK   10  A    between atoms: P_10  and  O_13
REMARK   11  A    between atoms: C_14  and  O_15
REMARK   12  A    between atoms: O_15  and  C_16
REMARK   13  A    between atoms: C_16  and  C_17
REMARK   14  A    between atoms: C_20  and  C_21
REMARK   15  A    between atoms: C_21  and  C_23
REMARK                            x       y       z     vdW  Elec       q    Type
REMARK                         _______ _______ _______ _____ _____    ______ ____
ROOT
ATOM      1  C   UNL     1       1.090   9.177  20.070  0.00  0.00    +0.000 C 
ENDROOT
BRANCH   1   3
ATOM      2  C   UNL     1       2.087   8.767  17.768  0.00  0.00    +0.000 C 
ATOM      3  C   UNL     1       1.868   8.243  19.161  0.00  0.00    +0.000 C 
ATOM      4  C   UNL     1       2.374   7.069  19.604  0.00  0.00    +0.000 C 
BRANCH   4   5
ATOM      5  C   UNL     1       3.081   6.007  18.804  0.00  0.00    +0.000 C 
BRANCH   5   6
ATOM      6  O   UNL     1       4.131   5.408  19.545  0.00  0.00    +0.000 OA
BRANCH   6   7
ATOM      7  P   UNL     1       5.295   4.702  18.689  0.00  0.00    +0.000 P 
ATOM      8  O   UNL     1       6.641   4.639  19.330  0.00  0.00    +0.000 OA
BRANCH   7   9
ATOM      9  O   UNL     1       4.675   3.234  18.473  0.00  0.00    +0.000 OA
ATOM     10  H   UNL     1       5.180   2.545  18.938  0.00  0.00    +0.000 HD
ENDBRANCH   7   9
BRANCH   7  11
ATOM     11  O   UNL     1       5.279   5.273  17.206  0.00  0.00    +0.000 OA
BRANCH  11  12
ATOM     12  P   UNL     1       5.904   4.458  15.813  0.00  0.00    +0.000 P 
ATOM     13  O   UNL     1       5.795   5.718  14.957  0.00  0.00    +0.000 OA
BRANCH  12  14
ATOM     14  O   UNL     1       7.415   4.537  16.409  0.00  0.00    +0.000 OA
ATOM     15  H   UNL     1       7.872   5.297  15.998  0.00  0.00    +0.000 HD
ENDBRANCH  12  14
BRANCH  12  16
ATOM     16  O   UNL     1       6.530   3.644  14.421  0.00  0.00    +0.000 OA
ATOM     17  H   UNL     1       7.215   3.042  14.770  0.00  0.00    +0.000 HD
ENDBRANCH  12  16
ENDBRANCH  11  12
ENDBRANCH   7  11
ENDBRANCH   6   7
ENDBRANCH   5   6
ENDBRANCH   4   5
ENDBRANCH   1   3
BRANCH   1  18
ATOM     18  O   UNL     1       0.105   9.894  19.314  0.00  0.00    +0.000 OA
BRANCH  18  19
ATOM     19  C   UNL     1       0.123  11.290  19.641  0.00  0.00    +0.000 C 
BRANCH  19  20
ATOM     20  C   UNL     1      -0.909  11.626  20.695  0.00  0.00    +0.000 A 
ATOM     21  C   UNL     1      -0.720  11.262  22.038  0.00  0.00    +0.000 A 
ATOM     22  C   UNL     1      -1.656  11.623  23.017  0.00  0.00    +0.000 A 
ATOM     23  C   UNL     1      -2.799  12.354  22.671  0.00  0.00    +0.000 A 
ATOM     24  C   UNL     1      -2.972  12.755  21.341  0.00  0.00    +0.000 A 
ATOM     25  C   UNL     1      -2.042  12.381  20.363  0.00  0.00    +0.000 A 
BRANCH  23  26
ATOM     26  C   UNL     1      -3.761  12.728  23.745  0.00  0.00    +0.000 C 
ATOM     27  O   UNL     1      -4.383  11.841  24.331  0.00  0.00    +0.000 OA
BRANCH  26  28
ATOM     28  C   UNL     1      -3.986  14.145  24.141  0.00  0.00    +0.000 A 
ATOM     29  C   UNL     1      -2.998  14.793  24.885  0.00  0.00    +0.000 A 
ATOM     30  C   UNL     1      -3.165  16.130  25.258  0.00  0.00    +0.000 A 
ATOM     31  C   UNL     1      -4.326  16.815  24.896  0.00  0.00    +0.000 A 
ATOM     32  C   UNL     1      -5.327  16.159  24.180  0.00  0.00    +0.000 A 
ATOM     33  C   UNL     1      -5.168  14.824  23.815  0.00  0.00    +0.000 A 
ENDBRANCH  26  28
ENDBRANCH  23  26
ENDBRANCH  19  20
ENDBRANCH  18  19
ENDBRANCH   1  18
TORSDOF 14
ENDMDL
