MODEL 1
REMARK VINA RESULT:      -7.5      0.000      0.000
REMARK  Name = 
REMARK  8 active torsions:
REMARK  status: ('A' for Active; 'I' for Inactive)
REMARK    1  A    between atoms: N_1  and  S_2
REMARK    2  A    between atoms: S_2  and  C_5
REMARK    3  A    between atoms: C_8  and  C_9
REMARK    4  A    between atoms: N_11  and  N_12
REMARK    5  A    between atoms: C_13  and  C_14
REMARK    6  A    between atoms: C_17  and  N_18
REMARK    7  A    between atoms: N_21  and  C_22
REMARK    8  A    between atoms: C_22  and  C_23
REMARK                            x       y       z     vdW  Elec       q    Type
REMARK                         _______ _______ _______ _____ _____    ______ ____
ROOT
ATOM      1  C   UNL     1      -1.541  10.168  17.894  0.00  0.00    +0.000 A 
ATOM      2  C   UNL     1      -1.393  11.177  18.841  0.00  0.00    +0.000 A 
ATOM      3  C   UNL     1      -2.508  11.927  19.248  0.00  0.00    +0.000 A 
ATOM      4  C   UNL     1      -3.791  11.689  18.726  0.00  0.00    +0.000 A 
ATOM      5  C   UNL     1      -3.906  10.674  17.766  0.00  0.00    +0.000 A 
ATOM      6  C   UNL     1      -2.798   9.915  17.351  0.00  0.00    +0.000 A 
ENDROOT
BRANCH   4   7
ATOM      7  N   UNL     1      -4.871  12.447  19.145  0.00  0.00    +0.000 N 
ATOM      8  C   UNL     1      -6.261  11.977  19.011  0.00  0.00    +0.000 C 
ATOM      9  C   UNL     1      -6.969  11.836  20.382  0.00  0.00    +0.000 C 
ATOM     10  N   UNL     1      -6.837  13.004  21.295  0.00  0.00    +0.000 NA
ATOM     11  C   UNL     1      -5.384  13.266  21.437  0.00  0.00    +0.000 C 
ATOM     12  C   UNL     1      -4.645  13.546  20.107  0.00  0.00    +0.000 C 
BRANCH  10  13
ATOM     13  C   UNL     1      -7.586  14.159  20.756  0.00  0.00    +0.000 C 
BRANCH  13  14
ATOM     14  C   UNL     1      -7.338  15.484  21.454  0.00  0.00    +0.000 A 
ATOM     15  C   UNL     1      -7.525  15.598  22.842  0.00  0.00    +0.000 A 
ATOM     16  C   UNL     1      -7.264  16.801  23.504  0.00  0.00    +0.000 A 
ATOM     17  C   UNL     1      -6.792  17.898  22.790  0.00  0.00    +0.000 A 
ATOM     18  C   UNL     1      -6.592  17.798  21.414  0.00  0.00    +0.000 A 
ATOM     19  C   UNL     1      -6.872  16.601  20.747  0.00  0.00    +0.000 A 
ENDBRANCH  13  14
ENDBRANCH  10  13
ENDBRANCH   4   7
BRANCH   1  21
ATOM     20  N   UNL     1       0.744   9.387  18.108  0.00  0.00    +0.000 NA
ATOM     21  C   UNL     1      -0.372   9.358  17.455  0.00  0.00    +0.000 C 
BRANCH  20  24
ATOM     22  C   UNL     1       2.335   7.676  18.487  0.00  0.00    +0.000 C 
ATOM     23  O   UNL     1       1.960   7.447  19.638  0.00  0.00    +0.000 OA
ATOM     24  N   UNL     1       1.781   8.628  17.642  0.00  0.00    +0.000 N 
ATOM     25  H   UNL     1       2.113   8.728  16.689  0.00  0.00    +0.000 HD
BRANCH  22  29
ATOM     26  C   UNL     1       5.525   5.416  16.749  0.00  0.00    +0.000 A 
ATOM     27  C   UNL     1       5.407   6.781  16.485  0.00  0.00    +0.000 A 
ATOM     28  C   UNL     1       4.360   7.503  17.072  0.00  0.00    +0.000 A 
ATOM     29  C   UNL     1       3.447   6.864  17.926  0.00  0.00    +0.000 A 
ATOM     30  C   UNL     1       3.573   5.492  18.185  0.00  0.00    +0.000 A 
ATOM     31  C   UNL     1       4.608   4.763  17.593  0.00  0.00    +0.000 A 
BRANCH  26  32
ATOM     32  S   UNL     1       6.844   4.499  16.007  0.00  0.00    +0.000 S 
ATOM     33  O   UNL     1       6.294   3.364  15.322  0.00  0.00    +0.000 OA
ATOM     34  O   UNL     1       7.925   4.391  16.960  0.00  0.00    +0.000 OA
BRANCH  32  35
ATOM     35  N   UNL     1       7.421   5.558  14.822  0.00  0.00    +0.000 NA
ATOM     36  H   UNL     1       8.272   5.161  14.418  0.00  0.00    +0.000 HD
ATOM     37  H   UNL     1       7.568   6.484  15.214  0.00  0.00    +0.000 HD
ENDBRANCH  32  35
ENDBRANCH  26  32
ENDBRANCH  22  29
ENDBRANCH  20  24
ENDBRANCH   1  21
TORSDOF 8
ENDMDL
MODEL 2
REMARK VINA RESULT:      -7.4      5.166     14.016
REMARK  Name = 
REMARK  8 active torsions:
REMARK  status: ('A' for Active; 'I' for Inactive)
REMARK    1  A    between atoms: N_1  and  S_2
REMARK    2  A    between atoms: S_2  and  C_5
REMARK    3  A    between atoms: C_8  and  C_9
REMARK    4  A    between atoms: N_11  and  N_12
REMARK    5  A    between atoms: C_13  and  C_14
REMARK    6  A    between atoms: C_17  and  N_18
REMARK    7  A    between atoms: N_21  and  C_22
REMARK    8  A    between atoms: C_22  and  C_23
REMARK                            x       y       z     vdW  Elec       q    Type
REMARK                         _______ _______ _______ _____ _____    ______ ____
ROOT
ATOM      1  C   UNL     1       1.291   8.587  19.826  0.00  0.00    +0.000 A 
ATOM      2  C   UNL     1       1.802   8.945  18.582  0.00  0.00    +0.000 A 
ATOM      3  C   UNL     1       2.736   8.116  17.942  0.00  0.00    +0.000 A 
ATOM      4  C   UNL     1       3.180   6.915  18.522  0.00  0.00    +0.000 A 
ATOM      5  C   UNL     1       2.657   6.588  19.781  0.00  0.00    +0.000 A 
ATOM      6  C   UNL     1       1.720   7.409  20.431  0.00  0.00    +0.000 A 
ENDROOT
BRANCH   4   7
ATOM      7  N   UNL     1       4.105   6.119  17.867  0.00  0.00    +0.000 N 
ATOM      8  C   UNL     1       4.480   6.344  16.461  0.00  0.00    +0.000 C 
ATOM      9  C   UNL     1       5.986   6.675  16.300  0.00  0.00    +0.000 C 
ATOM     10  N   UNL     1       6.922   5.762  17.011  0.00  0.00    +0.000 NA
ATOM     11  C   UNL     1       6.498   5.748  18.433  0.00  0.00    +0.000 C 
ATOM     12  C   UNL     1       5.037   5.297  18.667  0.00  0.00    +0.000 C 
BRANCH  10  13
ATOM     13  C   UNL     1       6.903   4.423  16.386  0.00  0.00    +0.000 C 
BRANCH  13  14
ATOM     14  C   UNL     1       6.884   4.408  14.868  0.00  0.00    +0.000 A 
ATOM     15  C   UNL     1       7.836   5.143  14.142  0.00  0.00    +0.000 A 
ATOM     16  C   UNL     1       7.855   5.107  12.745  0.00  0.00    +0.000 A 
ATOM     17  C   UNL     1       6.935   4.321  12.057  0.00  0.00    +0.000 A 
ATOM     18  C   UNL     1       5.990   3.580  12.764  0.00  0.00    +0.000 A 
ATOM     19  C   UNL     1       5.957   3.629  14.162  0.00  0.00    +0.000 A 
ENDBRANCH  13  14
ENDBRANCH  10  13
ENDBRANCH   4   7
BRANCH   1  21
ATOM     20  N   UNL     1      -0.115  10.556  19.985  0.00  0.00    +0.000 NA
ATOM     21  C   UNL     1       0.295   9.452  20.518  0.00  0.00    +0.000 C 
BRANCH  20  24
ATOM     22  C   UNL     1      -1.878  12.134  19.967  0.00  0.00    +0.000 C 
ATOM     23  O   UNL     1      -1.897  12.246  18.740  0.00  0.00    +0.000 OA
ATOM     24  N   UNL     1      -1.021  11.306  20.680  0.00  0.00    +0.000 N 
ATOM     25  H   UNL     1      -1.095  11.233  21.689  0.00  0.00    +0.000 HD
BRANCH  22  29
ATOM     26  C   UNL     1      -4.636  14.329  22.394  0.00  0.00    +0.000 A 
ATOM     27  C   UNL     1      -3.305  14.192  22.791  0.00  0.00    +0.000 A 
ATOM     28  C   UNL     1      -2.418  13.477  21.977  0.00  0.00    +0.000 A 
ATOM     29  C   UNL     1      -2.858  12.915  20.768  0.00  0.00    +0.000 A 
ATOM     30  C   UNL     1      -4.196  13.057  20.377  0.00  0.00    +0.000 A 
ATOM     31  C   UNL     1      -5.090  13.759  21.190  0.00  0.00    +0.000 A 
BRANCH  26  32
ATOM     32  S   UNL     1      -5.761  15.228  23.421  0.00  0.00    +0.000 S 
ATOM     33  O   UNL     1      -6.701  14.309  23.998  0.00  0.00    +0.000 OA
ATOM     34  O   UNL     1      -6.165  16.428  22.724  0.00  0.00    +0.000 OA
BRANCH  32  35
ATOM     35  N   UNL     1      -4.771  15.776  24.678  0.00  0.00    +0.000 NA
ATOM     36  H   UNL     1      -4.103  16.448  24.296  0.00  0.00    +0.000 HD
ATOM     37  H   UNL     1      -4.317  14.993  25.140  0.00  0.00    +0.000 HD
ENDBRANCH  32  35
ENDBRANCH  26  32
ENDBRANCH  22  29
ENDBRANCH  20  24
ENDBRANCH   1  21
TORSDOF 8
ENDMDL
MODEL 3
REMARK VINA RESULT:      -7.4      5.156     13.996
REMARK  Name = 
REMARK  8 active torsions:
REMARK  status: ('A' for Active; 'I' for Inactive)
REMARK    1  A    between atoms: N_1  and  S_2
REMARK    2  A    between atoms: S_2  and  C_5
REMARK    3  A    between atoms: C_8  and  C_9
REMARK    4  A    between atoms: N_11  and  N_12
REMARK    5  A    between atoms: C_13  and  C_14
REMARK    6  A    between atoms: C_17  and  N_18
REMARK    7  A    between atoms: N_21  and  C_22
REMARK    8  A    between atoms: C_22  and  C_23
REMARK                            x       y       z     vdW  Elec       q    Type
REMARK                         _______ _______ _______ _____ _____    ______ ____
ROOT
ATOM      1  C   UNL     1       1.166   8.891  19.821  0.00  0.00    +0.000 A 
ATOM      2  C   UNL     1       1.612   7.725  20.436  0.00  0.00    +0.000 A 
ATOM      3  C   UNL     1       2.498   6.870  19.762  0.00  0.00    +0.000 A 
ATOM      4  C   UNL     1       2.961   7.156  18.466  0.00  0.00    +0.000 A 
ATOM      5  C   UNL     1       2.485   8.331  17.868  0.00  0.00    +0.000 A 
ATOM      6  C   UNL     1       1.599   9.196  18.533  0.00  0.00    +0.000 A 
ENDROOT
BRANCH   4   7
ATOM      7  N   UNL     1       3.833   6.292  17.825  0.00  0.00    +0.000 N 
ATOM      8  C   UNL     1       4.286   6.515  16.441  0.00  0.00    +0.000 C 
ATOM      9  C   UNL     1       5.822   6.706  16.349  0.00  0.00    +0.000 C 
ATOM     10  N   UNL     1       6.638   5.692  17.070  0.00  0.00    +0.000 NA
ATOM     11  C   UNL     1       6.156   5.684  18.474  0.00  0.00    +0.000 C 
ATOM     12  C   UNL     1       4.650   5.366  18.637  0.00  0.00    +0.000 C 
BRANCH  10  13
ATOM     13  C   UNL     1       6.520   4.377  16.407  0.00  0.00    +0.000 C 
BRANCH  13  14
ATOM     14  C   UNL     1       6.725   4.379  14.904  0.00  0.00    +0.000 A 
ATOM     15  C   UNL     1       5.858   3.653  14.071  0.00  0.00    +0.000 A 
ATOM     16  C   UNL     1       6.012   3.677  12.681  0.00  0.00    +0.000 A 
ATOM     17  C   UNL     1       7.021   4.445  12.107  0.00  0.00    +0.000 A 
ATOM     18  C   UNL     1       7.883   5.178  12.920  0.00  0.00    +0.000 A 
ATOM     19  C   UNL     1       7.743   5.140  14.311  0.00  0.00    +0.000 A 
ENDBRANCH  13  14
ENDBRANCH  10  13
ENDBRANCH   4   7
BRANCH   1  21
ATOM     20  N   UNL     1      -0.228  10.871  19.938  0.00  0.00    +0.000 NA
ATOM     21  C   UNL     1       0.231   9.813  20.522  0.00  0.00    +0.000 C 
BRANCH  20  24
ATOM     22  C   UNL     1      -2.219  12.147  20.016  0.00  0.00    +0.000 C 
ATOM     23  O   UNL     1      -2.550  11.884  18.859  0.00  0.00    +0.000 OA
ATOM     24  N   UNL     1      -1.073  11.679  20.645  0.00  0.00    +0.000 N 
ATOM     25  H   UNL     1      -0.890  11.902  21.617  0.00  0.00    +0.000 HD
BRANCH  22  29
ATOM     26  C   UNL     1      -4.729  14.574  22.491  0.00  0.00    +0.000 A 
ATOM     27  C   UNL     1      -3.382  14.402  22.811  0.00  0.00    +0.000 A 
ATOM     28  C   UNL     1      -2.577  13.611  21.982  0.00  0.00    +0.000 A 
ATOM     29  C   UNL     1      -3.116  13.007  20.835  0.00  0.00    +0.000 A 
ATOM     30  C   UNL     1      -4.470  13.184  20.521  0.00  0.00    +0.000 A 
ATOM     31  C   UNL     1      -5.282  13.962  21.350  0.00  0.00    +0.000 A 
BRANCH  26  32
ATOM     32  S   UNL     1      -5.750  15.569  23.537  0.00  0.00    +0.000 S 
ATOM     33  O   UNL     1      -6.648  16.335  22.720  0.00  0.00    +0.000 OA
ATOM     34  O   UNL     1      -4.921  16.166  24.561  0.00  0.00    +0.000 OA
BRANCH  32  35
ATOM     35  N   UNL     1      -6.684  14.422  24.357  0.00  0.00    +0.000 NA
ATOM     36  H   UNL     1      -6.140  13.561  24.443  0.00  0.00    +0.000 HD
ATOM     37  H   UNL     1      -7.571  14.280  23.881  0.00  0.00    +0.000 HD
ENDBRANCH  32  35
ENDBRANCH  26  32
ENDBRANCH  22  29
ENDBRANCH  20  24
ENDBRANCH   1  21
TORSDOF 8
ENDMDL
MODEL 4
REMARK VINA RESULT:      -7.3      5.291     14.048
REMARK  Name = 
REMARK  8 active torsions:
REMARK  status: ('A' for Active; 'I' for Inactive)
REMARK    1  A    between atoms: N_1  and  S_2
REMARK    2  A    between atoms: S_2  and  C_5
REMARK    3  A    between atoms: C_8  and  C_9
REMARK    4  A    between atoms: N_11  and  N_12
REMARK    5  A    between atoms: C_13  and  C_14
REMARK    6  A    between atoms: C_17  and  N_18
REMARK    7  A    between atoms: N_21  and  C_22
REMARK    8  A    between atoms: C_22  and  C_23
REMARK                            x       y       z     vdW  Elec       q    Type
REMARK                         _______ _______ _______ _____ _____    ______ ____
ROOT
ATOM      1  C   UNL     1       1.083   9.032  19.978  0.00  0.00    +0.000 A 
ATOM      2  C   UNL     1       1.477   9.285  18.668  0.00  0.00    +0.000 A 
ATOM      3  C   UNL     1       2.292   8.365  17.990  0.00  0.00    +0.000 A 
ATOM      4  C   UNL     1       2.731   7.176  18.598  0.00  0.00    +0.000 A 
ATOM      5  C   UNL     1       2.328   6.955  19.922  0.00  0.00    +0.000 A 
ATOM      6  C   UNL     1       1.510   7.868  20.611  0.00  0.00    +0.000 A 
ENDROOT
BRANCH   4   7
ATOM      7  N   UNL     1       3.537   6.289  17.904  0.00  0.00    +0.000 N 
ATOM      8  C   UNL     1       4.079   6.597  16.570  0.00  0.00    +0.000 C 
ATOM      9  C   UNL     1       5.629   6.624  16.557  0.00  0.00    +0.000 C 
ATOM     10  N   UNL     1       6.295   5.459  17.199  0.00  0.00    +0.000 NA
ATOM     11  C   UNL     1       5.746   5.363  18.574  0.00  0.00    +0.000 C 
ATOM     12  C   UNL     1       4.209   5.201  18.645  0.00  0.00    +0.000 C 
BRANCH  10  13
ATOM     13  C   UNL     1       6.070   4.237  16.397  0.00  0.00    +0.000 C 
BRANCH  13  14
ATOM     14  C   UNL     1       6.499   4.318  14.944  0.00  0.00    +0.000 A 
ATOM     15  C   UNL     1       5.796   3.605  13.959  0.00  0.00    +0.000 A 
ATOM     16  C   UNL     1       6.155   3.701  12.611  0.00  0.00    +0.000 A 
ATOM     17  C   UNL     1       7.208   4.527  12.230  0.00  0.00    +0.000 A 
ATOM     18  C   UNL     1       7.908   5.249  13.194  0.00  0.00    +0.000 A 
ATOM     19  C   UNL     1       7.563   5.139  14.545  0.00  0.00    +0.000 A 
ENDBRANCH  13  14
ENDBRANCH  10  13
ENDBRANCH   4   7
BRANCH   1  21
ATOM     20  N   UNL     1      -0.568  10.805  20.077  0.00  0.00    +0.000 NA
ATOM     21  C   UNL     1       0.214   9.993  20.711  0.00  0.00    +0.000 C 
BRANCH  20  24
ATOM     22  C   UNL     1      -2.461  12.216  20.222  0.00  0.00    +0.000 C 
ATOM     23  O   UNL     1      -2.849  11.980  19.077  0.00  0.00    +0.000 OA
ATOM     24  N   UNL     1      -1.330  11.669  20.811  0.00  0.00    +0.000 N 
ATOM     25  H   UNL     1      -1.099  11.876  21.777  0.00  0.00    +0.000 HD
BRANCH  22  29
ATOM     26  C   UNL     1      -4.896  14.833  22.576  0.00  0.00    +0.000 A 
ATOM     27  C   UNL     1      -5.433  13.658  22.048  0.00  0.00    +0.000 A 
ATOM     28  C   UNL     1      -4.616  12.812  21.288  0.00  0.00    +0.000 A 
ATOM     29  C   UNL     1      -3.267  13.135  21.070  0.00  0.00    +0.000 A 
ATOM     30  C   UNL     1      -2.736  14.317  21.603  0.00  0.00    +0.000 A 
ATOM     31  C   UNL     1      -3.549  15.172  22.352  0.00  0.00    +0.000 A 
BRANCH  26  32
ATOM     32  S   UNL     1      -5.926  15.906  23.533  0.00  0.00    +0.000 S 
ATOM     33  O   UNL     1      -7.039  15.154  24.039  0.00  0.00    +0.000 OA
ATOM     34  O   UNL     1      -6.083  17.154  22.820  0.00  0.00    +0.000 OA
BRANCH  32  35
ATOM     35  N   UNL     1      -4.946  16.290  24.857  0.00  0.00    +0.000 NA
ATOM     36  H   UNL     1      -5.427  16.001  25.711  0.00  0.00    +0.000 HD
ATOM     37  H   UNL     1      -4.714  17.279  24.853  0.00  0.00    +0.000 HD
ENDBRANCH  32  35
ENDBRANCH  26  32
ENDBRANCH  22  29
ENDBRANCH  20  24
ENDBRANCH   1  21
TORSDOF 8
ENDMDL
MODEL 5
REMARK VINA RESULT:      -7.2      5.590     13.893
REMARK  Name = 
REMARK  8 active torsions:
REMARK  status: ('A' for Active; 'I' for Inactive)
REMARK    1  A    between atoms: N_1  and  S_2
REMARK    2  A    between atoms: S_2  and  C_5
REMARK    3  A    between atoms: C_8  and  C_9
REMARK    4  A    between atoms: N_11  and  N_12
REMARK    5  A    between atoms: C_13  and  C_14
REMARK    6  A    between atoms: C_17  and  N_18
REMARK    7  A    between atoms: N_21  and  C_22
REMARK    8  A    between atoms: C_22  and  C_23
REMARK                            x       y       z     vdW  Elec       q    Type
REMARK                         _______ _______ _______ _____ _____    ______ ____
ROOT
ATOM      1  C   UNL     1       0.919   9.322  19.444  0.00  0.00    +0.000 A 
ATOM      2  C   UNL     1       1.331   8.283  20.274  0.00  0.00    +0.000 A 
ATOM      3  C   UNL     1       2.253   7.334  19.804  0.00  0.00    +0.000 A 
ATOM      4  C   UNL     1       2.784   7.397  18.505  0.00  0.00    +0.000 A 
ATOM      5  C   UNL     1       2.341   8.448  17.689  0.00  0.00    +0.000 A 
ATOM      6  C   UNL     1       1.420   9.406  18.148  0.00  0.00    +0.000 A 
ENDROOT
BRANCH   4   7
ATOM      7  N   UNL     1       3.690   6.445  18.070  0.00  0.00    +0.000 N 
ATOM      8  C   UNL     1       4.447   6.595  16.815  0.00  0.00    +0.000 C 
ATOM      9  C   UNL     1       5.978   6.646  17.054  0.00  0.00    +0.000 C 
ATOM     10  N   UNL     1       6.524   5.580  17.937  0.00  0.00    +0.000 NA
ATOM     11  C   UNL     1       5.754   5.647  19.204  0.00  0.00    +0.000 C 
ATOM     12  C   UNL     1       4.226   5.469  19.041  0.00  0.00    +0.000 C 
BRANCH  10  13
ATOM     13  C   UNL     1       6.430   4.266  17.269  0.00  0.00    +0.000 C 
BRANCH  13  14
ATOM     14  C   UNL     1       6.546   4.290  15.756  0.00  0.00    +0.000 A 
ATOM     15  C   UNL     1       5.586   3.637  14.963  0.00  0.00    +0.000 A 
ATOM     16  C   UNL     1       5.658   3.684  13.568  0.00  0.00    +0.000 A 
ATOM     17  C   UNL     1       6.678   4.401  12.948  0.00  0.00    +0.000 A 
ATOM     18  C   UNL     1       7.631   5.061  13.721  0.00  0.00    +0.000 A 
ATOM     19  C   UNL     1       7.572   5.000  15.117  0.00  0.00    +0.000 A 
ENDBRANCH  13  14
ENDBRANCH  10  13
ENDBRANCH   4   7
BRANCH   1  21
ATOM     20  N   UNL     1       0.346  11.404  20.545  0.00  0.00    +0.000 NA
ATOM     21  C   UNL     1      -0.053  10.342  19.926  0.00  0.00    +0.000 C 
BRANCH  20  24
ATOM     22  C   UNL     1      -1.005  12.243  22.298  0.00  0.00    +0.000 C 
ATOM     23  O   UNL     1      -0.571  11.458  23.141  0.00  0.00    +0.000 OA
ATOM     24  N   UNL     1      -0.601  12.293  20.971  0.00  0.00    +0.000 N 
ATOM     25  H   UNL     1      -0.972  13.000  20.344  0.00  0.00    +0.000 HD
BRANCH  22  29
ATOM     26  C   UNL     1      -4.038  15.036  23.445  0.00  0.00    +0.000 A 
ATOM     27  C   UNL     1      -4.269  13.664  23.552  0.00  0.00    +0.000 A 
ATOM     28  C   UNL     1      -3.260  12.768  23.179  0.00  0.00    +0.000 A 
ATOM     29  C   UNL     1      -2.023  13.244  22.715  0.00  0.00    +0.000 A 
ATOM     30  C   UNL     1      -1.799  14.624  22.610  0.00  0.00    +0.000 A 
ATOM     31  C   UNL     1      -2.806  15.523  22.969  0.00  0.00    +0.000 A 
BRANCH  26  32
ATOM     32  S   UNL     1      -5.312  16.171  23.912  0.00  0.00    +0.000 S 
ATOM     33  O   UNL     1      -6.519  15.437  24.166  0.00  0.00    +0.000 OA
ATOM     34  O   UNL     1      -5.261  17.312  23.027  0.00  0.00    +0.000 OA
BRANCH  32  35
ATOM     35  N   UNL     1      -4.768  16.759  25.401  0.00  0.00    +0.000 NA
ATOM     36  H   UNL     1      -5.552  17.209  25.878  0.00  0.00    +0.000 HD
ATOM     37  H   UNL     1      -3.978  17.384  25.269  0.00  0.00    +0.000 HD
ENDBRANCH  32  35
ENDBRANCH  26  32
ENDBRANCH  22  29
ENDBRANCH  20  24
ENDBRANCH   1  21
TORSDOF 8
ENDMDL
MODEL 6
REMARK VINA RESULT:      -7.2      5.576     13.970
REMARK  Name = 
REMARK  8 active torsions:
REMARK  status: ('A' for Active; 'I' for Inactive)
REMARK    1  A    between atoms: N_1  and  S_2
REMARK    2  A    between atoms: S_2  and  C_5
REMARK    3  A    between atoms: C_8  and  C_9
REMARK    4  A    between atoms: N_11  and  N_12
REMARK    5  A    between atoms: C_13  and  C_14
REMARK    6  A    between atoms: C_17  and  N_18
REMARK    7  A    between atoms: N_21  and  C_22
REMARK    8  A    between atoms: C_22  and  C_23
REMARK                            x       y       z     vdW  Elec       q    Type
REMARK                         _______ _______ _______ _____ _____    ______ ____
ROOT
ATOM      1  C   UNL     1       1.266   8.741  19.658  0.00  0.00    +0.000 A 
ATOM      2  C   UNL     1       1.782   9.042  18.401  0.00  0.00    +0.000 A 
ATOM      3  C   UNL     1       2.719   8.184  17.803  0.00  0.00    +0.000 A 
ATOM      4  C   UNL     1       3.161   7.012  18.439  0.00  0.00    +0.000 A 
ATOM      5  C   UNL     1       2.633   6.742  19.709  0.00  0.00    +0.000 A 
ATOM      6  C   UNL     1       1.693   7.591  20.318  0.00  0.00    +0.000 A 
ENDROOT
BRANCH   4   7
ATOM      7  N   UNL     1       4.089   6.187  17.825  0.00  0.00    +0.000 N 
ATOM      8  C   UNL     1       4.512   6.384  16.428  0.00  0.00    +0.000 C 
ATOM      9  C   UNL     1       6.029   6.682  16.309  0.00  0.00    +0.000 C 
ATOM     10  N   UNL     1       6.923   5.761  17.062  0.00  0.00    +0.000 NA
ATOM     11  C   UNL     1       6.455   5.776  18.470  0.00  0.00    +0.000 C 
ATOM     12  C   UNL     1       4.978   5.358  18.664  0.00  0.00    +0.000 C 
BRANCH  10  13
ATOM     13  C   UNL     1       6.895   4.413  16.456  0.00  0.00    +0.000 C 
BRANCH  13  14
ATOM     14  C   UNL     1       6.934   4.376  14.939  0.00  0.00    +0.000 A 
ATOM     15  C   UNL     1       5.989   3.619  14.226  0.00  0.00    +0.000 A 
ATOM     16  C   UNL     1       5.988   3.607  12.829  0.00  0.00    +0.000 A 
ATOM     17  C   UNL     1       6.919   4.366  12.126  0.00  0.00    +0.000 A 
ATOM     18  C   UNL     1       7.857   5.129  12.820  0.00  0.00    +0.000 A 
ATOM     19  C   UNL     1       7.872   5.128  14.218  0.00  0.00    +0.000 A 
ENDBRANCH  13  14
ENDBRANCH  10  13
ENDBRANCH   4   7
BRANCH   1  21
ATOM     20  N   UNL     1       0.049  10.828  19.858  0.00  0.00    +0.000 NA
ATOM     21  C   UNL     1       0.267   9.635  20.306  0.00  0.00    +0.000 C 
BRANCH  20  24
ATOM     22  C   UNL     1      -0.420  12.584  21.373  0.00  0.00    +0.000 C 
ATOM     23  O   UNL     1       0.764  12.832  21.605  0.00  0.00    +0.000 OA
ATOM     24  N   UNL     1      -0.874  11.599  20.507  0.00  0.00    +0.000 N 
ATOM     25  H   UNL     1      -1.866  11.483  20.332  0.00  0.00    +0.000 HD
BRANCH  22  29
ATOM     26  C   UNL     1      -3.336  15.074  23.272  0.00  0.00    +0.000 A 
ATOM     27  C   UNL     1      -2.599  15.556  22.191  0.00  0.00    +0.000 A 
ATOM     28  C   UNL     1      -1.655  14.721  21.578  0.00  0.00    +0.000 A 
ATOM     29  C   UNL     1      -1.463  13.408  22.040  0.00  0.00    +0.000 A 
ATOM     30  C   UNL     1      -2.208  12.933  23.127  0.00  0.00    +0.000 A 
ATOM     31  C   UNL     1      -3.142  13.765  23.750  0.00  0.00    +0.000 A 
BRANCH  26  32
ATOM     32  S   UNL     1      -4.525  16.127  24.050  0.00  0.00    +0.000 S 
ATOM     33  O   UNL     1      -5.005  17.078  23.089  0.00  0.00    +0.000 OA
ATOM     34  O   UNL     1      -4.022  16.512  25.350  0.00  0.00    +0.000 OA
BRANCH  32  35
ATOM     35  N   UNL     1      -5.805  15.072  24.382  0.00  0.00    +0.000 NA
ATOM     36  H   UNL     1      -6.597  15.326  23.789  0.00  0.00    +0.000 HD
ATOM     37  H   UNL     1      -6.035  15.093  25.372  0.00  0.00    +0.000 HD
ENDBRANCH  32  35
ENDBRANCH  26  32
ENDBRANCH  22  29
ENDBRANCH  20  24
ENDBRANCH   1  21
TORSDOF 8
ENDMDL
MODEL 7
REMARK VINA RESULT:      -7.1      5.119     14.029
REMARK  Name = 
REMARK  8 active torsions:
REMARK  status: ('A' for Active; 'I' for Inactive)
REMARK    1  A    between atoms: N_1  and  S_2
REMARK    2  A    between atoms: S_2  and  C_5
REMARK    3  A    between atoms: C_8  and  C_9
REMARK    4  A    between atoms: N_11  and  N_12
REMARK    5  A    between atoms: C_13  and  C_14
REMARK    6  A    between atoms: C_17  and  N_18
REMARK    7  A    between atoms: N_21  and  C_22
REMARK    8  A    between atoms: C_22  and  C_23
REMARK                            x       y       z     vdW  Elec       q    Type
REMARK                         _______ _______ _______ _____ _____    ______ ____
ROOT
ATOM      1  C   UNL     1       1.229   8.966  19.693  0.00  0.00    +0.000 A 
ATOM      2  C   UNL     1       1.660   7.807  20.331  0.00  0.00    +0.000 A 
ATOM      3  C   UNL     1       2.555   6.941  19.683  0.00  0.00    +0.000 A 
ATOM      4  C   UNL     1       3.040   7.209  18.391  0.00  0.00    +0.000 A 
ATOM      5  C   UNL     1       2.579   8.378  17.771  0.00  0.00    +0.000 A 
ATOM      6  C   UNL     1       1.684   9.254  18.409  0.00  0.00    +0.000 A 
ENDROOT
BRANCH   4   7
ATOM      7  N   UNL     1       3.921   6.334  17.777  0.00  0.00    +0.000 N 
ATOM      8  C   UNL     1       4.355   6.508  16.380  0.00  0.00    +0.000 C 
ATOM      9  C   UNL     1       5.886   6.721  16.262  0.00  0.00    +0.000 C 
ATOM     10  N   UNL     1       6.728   5.752  17.015  0.00  0.00    +0.000 NA
ATOM     11  C   UNL     1       6.261   5.793  18.423  0.00  0.00    +0.000 C 
ATOM     12  C   UNL     1       4.763   5.457  18.617  0.00  0.00    +0.000 C 
BRANCH  10  13
ATOM     13  C   UNL     1       6.626   4.409  16.409  0.00  0.00    +0.000 C 
BRANCH  13  14
ATOM     14  C   UNL     1       6.777   4.357  14.899  0.00  0.00    +0.000 A 
ATOM     15  C   UNL     1       5.889   3.591  14.125  0.00  0.00    +0.000 A 
ATOM     16  C   UNL     1       5.993   3.566  12.732  0.00  0.00    +0.000 A 
ATOM     17  C   UNL     1       6.972   4.322  12.094  0.00  0.00    +0.000 A 
ATOM     18  C   UNL     1       7.854   5.093  12.847  0.00  0.00    +0.000 A 
ATOM     19  C   UNL     1       7.765   5.105  14.243  0.00  0.00    +0.000 A 
ENDBRANCH  13  14
ENDBRANCH  10  13
ENDBRANCH   4   7
BRANCH   1  21
ATOM     20  N   UNL     1      -0.488  10.679  19.682  0.00  0.00    +0.000 NA
ATOM     21  C   UNL     1       0.284   9.900  20.367  0.00  0.00    +0.000 C 
BRANCH  20  24
ATOM     22  C   UNL     1      -2.492  11.935  19.745  0.00  0.00    +0.000 C 
ATOM     23  O   UNL     1      -2.854  11.599  18.617  0.00  0.00    +0.000 OA
ATOM     24  N   UNL     1      -1.322  11.519  20.365  0.00  0.00    +0.000 N 
ATOM     25  H   UNL     1      -1.112  11.802  21.316  0.00  0.00    +0.000 HD
BRANCH  22  29
ATOM     26  C   UNL     1      -5.090  14.566  21.900  0.00  0.00    +0.000 A 
ATOM     27  C   UNL     1      -5.546  13.910  20.756  0.00  0.00    +0.000 A 
ATOM     28  C   UNL     1      -4.681  13.047  20.071  0.00  0.00    +0.000 A 
ATOM     29  C   UNL     1      -3.374  12.833  20.538  0.00  0.00    +0.000 A 
ATOM     30  C   UNL     1      -2.924  13.496  21.687  0.00  0.00    +0.000 A 
ATOM     31  C   UNL     1      -3.777  14.368  22.368  0.00  0.00    +0.000 A 
BRANCH  26  32
ATOM     32  S   UNL     1      -6.177  15.660  22.765  0.00  0.00    +0.000 S 
ATOM     33  O   UNL     1      -7.519  15.160  22.665  0.00  0.00    +0.000 OA
ATOM     34  O   UNL     1      -5.823  17.022  22.434  0.00  0.00    +0.000 OA
BRANCH  32  35
ATOM     35  N   UNL     1      -5.699  15.473  24.377  0.00  0.00    +0.000 NA
ATOM     36  H   UNL     1      -6.422  15.872  24.979  0.00  0.00    +0.000 HD
ATOM     37  H   UNL     1      -4.787  15.894  24.528  0.00  0.00    +0.000 HD
ENDBRANCH  32  35
ENDBRANCH  26  32
ENDBRANCH  22  29
ENDBRANCH  20  24
ENDBRANCH   1  21
TORSDOF 8
ENDMDL
MODEL 8
REMARK VINA RESULT:      -7.1      5.174     14.040
REMARK  Name = 
REMARK  8 active torsions:
REMARK  status: ('A' for Active; 'I' for Inactive)
REMARK    1  A    between atoms: N_1  and  S_2
REMARK    2  A    between atoms: S_2  and  C_5
REMARK    3  A    between atoms: C_8  and  C_9
REMARK    4  A    between atoms: N_11  and  N_12
REMARK    5  A    between atoms: C_13  and  C_14
REMARK    6  A    between atoms: C_17  and  N_18
REMARK    7  A    between atoms: N_21  and  C_22
REMARK    8  A    between atoms: C_22  and  C_23
REMARK                            x       y       z     vdW  Elec       q    Type
REMARK                         _______ _______ _______ _____ _____    ______ ____
ROOT
ATOM      1  C   UNL     1       1.253   8.581  19.925  0.00  0.00    +0.000 A 
ATOM      2  C   UNL     1       1.723   7.401  20.495  0.00  0.00    +0.000 A 
ATOM      3  C   UNL     1       2.656   6.612  19.804  0.00  0.00    +0.000 A 
ATOM      4  C   UNL     1       3.142   6.977  18.537  0.00  0.00    +0.000 A 
ATOM      5  C   UNL     1       2.642   8.165  17.985  0.00  0.00    +0.000 A 
ATOM      6  C   UNL     1       1.709   8.965  18.667  0.00  0.00    +0.000 A 
ENDROOT
BRANCH   4   7
ATOM      7  N   UNL     1       4.060   6.176  17.880  0.00  0.00    +0.000 N 
ATOM      8  C   UNL     1       4.424   6.393  16.469  0.00  0.00    +0.000 C 
ATOM      9  C   UNL     1       5.929   6.722  16.293  0.00  0.00    +0.000 C 
ATOM     10  N   UNL     1       6.870   5.813  17.002  0.00  0.00    +0.000 NA
ATOM     11  C   UNL     1       6.458   5.808  18.428  0.00  0.00    +0.000 C 
ATOM     12  C   UNL     1       4.999   5.359  18.676  0.00  0.00    +0.000 C 
BRANCH  10  13
ATOM     13  C   UNL     1       6.845   4.470  16.386  0.00  0.00    +0.000 C 
BRANCH  13  14
ATOM     14  C   UNL     1       6.853   4.445  14.868  0.00  0.00    +0.000 A 
ATOM     15  C   UNL     1       7.817   5.177  14.154  0.00  0.00    +0.000 A 
ATOM     16  C   UNL     1       7.860   5.132  12.758  0.00  0.00    +0.000 A 
ATOM     17  C   UNL     1       6.954   4.339  12.059  0.00  0.00    +0.000 A 
ATOM     18  C   UNL     1       5.998   3.601  12.754  0.00  0.00    +0.000 A 
ATOM     19  C   UNL     1       5.941   3.659  14.150  0.00  0.00    +0.000 A 
ENDBRANCH  13  14
ENDBRANCH  10  13
ENDBRANCH   4   7
BRANCH   1  21
ATOM     20  N   UNL     1      -0.372  10.377  20.034  0.00  0.00    +0.000 NA
ATOM     21  C   UNL     1       0.269   9.435  20.646  0.00  0.00    +0.000 C 
BRANCH  20  24
ATOM     22  C   UNL     1      -1.965  12.125  20.103  0.00  0.00    +0.000 C 
ATOM     23  O   UNL     1      -1.877  12.386  18.903  0.00  0.00    +0.000 OA
ATOM     24  N   UNL     1      -1.252  11.130  20.758  0.00  0.00    +0.000 N 
ATOM     25  H   UNL     1      -1.412  10.943  21.743  0.00  0.00    +0.000 HD
BRANCH  22  29
ATOM     26  C   UNL     1      -4.737  14.248  22.578  0.00  0.00    +0.000 A 
ATOM     27  C   UNL     1      -3.788  13.401  23.152  0.00  0.00    +0.000 A 
ATOM     28  C   UNL     1      -2.885  12.723  22.324  0.00  0.00    +0.000 A 
ATOM     29  C   UNL     1      -2.925  12.903  20.932  0.00  0.00    +0.000 A 
ATOM     30  C   UNL     1      -3.881  13.755  20.364  0.00  0.00    +0.000 A 
ATOM     31  C   UNL     1      -4.793  14.425  21.183  0.00  0.00    +0.000 A 
BRANCH  26  32
ATOM     32  S   UNL     1      -5.882  15.103  23.621  0.00  0.00    +0.000 S 
ATOM     33  O   UNL     1      -5.166  16.069  24.405  0.00  0.00    +0.000 OA
ATOM     34  O   UNL     1      -6.787  14.138  24.203  0.00  0.00    +0.000 OA
BRANCH  32  35
ATOM     35  N   UNL     1      -6.827  15.967  22.516  0.00  0.00    +0.000 NA
ATOM     36  H   UNL     1      -7.225  16.778  22.993  0.00  0.00    +0.000 HD
ATOM     37  H   UNL     1      -7.537  15.364  22.109  0.00  0.00    +0.000 HD
ENDBRANCH  32  35
ENDBRANCH  26  32
ENDBRANCH  22  29
ENDBRANCH  20  24
ENDBRANCH   1  21
TORSDOF 8
ENDMDL
MODEL 9
REMARK VINA RESULT:      -7.1      5.354     13.991
REMARK  Name = 
REMARK  8 active torsions:
REMARK  status: ('A' for Active; 'I' for Inactive)
REMARK    1  A    between atoms: N_1  and  S_2
REMARK    2  A    between atoms: S_2  and  C_5
REMARK    3  A    between atoms: C_8  and  C_9
REMARK    4  A    between atoms: N_11  and  N_12
REMARK    5  A    between atoms: C_13  and  C_14
REMARK    6  A    between atoms: C_17  and  N_18
REMARK    7  A    between atoms: N_21  and  C_22
REMARK    8  A    between atoms: C_22  and  C_23
REMARK                            x       y       z     vdW  Elec       q    Type
REMARK                         _______ _______ _______ _____ _____    ______ ____
ROOT
ATOM      1  C   UNL     1       1.063   9.125  19.955  0.00  0.00    +0.000 A 
ATOM      2  C   UNL     1       1.439   9.347  18.634  0.00  0.00    +0.000 A 
ATOM      3  C   UNL     1       2.248   8.412  17.969  0.00  0.00    +0.000 A 
ATOM      4  C   UNL     1       2.699   7.240  18.600  0.00  0.00    +0.000 A 
ATOM      5  C   UNL     1       2.313   7.051  19.935  0.00  0.00    +0.000 A 
ATOM      6  C   UNL     1       1.501   7.978  20.612  0.00  0.00    +0.000 A 
ENDROOT
BRANCH   4   7
ATOM      7  N   UNL     1       3.499   6.338  17.919  0.00  0.00    +0.000 N 
ATOM      8  C   UNL     1       4.044   6.626  16.581  0.00  0.00    +0.000 C 
ATOM      9  C   UNL     1       5.594   6.642  16.568  0.00  0.00    +0.000 C 
ATOM     10  N   UNL     1       6.252   5.480  17.226  0.00  0.00    +0.000 NA
ATOM     11  C   UNL     1       5.700   5.406  18.601  0.00  0.00    +0.000 C 
ATOM     12  C   UNL     1       4.162   5.256  18.674  0.00  0.00    +0.000 C 
BRANCH  10  13
ATOM     13  C   UNL     1       6.018   4.250  16.440  0.00  0.00    +0.000 C 
BRANCH  13  14
ATOM     14  C   UNL     1       6.448   4.310  14.985  0.00  0.00    +0.000 A 
ATOM     15  C   UNL     1       5.734   3.596  14.008  0.00  0.00    +0.000 A 
ATOM     16  C   UNL     1       6.095   3.673  12.659  0.00  0.00    +0.000 A 
ATOM     17  C   UNL     1       7.159   4.481  12.269  0.00  0.00    +0.000 A 
ATOM     18  C   UNL     1       7.870   5.202  13.226  0.00  0.00    +0.000 A 
ATOM     19  C   UNL     1       7.524   5.111  14.578  0.00  0.00    +0.000 A 
ENDBRANCH  13  14
ENDBRANCH  10  13
ENDBRANCH   4   7
BRANCH   1  21
ATOM     20  N   UNL     1      -0.218  11.179  20.095  0.00  0.00    +0.000 NA
ATOM     21  C   UNL     1       0.199  10.101  20.675  0.00  0.00    +0.000 C 
BRANCH  20  24
ATOM     22  C   UNL     1      -2.259  12.353  20.332  0.00  0.00    +0.000 C 
ATOM     23  O   UNL     1      -2.748  11.911  19.291  0.00  0.00    +0.000 OA
ATOM     24  N   UNL     1      -0.998  12.037  20.818  0.00  0.00    +0.000 N 
ATOM     25  H   UNL     1      -0.680  12.405  21.708  0.00  0.00    +0.000 HD
BRANCH  22  29
ATOM     26  C   UNL     1      -4.483  15.080  22.767  0.00  0.00    +0.000 A 
ATOM     27  C   UNL     1      -3.396  15.532  22.019  0.00  0.00    +0.000 A 
ATOM     28  C   UNL     1      -2.687  14.624  21.223  0.00  0.00    +0.000 A 
ATOM     29  C   UNL     1      -3.075  13.276  21.166  0.00  0.00    +0.000 A 
ATOM     30  C   UNL     1      -4.169  12.830  21.920  0.00  0.00    +0.000 A 
ATOM     31  C   UNL     1      -4.872  13.728  22.726  0.00  0.00    +0.000 A 
BRANCH  26  32
ATOM     32  S   UNL     1      -5.378  16.223  23.777  0.00  0.00    +0.000 S 
ATOM     33  O   UNL     1      -4.610  16.503  24.956  0.00  0.00    +0.000 OA
ATOM     34  O   UNL     1      -6.764  15.812  23.824  0.00  0.00    +0.000 OA
BRANCH  32  35
ATOM     35  N   UNL     1      -5.381  17.633  22.843  0.00  0.00    +0.000 NA
ATOM     36  H   UNL     1      -5.588  18.426  23.453  0.00  0.00    +0.000 HD
ATOM     37  H   UNL     1      -6.040  17.548  22.074  0.00  0.00    +0.000 HD
ENDBRANCH  32  35
ENDBRANCH  26  32
ENDBRANCH  22  29
ENDBRANCH  20  24
ENDBRANCH   1  21
TORSDOF 8
ENDMDL
