MODEL 1
REMARK VINA RESULT:      -6.9      0.000      0.000
REMARK  Name = 
REMARK  10 active torsions:
REMARK  status: ('A' for Active; 'I' for Inactive)
REMARK    1  A    between atoms: C_2  and  C_3
REMARK    2  A    between atoms: C_3  and  N_4
REMARK    3  A    between atoms: N_4  and  C_5
REMARK    4  A    between atoms: C_5  and  C_6
REMARK    5  A    between atoms: C_10  and  O_11
REMARK    6  A    between atoms: O_11  and  C_12
REMARK    7  A    between atoms: C_12  and  C_13
REMARK    8  A    between atoms: C_20  and  O_21
REMARK    9  A    between atoms: O_21  and  C_22
REMARK   10  A    between atoms: C_22  and  C_23
REMARK                            x       y       z     vdW  Elec       q    Type
REMARK                         _______ _______ _______ _____ _____    ______ ____
ROOT
ATOM      1  C   UNL     1       5.663   4.643  14.798  0.00  0.00    +0.000 A 
ATOM      2  C   UNL     1       4.936   3.714  15.544  0.00  0.00    +0.000 A 
ATOM      3  C   UNL     1       4.496   4.012  16.843  0.00  0.00    +0.000 A 
ATOM      4 CL   UNL     1       3.486   2.796  17.553  0.00  0.00    +0.000 Cl
ATOM      5  C   UNL     1       4.821   5.244  17.444  0.00  0.00    +0.000 A 
ATOM      6  C   UNL     1       5.536   6.198  16.680  0.00  0.00    +0.000 A 
ATOM      7  C   UNL     1       5.936   5.891  15.371  0.00  0.00    +0.000 A 
ENDROOT
BRANCH   1   8
ATOM      8  C   UNL     1       6.116   4.321  13.393  0.00  0.00    +0.000 C 
BRANCH   8   9
ATOM      9  N   UNL     1       6.010   2.889  13.120  0.00  0.00    +0.000 NA
ATOM     10  H   UNL     1       6.934   2.466  13.176  0.00  0.00    +0.000 HD
BRANCH   9  11
ATOM     11  C   UNL     1       5.481   2.653  11.782  0.00  0.00    +0.000 C 
BRANCH  11  13
ATOM     12  C   UNL     1       3.475   3.460  10.503  0.00  0.00    +0.000 C 
ATOM     13  C   UNL     1       4.246   3.477  11.599  0.00  0.00    +0.000 C 
ENDBRANCH  11  13
ENDBRANCH   9  11
ENDBRANCH   8   9
ENDBRANCH   1   8
BRANCH   5  14
ATOM     14  O   UNL     1       4.468   5.665  18.706  0.00  0.00    +0.000 OA
BRANCH  14  15
ATOM     15  C   UNL     1       3.087   5.604  19.062  0.00  0.00    +0.000 C 
BRANCH  15  16
ATOM     16  C   UNL     1       2.462   6.982  19.143  0.00  0.00    +0.000 A 
ATOM     17  C   UNL     1       2.340   7.752  17.971  0.00  0.00    +0.000 A 
ATOM     18  C   UNL     1       1.707   8.996  18.000  0.00  0.00    +0.000 A 
ATOM     19  C   UNL     1       1.185   9.474  19.196  0.00  0.00    +0.000 A 
ATOM     20 CL   UNL     1       0.393  11.003  19.231  0.00  0.00    +0.000 Cl
ATOM     21  C   UNL     1       1.287   8.720  20.365  0.00  0.00    +0.000 A 
ATOM     22  C   UNL     1       1.919   7.474  20.336  0.00  0.00    +0.000 A 
ENDBRANCH  15  16
ENDBRANCH  14  15
ENDBRANCH   5  14
BRANCH   6  23
ATOM     23  O   UNL     1       5.808   7.407  17.286  0.00  0.00    +0.000 OA
BRANCH  23  24
ATOM     24  C   UNL     1       7.184   7.770  17.423  0.00  0.00    +0.000 C 
ATOM     25  C   UNL     1       7.877   6.781  18.340  0.00  0.00    +0.000 C 
ENDBRANCH  23  24
ENDBRANCH   6  23
TORSDOF 9
ENDMDL
MODEL 2
REMARK VINA RESULT:      -6.9      3.342      5.409
REMARK  Name = 
REMARK  10 active torsions:
REMARK  status: ('A' for Active; 'I' for Inactive)
REMARK    1  A    between atoms: C_2  and  C_3
REMARK    2  A    between atoms: C_3  and  N_4
REMARK    3  A    between atoms: N_4  and  C_5
REMARK    4  A    between atoms: C_5  and  C_6
REMARK    5  A    between atoms: C_10  and  O_11
REMARK    6  A    between atoms: O_11  and  C_12
REMARK    7  A    between atoms: C_12  and  C_13
REMARK    8  A    between atoms: C_20  and  O_21
REMARK    9  A    between atoms: O_21  and  C_22
REMARK   10  A    between atoms: C_22  and  C_23
REMARK                            x       y       z     vdW  Elec       q    Type
REMARK                         _______ _______ _______ _____ _____    ______ ____
ROOT
ATOM      1  C   UNL     1       4.204   5.369  17.956  0.00  0.00    +0.000 A 
ATOM      2  C   UNL     1       3.682   6.610  17.591  0.00  0.00    +0.000 A 
ATOM      3  C   UNL     1       2.750   7.274  18.404  0.00  0.00    +0.000 A 
ATOM      4 CL   UNL     1       2.330   8.865  17.861  0.00  0.00    +0.000 Cl
ATOM      5  C   UNL     1       2.282   6.676  19.591  0.00  0.00    +0.000 A 
ATOM      6  C   UNL     1       2.829   5.428  19.977  0.00  0.00    +0.000 A 
ATOM      7  C   UNL     1       3.785   4.800  19.165  0.00  0.00    +0.000 A 
ENDROOT
BRANCH   1   8
ATOM      8  C   UNL     1       5.221   4.671  17.084  0.00  0.00    +0.000 C 
BRANCH   8   9
ATOM      9  N   UNL     1       6.410   5.500  16.894  0.00  0.00    +0.000 NA
ATOM     10  H   UNL     1       6.896   5.203  16.051  0.00  0.00    +0.000 HD
BRANCH   9  11
ATOM     11  C   UNL     1       7.325   5.362  18.021  0.00  0.00    +0.000 C 
BRANCH  11  13
ATOM     12  C   UNL     1       7.693   7.823  17.677  0.00  0.00    +0.000 C 
ATOM     13  C   UNL     1       7.788   6.723  18.436  0.00  0.00    +0.000 C 
ENDBRANCH  11  13
ENDBRANCH   9  11
ENDBRANCH   8   9
ENDBRANCH   1   8
BRANCH   5  14
ATOM     14  O   UNL     1       1.367   7.202  20.475  0.00  0.00    +0.000 OA
BRANCH  14  15
ATOM     15  C   UNL     1       1.804   8.260  21.328  0.00  0.00    +0.000 C 
BRANCH  15  16
ATOM     16  C   UNL     1       0.704   9.269  21.587  0.00  0.00    +0.000 A 
ATOM     17  C   UNL     1       0.134   9.349  22.871  0.00  0.00    +0.000 A 
ATOM     18  C   UNL     1      -0.833  10.313  23.161  0.00  0.00    +0.000 A 
ATOM     19  C   UNL     1      -1.228  11.210  22.175  0.00  0.00    +0.000 A 
ATOM     20 CL   UNL     1      -2.411  12.408  22.535  0.00  0.00    +0.000 Cl
ATOM     21  C   UNL     1      -0.664  11.153  20.901  0.00  0.00    +0.000 A 
ATOM     22  C   UNL     1       0.304  10.188  20.610  0.00  0.00    +0.000 A 
ENDBRANCH  15  16
ENDBRANCH  14  15
ENDBRANCH   5  14
BRANCH   6  23
ATOM     23  O   UNL     1       2.374   4.886  21.162  0.00  0.00    +0.000 OA
BRANCH  23  24
ATOM     24  C   UNL     1       1.451   3.799  21.066  0.00  0.00    +0.000 C 
ATOM     25  C   UNL     1       2.092   2.543  21.622  0.00  0.00    +0.000 C 
ENDBRANCH  23  24
ENDBRANCH   6  23
TORSDOF 9
ENDMDL
MODEL 3
REMARK VINA RESULT:      -6.9      3.439      5.338
REMARK  Name = 
REMARK  10 active torsions:
REMARK  status: ('A' for Active; 'I' for Inactive)
REMARK    1  A    between atoms: C_2  and  C_3
REMARK    2  A    between atoms: C_3  and  N_4
REMARK    3  A    between atoms: N_4  and  C_5
REMARK    4  A    between atoms: C_5  and  C_6
REMARK    5  A    between atoms: C_10  and  O_11
REMARK    6  A    between atoms: O_11  and  C_12
REMARK    7  A    between atoms: C_12  and  C_13
REMARK    8  A    between atoms: C_20  and  O_21
REMARK    9  A    between atoms: O_21  and  C_22
REMARK   10  A    between atoms: C_22  and  C_23
REMARK                            x       y       z     vdW  Elec       q    Type
REMARK                         _______ _______ _______ _____ _____    ______ ____
ROOT
ATOM      1  C   UNL     1       3.927   5.258  18.039  0.00  0.00    +0.000 A 
ATOM      2  C   UNL     1       3.636   6.590  17.746  0.00  0.00    +0.000 A 
ATOM      3  C   UNL     1       2.740   7.328  18.534  0.00  0.00    +0.000 A 
ATOM      4 CL   UNL     1       2.620   9.003  18.105  0.00  0.00    +0.000 Cl
ATOM      5  C   UNL     1       2.073   6.722  19.617  0.00  0.00    +0.000 A 
ATOM      6  C   UNL     1       2.385   5.378  19.933  0.00  0.00    +0.000 A 
ATOM      7  C   UNL     1       3.311   4.671  19.152  0.00  0.00    +0.000 A 
ENDROOT
BRANCH   1   8
ATOM      8  C   UNL     1       4.908   4.477  17.197  0.00  0.00    +0.000 C 
BRANCH   8   9
ATOM      9  N   UNL     1       6.109   4.142  17.960  0.00  0.00    +0.000 NA
ATOM     10  H   UNL     1       5.997   4.460  18.921  0.00  0.00    +0.000 HD
BRANCH   9  11
ATOM     11  C   UNL     1       7.283   4.798  17.397  0.00  0.00    +0.000 C 
BRANCH  11  13
ATOM     12  C   UNL     1       7.509   7.269  17.791  0.00  0.00    +0.000 C 
ATOM     13  C   UNL     1       7.604   6.004  18.222  0.00  0.00    +0.000 C 
ENDBRANCH  11  13
ENDBRANCH   9  11
ENDBRANCH   8   9
ENDBRANCH   1   8
BRANCH   5  14
ATOM     14  O   UNL     1       1.166   7.317  20.465  0.00  0.00    +0.000 OA
BRANCH  14  15
ATOM     15  C   UNL     1       1.670   8.235  21.435  0.00  0.00    +0.000 C 
BRANCH  15  16
ATOM     16  C   UNL     1       0.693   9.360  21.711  0.00  0.00    +0.000 A 
ATOM     17  C   UNL     1       0.377  10.265  20.681  0.00  0.00    +0.000 A 
ATOM     18  C   UNL     1      -0.570  11.270  20.883  0.00  0.00    +0.000 A 
ATOM     19  C   UNL     1      -1.214  11.371  22.111  0.00  0.00    +0.000 A 
ATOM     20 CL   UNL     1      -2.392  12.603  22.358  0.00  0.00    +0.000 Cl
ATOM     21  C   UNL     1      -0.922  10.476  23.140  0.00  0.00    +0.000 A 
ATOM     22  C   UNL     1       0.026   9.468  22.937  0.00  0.00    +0.000 A 
ENDBRANCH  15  16
ENDBRANCH  14  15
ENDBRANCH   5  14
BRANCH   6  23
ATOM     23  O   UNL     1       1.740   4.825  21.020  0.00  0.00    +0.000 OA
BRANCH  23  24
ATOM     24  C   UNL     1       2.405   3.753  21.693  0.00  0.00    +0.000 C 
ATOM     25  C   UNL     1       1.532   2.514  21.652  0.00  0.00    +0.000 C 
ENDBRANCH  23  24
ENDBRANCH   6  23
TORSDOF 9
ENDMDL
MODEL 4
REMARK VINA RESULT:      -6.8      0.982      1.229
REMARK  Name = 
REMARK  10 active torsions:
REMARK  status: ('A' for Active; 'I' for Inactive)
REMARK    1  A    between atoms: C_2  and  C_3
REMARK    2  A    between atoms: C_3  and  N_4
REMARK    3  A    between atoms: N_4  and  C_5
REMARK    4  A    between atoms: C_5  and  C_6
REMARK    5  A    between atoms: C_10  and  O_11
REMARK    6  A    between atoms: O_11  and  C_12
REMARK    7  A    between atoms: C_12  and  C_13
REMARK    8  A    between atoms: C_20  and  O_21
REMARK    9  A    between atoms: O_21  and  C_22
REMARK   10  A    between atoms: C_22  and  C_23
REMARK                            x       y       z     vdW  Elec       q    Type
REMARK                         _______ _______ _______ _____ _____    ______ ____
ROOT
ATOM      1  C   UNL     1       5.982   4.831  15.368  0.00  0.00    +0.000 A 
ATOM      2  C   UNL     1       4.839   4.143  15.777  0.00  0.00    +0.000 A 
ATOM      3  C   UNL     1       4.275   4.361  17.043  0.00  0.00    +0.000 A 
ATOM      4 CL   UNL     1       2.780   3.529  17.314  0.00  0.00    +0.000 Cl
ATOM      5  C   UNL     1       4.881   5.250  17.953  0.00  0.00    +0.000 A 
ATOM      6  C   UNL     1       6.026   5.968  17.531  0.00  0.00    +0.000 A 
ATOM      7  C   UNL     1       6.552   5.759  16.248  0.00  0.00    +0.000 A 
ENDROOT
BRANCH   1   8
ATOM      8  C   UNL     1       6.572   4.603  13.996  0.00  0.00    +0.000 C 
BRANCH   8   9
ATOM      9  N   UNL     1       6.360   3.226  13.552  0.00  0.00    +0.000 NA
ATOM     10  H   UNL     1       7.234   2.711  13.626  0.00  0.00    +0.000 HD
BRANCH   9  11
ATOM     11  C   UNL     1       5.925   3.189  12.161  0.00  0.00    +0.000 C 
BRANCH  11  13
ATOM     12  C   UNL     1       6.155   0.953  11.039  0.00  0.00    +0.000 C 
ATOM     13  C   UNL     1       6.684   2.115  11.447  0.00  0.00    +0.000 C 
ENDBRANCH  11  13
ENDBRANCH   9  11
ENDBRANCH   8   9
ENDBRANCH   1   8
BRANCH   5  14
ATOM     14  O   UNL     1       4.447   5.553  19.224  0.00  0.00    +0.000 OA
BRANCH  14  15
ATOM     15  C   UNL     1       3.039   5.563  19.457  0.00  0.00    +0.000 C 
BRANCH  15  16
ATOM     16  C   UNL     1       2.453   6.954  19.323  0.00  0.00    +0.000 A 
ATOM     17  C   UNL     1       2.432   7.572  18.059  0.00  0.00    +0.000 A 
ATOM     18  C   UNL     1       1.838   8.824  17.889  0.00  0.00    +0.000 A 
ATOM     19  C   UNL     1       1.253   9.461  18.978  0.00  0.00    +0.000 A 
ATOM     20 CL   UNL     1       0.509  11.000  18.767  0.00  0.00    +0.000 Cl
ATOM     21  C   UNL     1       1.254   8.858  20.235  0.00  0.00    +0.000 A 
ATOM     22  C   UNL     1       1.848   7.604  20.406  0.00  0.00    +0.000 A 
ENDBRANCH  15  16
ENDBRANCH  14  15
ENDBRANCH   5  14
BRANCH   6  23
ATOM     23  O   UNL     1       6.574   6.856  18.434  0.00  0.00    +0.000 OA
BRANCH  23  24
ATOM     24  C   UNL     1       7.959   7.172  18.274  0.00  0.00    +0.000 C 
ATOM     25  C   UNL     1       8.107   8.647  17.953  0.00  0.00    +0.000 C 
ENDBRANCH  23  24
ENDBRANCH   6  23
TORSDOF 9
ENDMDL
MODEL 5
REMARK VINA RESULT:      -6.6      3.139      5.346
REMARK  Name = 
REMARK  10 active torsions:
REMARK  status: ('A' for Active; 'I' for Inactive)
REMARK    1  A    between atoms: C_2  and  C_3
REMARK    2  A    between atoms: C_3  and  N_4
REMARK    3  A    between atoms: N_4  and  C_5
REMARK    4  A    between atoms: C_5  and  C_6
REMARK    5  A    between atoms: C_10  and  O_11
REMARK    6  A    between atoms: O_11  and  C_12
REMARK    7  A    between atoms: C_12  and  C_13
REMARK    8  A    between atoms: C_20  and  O_21
REMARK    9  A    between atoms: O_21  and  C_22
REMARK   10  A    between atoms: C_22  and  C_23
REMARK                            x       y       z     vdW  Elec       q    Type
REMARK                         _______ _______ _______ _____ _____    ______ ____
ROOT
ATOM      1  C   UNL     1       3.738   6.424  17.704  0.00  0.00    +0.000 A 
ATOM      2  C   UNL     1       3.167   7.690  17.570  0.00  0.00    +0.000 A 
ATOM      3  C   UNL     1       2.285   8.195  18.538  0.00  0.00    +0.000 A 
ATOM      4 CL   UNL     1       1.797   9.837  18.274  0.00  0.00    +0.000 Cl
ATOM      5  C   UNL     1       1.915   7.411  19.648  0.00  0.00    +0.000 A 
ATOM      6  C   UNL     1       2.512   6.136  19.800  0.00  0.00    +0.000 A 
ATOM      7  C   UNL     1       3.419   5.667  18.838  0.00  0.00    +0.000 A 
ENDROOT
BRANCH   1   8
ATOM      8  C   UNL     1       4.701   5.896  16.668  0.00  0.00    +0.000 C 
BRANCH   8   9
ATOM      9  N   UNL     1       4.791   4.438  16.725  0.00  0.00    +0.000 NA
ATOM     10  H   UNL     1       4.857   4.143  17.697  0.00  0.00    +0.000 HD
BRANCH   9  11
ATOM     11  C   UNL     1       5.976   3.962  16.021  0.00  0.00    +0.000 C 
BRANCH  11  13
ATOM     12  C   UNL     1       7.675   4.587  17.763  0.00  0.00    +0.000 C 
ATOM     13  C   UNL     1       7.170   4.709  16.528  0.00  0.00    +0.000 C 
ENDBRANCH  11  13
ENDBRANCH   9  11
ENDBRANCH   8   9
ENDBRANCH   1   8
BRANCH   5  14
ATOM     14  O   UNL     1       1.058   7.770  20.664  0.00  0.00    +0.000 OA
BRANCH  14  15
ATOM     15  C   UNL     1       1.547   8.675  21.653  0.00  0.00    +0.000 C 
BRANCH  15  16
ATOM     16  C   UNL     1       0.576   9.810  21.912  0.00  0.00    +0.000 A 
ATOM     17  C   UNL     1      -0.390   9.670  22.925  0.00  0.00    +0.000 A 
ATOM     18  C   UNL     1      -1.254  10.723  23.234  0.00  0.00    +0.000 A 
ATOM     19  C   UNL     1      -1.151  11.923  22.540  0.00  0.00    +0.000 A 
ATOM     20 CL   UNL     1      -2.207  13.226  22.929  0.00  0.00    +0.000 Cl
ATOM     21  C   UNL     1      -0.191  12.083  21.542  0.00  0.00    +0.000 A 
ATOM     22  C   UNL     1       0.675  11.030  21.232  0.00  0.00    +0.000 A 
ENDBRANCH  15  16
ENDBRANCH  14  15
ENDBRANCH   5  14
BRANCH   6  23
ATOM     23  O   UNL     1       2.155   5.409  20.917  0.00  0.00    +0.000 OA
BRANCH  23  24
ATOM     24  C   UNL     1       1.415   4.206  20.698  0.00  0.00    +0.000 C 
ATOM     25  C   UNL     1       2.003   3.091  21.541  0.00  0.00    +0.000 C 
ENDBRANCH  23  24
ENDBRANCH   6  23
TORSDOF 9
ENDMDL
MODEL 6
REMARK VINA RESULT:      -6.6      2.633      4.578
REMARK  Name = 
REMARK  10 active torsions:
REMARK  status: ('A' for Active; 'I' for Inactive)
REMARK    1  A    between atoms: C_2  and  C_3
REMARK    2  A    between atoms: C_3  and  N_4
REMARK    3  A    between atoms: N_4  and  C_5
REMARK    4  A    between atoms: C_5  and  C_6
REMARK    5  A    between atoms: C_10  and  O_11
REMARK    6  A    between atoms: O_11  and  C_12
REMARK    7  A    between atoms: C_12  and  C_13
REMARK    8  A    between atoms: C_20  and  O_21
REMARK    9  A    between atoms: O_21  and  C_22
REMARK   10  A    between atoms: C_22  and  C_23
REMARK                            x       y       z     vdW  Elec       q    Type
REMARK                         _______ _______ _______ _____ _____    ______ ____
ROOT
ATOM      1  C   UNL     1       4.359   5.617  17.933  0.00  0.00    +0.000 A 
ATOM      2  C   UNL     1       3.807   6.857  17.607  0.00  0.00    +0.000 A 
ATOM      3  C   UNL     1       2.791   7.428  18.389  0.00  0.00    +0.000 A 
ATOM      4 CL   UNL     1       2.338   9.031  17.914  0.00  0.00    +0.000 Cl
ATOM      5  C   UNL     1       2.269   6.736  19.499  0.00  0.00    +0.000 A 
ATOM      6  C   UNL     1       2.845   5.491  19.848  0.00  0.00    +0.000 A 
ATOM      7  C   UNL     1       3.883   4.956  19.072  0.00  0.00    +0.000 A 
ENDROOT
BRANCH   1   8
ATOM      8  C   UNL     1       5.466   5.020  17.097  0.00  0.00    +0.000 C 
BRANCH   8   9
ATOM      9  N   UNL     1       5.401   5.498  15.717  0.00  0.00    +0.000 NA
ATOM     10  H   UNL     1       4.559   5.136  15.274  0.00  0.00    +0.000 HD
BRANCH   9  11
ATOM     11  C   UNL     1       6.553   5.035  14.952  0.00  0.00    +0.000 C 
BRANCH  11  13
ATOM     12  C   UNL     1       5.992   3.705  12.896  0.00  0.00    +0.000 C 
ATOM     13  C   UNL     1       6.177   3.785  14.221  0.00  0.00    +0.000 C 
ENDBRANCH  11  13
ENDBRANCH   9  11
ENDBRANCH   8   9
ENDBRANCH   1   8
BRANCH   5  14
ATOM     14  O   UNL     1       1.272   7.167  20.345  0.00  0.00    +0.000 OA
BRANCH  14  15
ATOM     15  C   UNL     1       1.652   7.968  21.463  0.00  0.00    +0.000 C 
BRANCH  15  16
ATOM     16  C   UNL     1       0.682   9.108  21.700  0.00  0.00    +0.000 A 
ATOM     17  C   UNL     1       0.258   9.888  20.608  0.00  0.00    +0.000 A 
ATOM     18  C   UNL     1      -0.687  10.900  20.781  0.00  0.00    +0.000 A 
ATOM     19  C   UNL     1      -1.222  11.133  22.043  0.00  0.00    +0.000 A 
ATOM     20 CL   UNL     1      -2.398  12.373  22.256  0.00  0.00    +0.000 Cl
ATOM     21  C   UNL     1      -0.823  10.361  23.134  0.00  0.00    +0.000 A 
ATOM     22  C   UNL     1       0.123   9.347  22.961  0.00  0.00    +0.000 A 
ENDBRANCH  15  16
ENDBRANCH  14  15
ENDBRANCH   5  14
BRANCH   6  23
ATOM     23  O   UNL     1       2.334   4.856  20.962  0.00  0.00    +0.000 OA
BRANCH  23  24
ATOM     24  C   UNL     1       1.343   3.850  20.738  0.00  0.00    +0.000 C 
ATOM     25  C   UNL     1       1.557   2.706  21.709  0.00  0.00    +0.000 C 
ENDBRANCH  23  24
ENDBRANCH   6  23
TORSDOF 9
ENDMDL
MODEL 7
REMARK VINA RESULT:      -6.5      2.767      4.722
REMARK  Name = 
REMARK  10 active torsions:
REMARK  status: ('A' for Active; 'I' for Inactive)
REMARK    1  A    between atoms: C_2  and  C_3
REMARK    2  A    between atoms: C_3  and  N_4
REMARK    3  A    between atoms: N_4  and  C_5
REMARK    4  A    between atoms: C_5  and  C_6
REMARK    5  A    between atoms: C_10  and  O_11
REMARK    6  A    between atoms: O_11  and  C_12
REMARK    7  A    between atoms: C_12  and  C_13
REMARK    8  A    between atoms: C_20  and  O_21
REMARK    9  A    between atoms: O_21  and  C_22
REMARK   10  A    between atoms: C_22  and  C_23
REMARK                            x       y       z     vdW  Elec       q    Type
REMARK                         _______ _______ _______ _____ _____    ______ ____
ROOT
ATOM      1  C   UNL     1       4.519   6.121  17.802  0.00  0.00    +0.000 A 
ATOM      2  C   UNL     1       3.837   7.297  17.488  0.00  0.00    +0.000 A 
ATOM      3  C   UNL     1       2.777   7.757  18.283  0.00  0.00    +0.000 A 
ATOM      4 CL   UNL     1       2.154   9.306  17.820  0.00  0.00    +0.000 Cl
ATOM      5  C   UNL     1       2.343   7.012  19.397  0.00  0.00    +0.000 A 
ATOM      6  C   UNL     1       3.049   5.832  19.734  0.00  0.00    +0.000 A 
ATOM      7  C   UNL     1       4.128   5.410  18.944  0.00  0.00    +0.000 A 
ENDROOT
BRANCH   1   8
ATOM      8  C   UNL     1       5.671   5.643  16.951  0.00  0.00    +0.000 C 
BRANCH   8   9
ATOM      9  N   UNL     1       5.866   4.201  17.088  0.00  0.00    +0.000 NA
ATOM     10  H   UNL     1       6.794   4.021  17.465  0.00  0.00    +0.000 HD
BRANCH   9  11
ATOM     11  C   UNL     1       5.764   3.537  15.793  0.00  0.00    +0.000 C 
BRANCH  11  13
ATOM     12  C   UNL     1       6.821   4.573  13.763  0.00  0.00    +0.000 C 
ATOM     13  C   UNL     1       5.877   4.567  14.713  0.00  0.00    +0.000 C 
ENDBRANCH  11  13
ENDBRANCH   9  11
ENDBRANCH   8   9
ENDBRANCH   1   8
BRANCH   5  14
ATOM     14  O   UNL     1       1.316   7.334  20.256  0.00  0.00    +0.000 OA
BRANCH  14  15
ATOM     15  C   UNL     1       1.625   8.169  21.372  0.00  0.00    +0.000 C 
BRANCH  15  16
ATOM     16  C   UNL     1       0.565   9.229  21.596  0.00  0.00    +0.000 A 
ATOM     17  C   UNL     1       0.034   9.408  22.887  0.00  0.00    +0.000 A 
ATOM     18  C   UNL     1      -0.893  10.421  23.141  0.00  0.00    +0.000 A 
ATOM     19  C   UNL     1      -1.288  11.265  22.110  0.00  0.00    +0.000 A 
ATOM     20 CL   UNL     1      -2.422  12.522  22.424  0.00  0.00    +0.000 Cl
ATOM     21  C   UNL     1      -0.764  11.109  20.827  0.00  0.00    +0.000 A 
ATOM     22  C   UNL     1       0.165  10.096  20.572  0.00  0.00    +0.000 A 
ENDBRANCH  15  16
ENDBRANCH  14  15
ENDBRANCH   5  14
BRANCH   6  23
ATOM     23  O   UNL     1       2.620   5.144  20.851  0.00  0.00    +0.000 OA
BRANCH  23  24
ATOM     24  C   UNL     1       2.446   3.732  20.717  0.00  0.00    +0.000 C 
ATOM     25  C   UNL     1       0.977   3.421  20.511  0.00  0.00    +0.000 C 
ENDBRANCH  23  24
ENDBRANCH   6  23
TORSDOF 9
ENDMDL
MODEL 8
REMARK VINA RESULT:      -6.5      3.421      7.868
REMARK  Name = 
REMARK  10 active torsions:
REMARK  status: ('A' for Active; 'I' for Inactive)
REMARK    1  A    between atoms: C_2  and  C_3
REMARK    2  A    between atoms: C_3  and  N_4
REMARK    3  A    between atoms: N_4  and  C_5
REMARK    4  A    between atoms: C_5  and  C_6
REMARK    5  A    between atoms: C_10  and  O_11
REMARK    6  A    between atoms: O_11  and  C_12
REMARK    7  A    between atoms: C_12  and  C_13
REMARK    8  A    between atoms: C_20  and  O_21
REMARK    9  A    between atoms: O_21  and  C_22
REMARK   10  A    between atoms: C_22  and  C_23
REMARK                            x       y       z     vdW  Elec       q    Type
REMARK                         _______ _______ _______ _____ _____    ______ ____
ROOT
ATOM      1  C   UNL     1       1.598   7.449  20.647  0.00  0.00    +0.000 A 
ATOM      2  C   UNL     1       2.350   7.822  19.532  0.00  0.00    +0.000 A 
ATOM      3  C   UNL     1       2.956   6.860  18.709  0.00  0.00    +0.000 A 
ATOM      4 CL   UNL     1       3.720   7.507  17.295  0.00  0.00    +0.000 Cl
ATOM      5  C   UNL     1       2.859   5.490  19.020  0.00  0.00    +0.000 A 
ATOM      6  C   UNL     1       2.075   5.106  20.135  0.00  0.00    +0.000 A 
ATOM      7  C   UNL     1       1.450   6.084  20.923  0.00  0.00    +0.000 A 
ENDROOT
BRANCH   1   8
ATOM      8  C   UNL     1       0.934   8.490  21.516  0.00  0.00    +0.000 C 
BRANCH   8   9
ATOM      9  N   UNL     1       1.090   9.828  20.948  0.00  0.00    +0.000 NA
ATOM     10  H   UNL     1       1.685  10.385  21.557  0.00  0.00    +0.000 HD
BRANCH   9  11
ATOM     11  C   UNL     1      -0.201  10.498  20.834  0.00  0.00    +0.000 C 
BRANCH  11  13
ATOM     12  C   UNL     1      -0.158  10.196  18.340  0.00  0.00    +0.000 C 
ATOM     13  C   UNL     1      -0.808  10.152  19.511  0.00  0.00    +0.000 C 
ENDBRANCH  11  13
ENDBRANCH   9  11
ENDBRANCH   8   9
ENDBRANCH   1   8
BRANCH   5  14
ATOM     14  O   UNL     1       3.406   4.442  18.314  0.00  0.00    +0.000 OA
BRANCH  14  15
ATOM     15  C   UNL     1       4.821   4.264  18.385  0.00  0.00    +0.000 C 
BRANCH  15  16
ATOM     16  C   UNL     1       5.491   4.515  17.049  0.00  0.00    +0.000 A 
ATOM     17  C   UNL     1       6.797   5.038  17.023  0.00  0.00    +0.000 A 
ATOM     18  C   UNL     1       7.468   5.216  15.811  0.00  0.00    +0.000 A 
ATOM     19  C   UNL     1       6.842   4.864  14.621  0.00  0.00    +0.000 A 
ATOM     20 CL   UNL     1       7.673   5.071  13.127  0.00  0.00    +0.000 Cl
ATOM     21  C   UNL     1       5.552   4.333  14.629  0.00  0.00    +0.000 A 
ATOM     22  C   UNL     1       4.881   4.154  15.842  0.00  0.00    +0.000 A 
ENDBRANCH  15  16
ENDBRANCH  14  15
ENDBRANCH   5  14
BRANCH   6  23
ATOM     23  O   UNL     1       1.972   3.754  20.391  0.00  0.00    +0.000 OA
BRANCH  23  24
ATOM     24  C   UNL     1       0.713   3.136  20.115  0.00  0.00    +0.000 C 
ATOM     25  C   UNL     1       0.841   2.258  18.885  0.00  0.00    +0.000 C 
ENDBRANCH  23  24
ENDBRANCH   6  23
TORSDOF 9
ENDMDL
MODEL 9
REMARK VINA RESULT:      -6.5      0.774      1.337
REMARK  Name = 
REMARK  10 active torsions:
REMARK  status: ('A' for Active; 'I' for Inactive)
REMARK    1  A    between atoms: C_2  and  C_3
REMARK    2  A    between atoms: C_3  and  N_4
REMARK    3  A    between atoms: N_4  and  C_5
REMARK    4  A    between atoms: C_5  and  C_6
REMARK    5  A    between atoms: C_10  and  O_11
REMARK    6  A    between atoms: O_11  and  C_12
REMARK    7  A    between atoms: C_12  and  C_13
REMARK    8  A    between atoms: C_20  and  O_21
REMARK    9  A    between atoms: O_21  and  C_22
REMARK   10  A    between atoms: C_22  and  C_23
REMARK                            x       y       z     vdW  Elec       q    Type
REMARK                         _______ _______ _______ _____ _____    ______ ____
ROOT
ATOM      1  C   UNL     1       5.411   4.767  15.359  0.00  0.00    +0.000 A 
ATOM      2  C   UNL     1       4.381   3.984  15.882  0.00  0.00    +0.000 A 
ATOM      3  C   UNL     1       4.011   4.079  17.233  0.00  0.00    +0.000 A 
ATOM      4 CL   UNL     1       2.619   3.141  17.661  0.00  0.00    +0.000 Cl
ATOM      5  C   UNL     1       4.708   4.936  18.107  0.00  0.00    +0.000 A 
ATOM      6  C   UNL     1       5.737   5.750  17.573  0.00  0.00    +0.000 A 
ATOM      7  C   UNL     1       6.065   5.664  16.213  0.00  0.00    +0.000 A 
ENDROOT
BRANCH   1   8
ATOM      8  C   UNL     1       5.789   4.672  13.900  0.00  0.00    +0.000 C 
BRANCH   8   9
ATOM      9  N   UNL     1       6.288   3.338  13.570  0.00  0.00    +0.000 NA
ATOM     10  H   UNL     1       7.221   3.222  13.960  0.00  0.00    +0.000 HD
BRANCH   9  11
ATOM     11  C   UNL     1       6.373   3.158  12.125  0.00  0.00    +0.000 C 
BRANCH  11  13
ATOM     12  C   UNL     1       4.053   3.192  11.163  0.00  0.00    +0.000 C 
ATOM     13  C   UNL     1       5.108   2.521  11.643  0.00  0.00    +0.000 C 
ENDBRANCH  11  13
ENDBRANCH   9  11
ENDBRANCH   8   9
ENDBRANCH   1   8
BRANCH   5  14
ATOM     14  O   UNL     1       4.464   5.122  19.449  0.00  0.00    +0.000 OA
BRANCH  14  15
ATOM     15  C   UNL     1       3.102   5.162  19.874  0.00  0.00    +0.000 C 
BRANCH  15  16
ATOM     16  C   UNL     1       2.470   6.516  19.623  0.00  0.00    +0.000 A 
ATOM     17  C   UNL     1       1.875   7.206  20.696  0.00  0.00    +0.000 A 
ATOM     18  C   UNL     1       1.345   8.485  20.512  0.00  0.00    +0.000 A 
ATOM     19  C   UNL     1       1.415   9.085  19.260  0.00  0.00    +0.000 A 
ATOM     20 CL   UNL     1       0.773  10.667  19.035  0.00  0.00    +0.000 Cl
ATOM     21  C   UNL     1       2.012   8.420  18.189  0.00  0.00    +0.000 A 
ATOM     22  C   UNL     1       2.544   7.141  18.372  0.00  0.00    +0.000 A 
ENDBRANCH  15  16
ENDBRANCH  14  15
ENDBRANCH   5  14
BRANCH   6  23
ATOM     23  O   UNL     1       6.376   6.603  18.449  0.00  0.00    +0.000 OA
BRANCH  23  24
ATOM     24  C   UNL     1       7.757   6.874  18.201  0.00  0.00    +0.000 C 
ATOM     25  C   UNL     1       7.913   8.303  17.718  0.00  0.00    +0.000 C 
ENDBRANCH  23  24
ENDBRANCH   6  23
TORSDOF 9
ENDMDL
