MODEL 1
REMARK VINA RESULT:      -7.2      0.000      0.000
REMARK  Name = 
REMARK  4 active torsions:
REMARK  status: ('A' for Active; 'I' for Inactive)
REMARK    1  A    between atoms: C_2  and  C_10
REMARK    2  A    between atoms: N_3  and  C_4
REMARK    3  A    between atoms: C_4  and  C_5
REMARK    4  A    between atoms: C_16  and  C_17
REMARK                            x       y       z     vdW  Elec       q    Type
REMARK                         _______ _______ _______ _____ _____    ______ ____
ROOT
ATOM      1  O   UNL     1       3.605   6.511  17.561  0.00  0.00    +0.000 OA
ATOM      2  C   UNL     1       3.873   5.365  17.176  0.00  0.00    +0.000 C 
ATOM      3  N   UNL     1       3.076   4.297  17.476  0.00  0.00    +0.000 N 
ATOM      4  H   UNL     1       3.250   3.376  17.086  0.00  0.00    +0.000 HD
ENDROOT
BRANCH   2   5
ATOM      5  C   UNL     1       5.122   5.133  16.419  0.00  0.00    +0.000 A 
ATOM      6  C   UNL     1       4.983   4.570  15.131  0.00  0.00    +0.000 A 
ATOM      7  C   UNL     1       6.108   4.322  14.361  0.00  0.00    +0.000 A 
ATOM      8 BR   UNL     1       5.981   3.526  12.657  0.00  0.00    +0.000 Br
ATOM      9  C   UNL     1       7.333   4.655  14.887  0.00  0.00    +0.000 A 
ATOM     10  N   UNL     1       7.502   5.182  16.122  0.00  0.00    +0.000 NA
ATOM     11  C   UNL     1       6.415   5.389  16.917  0.00  0.00    +0.000 A 
BRANCH  11  12
ATOM     12  C   UNL     1       6.759   5.921  18.299  0.00  0.00    +0.000 C 
ATOM     13  C   UNL     1       8.038   5.680  19.068  0.00  0.00    +0.000 C 
ATOM     14  C   UNL     1       7.833   6.993  18.391  0.00  0.00    +0.000 C 
ENDBRANCH  11  12
ENDBRANCH   2   5
BRANCH   3  15
ATOM     15  C   UNL     1       1.849   4.463  18.228  0.00  0.00    +0.000 C 
BRANCH  15  16
ATOM     16  C   UNL     1       1.945   3.762  19.552  0.00  0.00    +0.000 A 
ATOM     17  N   UNL     1       0.968   3.672  20.436  0.00  0.00    +0.000 NA
ATOM     18  C   UNL     1       1.392   2.946  21.531  0.00  0.00    +0.000 A 
ATOM     19  C   UNL     1       2.700   2.516  21.494  0.00  0.00    +0.000 A 
ATOM     20  S   UNL     1       3.415   2.987  20.009  0.00  0.00    +0.000 S 
ENDBRANCH  15  16
ENDBRANCH   3  15
TORSDOF 4
ENDMDL
MODEL 2
REMARK VINA RESULT:      -7.1      0.932      1.018
REMARK  Name = 
REMARK  4 active torsions:
REMARK  status: ('A' for Active; 'I' for Inactive)
REMARK    1  A    between atoms: C_2  and  C_10
REMARK    2  A    between atoms: N_3  and  C_4
REMARK    3  A    between atoms: C_4  and  C_5
REMARK    4  A    between atoms: C_16  and  C_17
REMARK                            x       y       z     vdW  Elec       q    Type
REMARK                         _______ _______ _______ _____ _____    ______ ____
ROOT
ATOM      1  O   UNL     1       3.680   6.198  17.689  0.00  0.00    +0.000 OA
ATOM      2  C   UNL     1       3.941   5.169  17.052  0.00  0.00    +0.000 C 
ATOM      3  N   UNL     1       3.153   4.055  17.120  0.00  0.00    +0.000 N 
ATOM      4  H   UNL     1       3.320   3.247  16.530  0.00  0.00    +0.000 HD
ENDROOT
BRANCH   2   5
ATOM      5  C   UNL     1       5.175   5.121  16.237  0.00  0.00    +0.000 A 
ATOM      6  C   UNL     1       5.089   4.439  15.003  0.00  0.00    +0.000 A 
ATOM      7  C   UNL     1       6.204   4.351  14.184  0.00  0.00    +0.000 A 
ATOM      8 BR   UNL     1       6.155   3.411  12.551  0.00  0.00    +0.000 Br
ATOM      9  C   UNL     1       7.363   4.955  14.609  0.00  0.00    +0.000 A 
ATOM     10  N   UNL     1       7.482   5.601  15.792  0.00  0.00    +0.000 NA
ATOM     11  C   UNL     1       6.414   5.660  16.636  0.00  0.00    +0.000 A 
BRANCH  11  12
ATOM     12  C   UNL     1       6.711   6.357  17.954  0.00  0.00    +0.000 C 
ATOM     13  C   UNL     1       7.916   6.139  18.840  0.00  0.00    +0.000 C 
ATOM     14  C   UNL     1       7.859   7.354  17.977  0.00  0.00    +0.000 C 
ENDBRANCH  11  12
ENDBRANCH   2   5
BRANCH   3  15
ATOM     15  C   UNL     1       1.941   4.040  17.914  0.00  0.00    +0.000 C 
BRANCH  15  16
ATOM     16  C   UNL     1       2.232   3.566  19.308  0.00  0.00    +0.000 A 
ATOM     17  N   UNL     1       3.198   2.728  19.638  0.00  0.00    +0.000 NA
ATOM     18  C   UNL     1       3.193   2.522  21.004  0.00  0.00    +0.000 A 
ATOM     19  C   UNL     1       2.203   3.174  21.704  0.00  0.00    +0.000 A 
ATOM     20  S   UNL     1       1.273   4.128  20.625  0.00  0.00    +0.000 S 
ENDBRANCH  15  16
ENDBRANCH   3  15
TORSDOF 4
ENDMDL
MODEL 3
REMARK VINA RESULT:      -6.9      1.920      2.184
REMARK  Name = 
REMARK  4 active torsions:
REMARK  status: ('A' for Active; 'I' for Inactive)
REMARK    1  A    between atoms: C_2  and  C_10
REMARK    2  A    between atoms: N_3  and  C_4
REMARK    3  A    between atoms: C_4  and  C_5
REMARK    4  A    between atoms: C_16  and  C_17
REMARK                            x       y       z     vdW  Elec       q    Type
REMARK                         _______ _______ _______ _____ _____    ______ ____
ROOT
ATOM      1  O   UNL     1       3.580   3.632  16.773  0.00  0.00    +0.000 OA
ATOM      2  C   UNL     1       4.771   3.842  17.039  0.00  0.00    +0.000 C 
ATOM      3  N   UNL     1       5.259   3.733  18.311  0.00  0.00    +0.000 N 
ATOM      4  H   UNL     1       6.250   3.819  18.511  0.00  0.00    +0.000 HD
ENDROOT
BRANCH   2   5
ATOM      5  C   UNL     1       5.682   4.281  15.960  0.00  0.00    +0.000 A 
ATOM      6  C   UNL     1       5.556   3.617  14.720  0.00  0.00    +0.000 A 
ATOM      7  C   UNL     1       6.377   3.971  13.661  0.00  0.00    +0.000 A 
ATOM      8 BR   UNL     1       6.282   3.084  12.001  0.00  0.00    +0.000 Br
ATOM      9  C   UNL     1       7.285   4.983  13.862  0.00  0.00    +0.000 A 
ATOM     10  N   UNL     1       7.441   5.628  15.041  0.00  0.00    +0.000 NA
ATOM     11  C   UNL     1       6.681   5.264  16.111  0.00  0.00    +0.000 A 
BRANCH  11  12
ATOM     12  C   UNL     1       7.009   6.026  17.385  0.00  0.00    +0.000 C 
ATOM     13  C   UNL     1       7.696   7.369  17.483  0.00  0.00    +0.000 C 
ATOM     14  C   UNL     1       6.218   7.292  17.669  0.00  0.00    +0.000 C 
ENDBRANCH  11  12
ENDBRANCH   2   5
BRANCH   3  15
ATOM     15  C   UNL     1       4.408   3.322  19.409  0.00  0.00    +0.000 C 
BRANCH  15  16
ATOM     16  C   UNL     1       3.463   4.426  19.783  0.00  0.00    +0.000 A 
ATOM     17  N   UNL     1       3.621   5.700  19.469  0.00  0.00    +0.000 NA
ATOM     18  C   UNL     1       2.559   6.437  19.955  0.00  0.00    +0.000 A 
ATOM     19  C   UNL     1       1.616   5.732  20.666  0.00  0.00    +0.000 A 
ATOM     20  S   UNL     1       2.038   4.070  20.685  0.00  0.00    +0.000 S 
ENDBRANCH  15  16
ENDBRANCH   3  15
TORSDOF 4
ENDMDL
MODEL 4
REMARK VINA RESULT:      -6.7      2.243      2.615
REMARK  Name = 
REMARK  4 active torsions:
REMARK  status: ('A' for Active; 'I' for Inactive)
REMARK    1  A    between atoms: C_2  and  C_10
REMARK    2  A    between atoms: N_3  and  C_4
REMARK    3  A    between atoms: C_4  and  C_5
REMARK    4  A    between atoms: C_16  and  C_17
REMARK                            x       y       z     vdW  Elec       q    Type
REMARK                         _______ _______ _______ _____ _____    ______ ____
ROOT
ATOM      1  O   UNL     1       4.590   3.045  17.564  0.00  0.00    +0.000 OA
ATOM      2  C   UNL     1       4.557   4.158  17.020  0.00  0.00    +0.000 C 
ATOM      3  N   UNL     1       3.606   5.087  17.334  0.00  0.00    +0.000 N 
ATOM      4  H   UNL     1       3.634   6.028  16.953  0.00  0.00    +0.000 HD
ENDROOT
BRANCH   2   5
ATOM      5  C   UNL     1       5.539   4.470  15.959  0.00  0.00    +0.000 A 
ATOM      6  C   UNL     1       5.368   3.802  14.727  0.00  0.00    +0.000 A 
ATOM      7  C   UNL     1       6.250   4.042  13.684  0.00  0.00    +0.000 A 
ATOM      8 BR   UNL     1       6.096   3.141  12.036  0.00  0.00    +0.000 Br
ATOM      9  C   UNL     1       7.262   4.948  13.894  0.00  0.00    +0.000 A 
ATOM     10  N   UNL     1       7.462   5.592  15.067  0.00  0.00    +0.000 NA
ATOM     11  C   UNL     1       6.638   5.337  16.122  0.00  0.00    +0.000 A 
BRANCH  11  12
ATOM     12  C   UNL     1       7.020   6.079  17.392  0.00  0.00    +0.000 C 
ATOM     13  C   UNL     1       7.801   7.370  17.484  0.00  0.00    +0.000 C 
ATOM     14  C   UNL     1       6.322   7.400  17.669  0.00  0.00    +0.000 C 
ENDBRANCH  11  12
ENDBRANCH   2   5
BRANCH   3  15
ATOM     15  C   UNL     1       2.611   4.830  18.354  0.00  0.00    +0.000 C 
BRANCH  15  16
ATOM     16  C   UNL     1       2.263   6.097  19.080  0.00  0.00    +0.000 A 
ATOM     17  N   UNL     1       1.821   6.163  20.323  0.00  0.00    +0.000 NA
ATOM     18  C   UNL     1       1.618   7.481  20.679  0.00  0.00    +0.000 A 
ATOM     19  C   UNL     1       1.870   8.412  19.697  0.00  0.00    +0.000 A 
ATOM     20  S   UNL     1       2.437   7.617  18.287  0.00  0.00    +0.000 S 
ENDBRANCH  15  16
ENDBRANCH   3  15
TORSDOF 4
ENDMDL
MODEL 5
REMARK VINA RESULT:      -6.7      1.033      1.132
REMARK  Name = 
REMARK  4 active torsions:
REMARK  status: ('A' for Active; 'I' for Inactive)
REMARK    1  A    between atoms: C_2  and  C_10
REMARK    2  A    between atoms: N_3  and  C_4
REMARK    3  A    between atoms: C_4  and  C_5
REMARK    4  A    between atoms: C_16  and  C_17
REMARK                            x       y       z     vdW  Elec       q    Type
REMARK                         _______ _______ _______ _____ _____    ______ ____
ROOT
ATOM      1  O   UNL     1       3.564   7.326  17.013  0.00  0.00    +0.000 OA
ATOM      2  C   UNL     1       4.021   6.180  17.115  0.00  0.00    +0.000 C 
ATOM      3  N   UNL     1       3.473   5.254  17.957  0.00  0.00    +0.000 N 
ATOM      4  H   UNL     1       3.794   4.291  17.973  0.00  0.00    +0.000 HD
ENDROOT
BRANCH   2   5
ATOM      5  C   UNL     1       5.231   5.817  16.346  0.00  0.00    +0.000 A 
ATOM      6  C   UNL     1       5.035   5.001  15.210  0.00  0.00    +0.000 A 
ATOM      7  C   UNL     1       6.121   4.619  14.439  0.00  0.00    +0.000 A 
ATOM      8 BR   UNL     1       5.919   3.492  12.942  0.00  0.00    +0.000 Br
ATOM      9  C   UNL     1       7.365   5.070  14.811  0.00  0.00    +0.000 A 
ATOM     10  N   UNL     1       7.588   5.839  15.902  0.00  0.00    +0.000 NA
ATOM     11  C   UNL     1       6.543   6.188  16.703  0.00  0.00    +0.000 A 
BRANCH  11  12
ATOM     12  C   UNL     1       6.950   6.995  17.926  0.00  0.00    +0.000 C 
ATOM     13  C   UNL     1       8.334   7.090  18.526  0.00  0.00    +0.000 C 
ATOM     14  C   UNL     1       7.821   8.220  17.700  0.00  0.00    +0.000 C 
ENDBRANCH  11  12
ENDBRANCH   2   5
BRANCH   3  15
ATOM     15  C   UNL     1       2.297   5.559  18.746  0.00  0.00    +0.000 C 
BRANCH  15  16
ATOM     16  C   UNL     1       1.859   4.353  19.524  0.00  0.00    +0.000 A 
ATOM     17  N   UNL     1       1.239   3.304  19.014  0.00  0.00    +0.000 NA
ATOM     18  C   UNL     1       1.000   2.373  20.005  0.00  0.00    +0.000 A 
ATOM     19  C   UNL     1       1.406   2.729  21.272  0.00  0.00    +0.000 A 
ATOM     20  S   UNL     1       2.167   4.264  21.218  0.00  0.00    +0.000 S 
ENDBRANCH  15  16
ENDBRANCH   3  15
TORSDOF 4
ENDMDL
MODEL 6
REMARK VINA RESULT:      -6.7      1.492      1.582
REMARK  Name = 
REMARK  4 active torsions:
REMARK  status: ('A' for Active; 'I' for Inactive)
REMARK    1  A    between atoms: C_2  and  C_10
REMARK    2  A    between atoms: N_3  and  C_4
REMARK    3  A    between atoms: C_4  and  C_5
REMARK    4  A    between atoms: C_16  and  C_17
REMARK                            x       y       z     vdW  Elec       q    Type
REMARK                         _______ _______ _______ _____ _____    ______ ____
ROOT
ATOM      1  O   UNL     1       4.030   2.322  17.611  0.00  0.00    +0.000 OA
ATOM      2  C   UNL     1       4.025   3.441  17.081  0.00  0.00    +0.000 C 
ATOM      3  N   UNL     1       2.923   4.247  17.102  0.00  0.00    +0.000 N 
ATOM      4  H   UNL     1       2.950   5.197  16.745  0.00  0.00    +0.000 HD
ENDROOT
BRANCH   2   5
ATOM      5  C   UNL     1       5.230   3.897  16.353  0.00  0.00    +0.000 A 
ATOM      6  C   UNL     1       5.222   3.724  14.951  0.00  0.00    +0.000 A 
ATOM      7  C   UNL     1       6.315   4.126  14.200  0.00  0.00    +0.000 A 
ATOM      8 BR   UNL     1       6.376   3.872  12.334  0.00  0.00    +0.000 Br
ATOM      9  C   UNL     1       7.374   4.700  14.862  0.00  0.00    +0.000 A 
ATOM     10  N   UNL     1       7.419   4.866  16.205  0.00  0.00    +0.000 NA
ATOM     11  C   UNL     1       6.377   4.435  16.970  0.00  0.00    +0.000 A 
BRANCH  11  12
ATOM     12  C   UNL     1       6.593   4.624  18.462  0.00  0.00    +0.000 C 
ATOM     13  C   UNL     1       7.311   5.773  19.133  0.00  0.00    +0.000 C 
ATOM     14  C   UNL     1       5.820   5.740  19.147  0.00  0.00    +0.000 C 
ENDBRANCH  11  12
ENDBRANCH   2   5
BRANCH   3  15
ATOM     15  C   UNL     1       1.711   3.845  17.787  0.00  0.00    +0.000 C 
BRANCH  15  16
ATOM     16  C   UNL     1       1.898   3.925  19.274  0.00  0.00    +0.000 A 
ATOM     17  N   UNL     1       2.298   4.997  19.933  0.00  0.00    +0.000 NA
ATOM     18  C   UNL     1       2.345   4.726  21.286  0.00  0.00    +0.000 A 
ATOM     19  C   UNL     1       2.016   3.440  21.651  0.00  0.00    +0.000 A 
ATOM     20  S   UNL     1       1.576   2.545  20.256  0.00  0.00    +0.000 S 
ENDBRANCH  15  16
ENDBRANCH   3  15
TORSDOF 4
ENDMDL
MODEL 7
REMARK VINA RESULT:      -6.6      2.161      2.640
REMARK  Name = 
REMARK  4 active torsions:
REMARK  status: ('A' for Active; 'I' for Inactive)
REMARK    1  A    between atoms: C_2  and  C_10
REMARK    2  A    between atoms: N_3  and  C_4
REMARK    3  A    between atoms: C_4  and  C_5
REMARK    4  A    between atoms: C_16  and  C_17
REMARK                            x       y       z     vdW  Elec       q    Type
REMARK                         _______ _______ _______ _____ _____    ______ ____
ROOT
ATOM      1  O   UNL     1       5.470   3.875  18.945  0.00  0.00    +0.000 OA
ATOM      2  C   UNL     1       4.885   3.629  17.882  0.00  0.00    +0.000 C 
ATOM      3  N   UNL     1       4.061   2.548  17.742  0.00  0.00    +0.000 N 
ATOM      4  H   UNL     1       3.515   2.399  16.900  0.00  0.00    +0.000 HD
ENDROOT
BRANCH   2   5
ATOM      5  C   UNL     1       5.127   4.498  16.709  0.00  0.00    +0.000 A 
ATOM      6  C   UNL     1       5.722   3.886  15.584  0.00  0.00    +0.000 A 
ATOM      7  C   UNL     1       5.981   4.636  14.448  0.00  0.00    +0.000 A 
ATOM      8 BR   UNL     1       6.817   3.880  12.937  0.00  0.00    +0.000 Br
ATOM      9  C   UNL     1       5.627   5.965  14.459  0.00  0.00    +0.000 A 
ATOM     10  N   UNL     1       5.070   6.584  15.526  0.00  0.00    +0.000 NA
ATOM     11  C   UNL     1       4.851   5.880  16.672  0.00  0.00    +0.000 A 
BRANCH  11  12
ATOM     12  C   UNL     1       4.284   6.717  17.807  0.00  0.00    +0.000 C 
ATOM     13  C   UNL     1       3.214   7.779  17.699  0.00  0.00    +0.000 C 
ATOM     14  C   UNL     1       2.854   6.436  18.239  0.00  0.00    +0.000 C 
ENDBRANCH  11  12
ENDBRANCH   2   5
BRANCH   3  15
ATOM     15  C   UNL     1       3.800   1.655  18.853  0.00  0.00    +0.000 C 
BRANCH  15  16
ATOM     16  C   UNL     1       2.821   2.275  19.806  0.00  0.00    +0.000 A 
ATOM     17  N   UNL     1       3.049   2.503  21.087  0.00  0.00    +0.000 NA
ATOM     18  C   UNL     1       1.943   3.099  21.661  0.00  0.00    +0.000 A 
ATOM     19  C   UNL     1       0.865   3.290  20.827  0.00  0.00    +0.000 A 
ATOM     20  S   UNL     1       1.263   2.757  19.246  0.00  0.00    +0.000 S 
ENDBRANCH  15  16
ENDBRANCH   3  15
TORSDOF 4
ENDMDL
MODEL 8
REMARK VINA RESULT:      -6.6      1.479      1.782
REMARK  Name = 
REMARK  4 active torsions:
REMARK  status: ('A' for Active; 'I' for Inactive)
REMARK    1  A    between atoms: C_2  and  C_10
REMARK    2  A    between atoms: N_3  and  C_4
REMARK    3  A    between atoms: C_4  and  C_5
REMARK    4  A    between atoms: C_16  and  C_17
REMARK                            x       y       z     vdW  Elec       q    Type
REMARK                         _______ _______ _______ _____ _____    ______ ____
ROOT
ATOM      1  O   UNL     1       3.980   5.279  17.857  0.00  0.00    +0.000 OA
ATOM      2  C   UNL     1       4.949   4.536  17.647  0.00  0.00    +0.000 C 
ATOM      3  N   UNL     1       5.329   3.574  18.539  0.00  0.00    +0.000 N 
ATOM      4  H   UNL     1       6.067   2.911  18.324  0.00  0.00    +0.000 HD
ENDROOT
BRANCH   2   5
ATOM      5  C   UNL     1       5.754   4.734  16.422  0.00  0.00    +0.000 A 
ATOM      6  C   UNL     1       5.371   3.983  15.289  0.00  0.00    +0.000 A 
ATOM      7  C   UNL     1       6.079   4.113  14.104  0.00  0.00    +0.000 A 
ATOM      8 BR   UNL     1       5.640   3.098  12.577  0.00  0.00    +0.000 Br
ATOM      9  C   UNL     1       7.133   4.995  14.078  0.00  0.00    +0.000 A 
ATOM     10  N   UNL     1       7.534   5.716  15.150  0.00  0.00    +0.000 NA
ATOM     11  C   UNL     1       6.886   5.570  16.339  0.00  0.00    +0.000 A 
BRANCH  11  12
ATOM     12  C   UNL     1       7.485   6.389  17.470  0.00  0.00    +0.000 C 
ATOM     13  C   UNL     1       8.033   7.795  17.375  0.00  0.00    +0.000 C 
ATOM     14  C   UNL     1       6.685   7.579  17.974  0.00  0.00    +0.000 C 
ENDBRANCH  11  12
ENDBRANCH   2   5
BRANCH   3  15
ATOM     15  C   UNL     1       4.587   3.347  19.761  0.00  0.00    +0.000 C 
BRANCH  15  16
ATOM     16  C   UNL     1       3.146   3.059  19.455  0.00  0.00    +0.000 A 
ATOM     17  N   UNL     1       2.114   3.641  20.039  0.00  0.00    +0.000 NA
ATOM     18  C   UNL     1       0.937   3.155  19.506  0.00  0.00    +0.000 A 
ATOM     19  C   UNL     1       1.074   2.179  18.544  0.00  0.00    +0.000 A 
ATOM     20  S   UNL     1       2.739   1.895  18.251  0.00  0.00    +0.000 S 
ENDBRANCH  15  16
ENDBRANCH   3  15
TORSDOF 4
ENDMDL
MODEL 9
REMARK VINA RESULT:      -6.5      1.581      1.746
REMARK  Name = 
REMARK  4 active torsions:
REMARK  status: ('A' for Active; 'I' for Inactive)
REMARK    1  A    between atoms: C_2  and  C_10
REMARK    2  A    between atoms: N_3  and  C_4
REMARK    3  A    between atoms: C_4  and  C_5
REMARK    4  A    between atoms: C_16  and  C_17
REMARK                            x       y       z     vdW  Elec       q    Type
REMARK                         _______ _______ _______ _____ _____    ______ ____
ROOT
ATOM      1  O   UNL     1       5.360   3.695  18.994  0.00  0.00    +0.000 OA
ATOM      2  C   UNL     1       5.077   3.390  17.827  0.00  0.00    +0.000 C 
ATOM      3  N   UNL     1       4.230   2.358  17.534  0.00  0.00    +0.000 N 
ATOM      4  H   UNL     1       3.932   2.168  16.583  0.00  0.00    +0.000 HD
ENDROOT
BRANCH   2   5
ATOM      5  C   UNL     1       5.718   4.125  16.715  0.00  0.00    +0.000 A 
ATOM      6  C   UNL     1       5.640   3.529  15.438  0.00  0.00    +0.000 A 
ATOM      7  C   UNL     1       6.218   4.157  14.346  0.00  0.00    +0.000 A 
ATOM      8 BR   UNL     1       6.185   3.380  12.629  0.00  0.00    +0.000 Br
ATOM      9  C   UNL     1       6.840   5.365  14.555  0.00  0.00    +0.000 A 
ATOM     10  N   UNL     1       6.945   5.955  15.768  0.00  0.00    +0.000 NA
ATOM     11  C   UNL     1       6.428   5.333  16.865  0.00  0.00    +0.000 A 
BRANCH  11  12
ATOM     12  C   UNL     1       6.678   6.077  18.166  0.00  0.00    +0.000 C 
ATOM     13  C   UNL     1       7.842   5.882  19.110  0.00  0.00    +0.000 C 
ATOM     14  C   UNL     1       7.833   7.064  18.200  0.00  0.00    +0.000 C 
ENDBRANCH  11  12
ENDBRANCH   2   5
BRANCH   3  15
ATOM     15  C   UNL     1       3.586   1.594  18.583  0.00  0.00    +0.000 C 
BRANCH  15  16
ATOM     16  C   UNL     1       2.507   2.406  19.237  0.00  0.00    +0.000 A 
ATOM     17  N   UNL     1       1.501   2.982  18.604  0.00  0.00    +0.000 NA
ATOM     18  C   UNL     1       0.688   3.633  19.511  0.00  0.00    +0.000 A 
ATOM     19  C   UNL     1       1.095   3.582  20.825  0.00  0.00    +0.000 A 
ATOM     20  S   UNL     1       2.521   2.637  20.945  0.00  0.00    +0.000 S 
ENDBRANCH  15  16
ENDBRANCH   3  15
TORSDOF 4
ENDMDL
