MODEL 1
REMARK VINA RESULT:      -7.4      0.000      0.000
REMARK  Name = 
REMARK  11 active torsions:
REMARK  status: ('A' for Active; 'I' for Inactive)
REMARK    1  A    between atoms: C_1  and  C_2
REMARK    2  A    between atoms: C_2  and  C_3
REMARK    3  A    between atoms: C_3  and  C_4
REMARK    4  A    between atoms: C_3  and  C_24
REMARK    5  A    between atoms: N_6  and  C_7
REMARK    6  A    between atoms: N_10  and  C_11
REMARK    7  A    between atoms: C_11  and  C_12
REMARK    8  A    between atoms: N_14  and  C_15
REMARK    9  A    between atoms: C_15  and  C_16
REMARK   10  A    between atoms: C_17  and  S_18
REMARK   11  A    between atoms: S_18  and  C_19
REMARK                            x       y       z     vdW  Elec       q    Type
REMARK                         _______ _______ _______ _____ _____    ______ ____
ROOT
ATOM      1  C   UNL     1       2.552   8.135  18.534  0.00  0.00    +0.000 C 
ATOM      2  C   UNL     1       1.743   9.221  17.826  0.00  0.00    +0.000 C 
ATOM      3  C   UNL     1       1.056   9.979  18.951  0.00  0.00    +0.000 C 
ATOM      4  N   UNL     1       0.931   9.004  20.007  0.00  0.00    +0.000 N 
ATOM      5  C   UNL     1       1.715   7.880  19.788  0.00  0.00    +0.000 C 
ATOM      6  O   UNL     1       1.752   6.875  20.482  0.00  0.00    +0.000 OA
ENDROOT
BRANCH   1   9
ATOM      7  C   UNL     1       4.075   6.555  17.424  0.00  0.00    +0.000 C 
ATOM      8  O   UNL     1       5.040   7.280  17.666  0.00  0.00    +0.000 OA
ATOM      9  N   UNL     1       2.789   6.944  17.727  0.00  0.00    +0.000 N 
ATOM     10  H   UNL     1       2.001   6.340  17.522  0.00  0.00    +0.000 HD
BRANCH   7  11
ATOM     11  C   UNL     1       4.278   5.135  16.879  0.00  0.00    +0.000 C 
BRANCH  11  12
ATOM     12  C   UNL     1       3.733   4.033  17.779  0.00  0.00    +0.000 A 
ATOM     13  C   UNL     1       4.593   3.413  18.705  0.00  0.00    +0.000 A 
ATOM     14  C   UNL     1       4.111   2.447  19.596  0.00  0.00    +0.000 A 
ATOM     15 CL   UNL     1       5.182   1.717  20.728  0.00  0.00    +0.000 Cl
ATOM     16  C   UNL     1       2.770   2.081  19.588  0.00  0.00    +0.000 A 
ATOM     17  C   UNL     1       1.912   2.686  18.677  0.00  0.00    +0.000 A 
ATOM     18 CL   UNL     1       0.241   2.273  18.677  0.00  0.00    +0.000 Cl
ATOM     19  C   UNL     1       2.384   3.642  17.772  0.00  0.00    +0.000 A 
ENDBRANCH  11  12
BRANCH  11  21
ATOM     20  C   UNL     1       5.920   5.081  14.914  0.00  0.00    +0.000 C 
ATOM     21  C   UNL     1       5.746   4.978  16.425  0.00  0.00    +0.000 C 
ENDBRANCH  11  21
ENDBRANCH   7  11
ENDBRANCH   1   9
BRANCH   4  22
ATOM     22  C   UNL     1      -0.063   9.107  21.062  0.00  0.00    +0.000 C 
BRANCH  22  23
ATOM     23  C   UNL     1       0.251  10.051  22.236  0.00  0.00    +0.000 C 
ATOM     24  O   UNL     1       0.955   9.728  23.196  0.00  0.00    +0.000 OA
ATOM     25  N   UNL     1      -0.226  11.338  22.166  0.00  0.00    +0.000 N 
ATOM     26  H   UNL     1       0.013  11.923  22.954  0.00  0.00    +0.000 HD
BRANCH  25  27
ATOM     27  C   UNL     1      -1.188  11.851  21.205  0.00  0.00    +0.000 C 
BRANCH  27  28
ATOM     28  C   UNL     1      -2.424  12.347  21.896  0.00  0.00    +0.000 C 
ATOM     29  C   UNL     1      -2.645  12.382  23.223  0.00  0.00    +0.000 C 
BRANCH  29  30
ATOM     30  S   UNL     1      -4.156  12.956  23.860  0.00  0.00    +0.000 S 
ATOM     31  C   UNL     1      -5.172  13.030  22.406  0.00  0.00    +0.000 C 
ATOM     32  O   UNL     1      -4.701  11.918  24.714  0.00  0.00    +0.000 OA
ATOM     33  O   UNL     1      -3.997  14.310  24.357  0.00  0.00    +0.000 OA
ENDBRANCH  29  30
ENDBRANCH  27  28
ENDBRANCH  25  27
ENDBRANCH  22  23
ENDBRANCH   4  22
TORSDOF 9
ENDMDL
MODEL 2
REMARK VINA RESULT:      -7.4      2.284      3.497
REMARK  Name = 
REMARK  11 active torsions:
REMARK  status: ('A' for Active; 'I' for Inactive)
REMARK    1  A    between atoms: C_1  and  C_2
REMARK    2  A    between atoms: C_2  and  C_3
REMARK    3  A    between atoms: C_3  and  C_4
REMARK    4  A    between atoms: C_3  and  C_24
REMARK    5  A    between atoms: N_6  and  C_7
REMARK    6  A    between atoms: N_10  and  C_11
REMARK    7  A    between atoms: C_11  and  C_12
REMARK    8  A    between atoms: N_14  and  C_15
REMARK    9  A    between atoms: C_15  and  C_16
REMARK   10  A    between atoms: C_17  and  S_18
REMARK   11  A    between atoms: S_18  and  C_19
REMARK                            x       y       z     vdW  Elec       q    Type
REMARK                         _______ _______ _______ _____ _____    ______ ____
ROOT
ATOM      1  C   UNL     1       1.611   8.961  19.211  0.00  0.00    +0.000 C 
ATOM      2  C   UNL     1       0.661   9.600  18.198  0.00  0.00    +0.000 C 
ATOM      3  C   UNL     1       0.117  10.830  18.909  0.00  0.00    +0.000 C 
ATOM      4  N   UNL     1       0.192  10.488  20.309  0.00  0.00    +0.000 N 
ATOM      5  C   UNL     1       0.980   9.371  20.542  0.00  0.00    +0.000 C 
ATOM      6  O   UNL     1       1.162   8.823  21.620  0.00  0.00    +0.000 OA
ENDROOT
BRANCH   1   9
ATOM      7  C   UNL     1       2.767   7.022  18.236  0.00  0.00    +0.000 C 
ATOM      8  O   UNL     1       3.418   7.755  17.492  0.00  0.00    +0.000 OA
ATOM      9  N   UNL     1       1.776   7.521  19.051  0.00  0.00    +0.000 N 
ATOM     10  H   UNL     1       1.244   6.908  19.658  0.00  0.00    +0.000 HD
BRANCH   7  11
ATOM     11  C   UNL     1       3.115   5.534  18.369  0.00  0.00    +0.000 C 
BRANCH  11  12
ATOM     12  C   UNL     1       4.534   5.179  17.940  0.00  0.00    +0.000 A 
ATOM     13  C   UNL     1       4.751   4.649  16.654  0.00  0.00    +0.000 A 
ATOM     14  C   UNL     1       6.046   4.377  16.200  0.00  0.00    +0.000 A 
ATOM     15 CL   UNL     1       6.282   3.744  14.617  0.00  0.00    +0.000 Cl
ATOM     16  C   UNL     1       7.149   4.629  17.008  0.00  0.00    +0.000 A 
ATOM     17  C   UNL     1       6.946   5.152  18.280  0.00  0.00    +0.000 A 
ATOM     18 CL   UNL     1       8.300   5.506  19.282  0.00  0.00    +0.000 Cl
ATOM     19  C   UNL     1       5.656   5.414  18.751  0.00  0.00    +0.000 A 
ENDBRANCH  11  12
BRANCH  11  21
ATOM     20  C   UNL     1       1.401   3.656  18.685  0.00  0.00    +0.000 C 
ATOM     21  C   UNL     1       1.984   4.696  17.734  0.00  0.00    +0.000 C 
ENDBRANCH  11  21
ENDBRANCH   7  11
ENDBRANCH   1   9
BRANCH   4  22
ATOM     22  C   UNL     1      -0.639  11.121  21.320  0.00  0.00    +0.000 C 
BRANCH  22  23
ATOM     23  C   UNL     1      -0.550  12.652  21.447  0.00  0.00    +0.000 C 
ATOM     24  O   UNL     1       0.367  13.231  22.034  0.00  0.00    +0.000 OA
ATOM     25  N   UNL     1      -1.510  13.402  20.811  0.00  0.00    +0.000 N 
ATOM     26  H   UNL     1      -1.404  14.401  20.914  0.00  0.00    +0.000 HD
BRANCH  25  27
ATOM     27  C   UNL     1      -2.736  12.906  20.210  0.00  0.00    +0.000 C 
BRANCH  27  28
ATOM     28  C   UNL     1      -3.821  12.769  21.238  0.00  0.00    +0.000 C 
ATOM     29  C   UNL     1      -4.041  13.580  22.288  0.00  0.00    +0.000 C 
BRANCH  29  30
ATOM     30  S   UNL     1      -5.326  13.257  23.411  0.00  0.00    +0.000 S 
ATOM     31  C   UNL     1      -4.463  12.471  24.749  0.00  0.00    +0.000 C 
ATOM     32  O   UNL     1      -5.816  14.529  23.903  0.00  0.00    +0.000 OA
ATOM     33  O   UNL     1      -6.241  12.284  22.845  0.00  0.00    +0.000 OA
ENDBRANCH  29  30
ENDBRANCH  27  28
ENDBRANCH  25  27
ENDBRANCH  22  23
ENDBRANCH   4  22
TORSDOF 9
ENDMDL
MODEL 3
REMARK VINA RESULT:      -7.4      3.455      4.458
REMARK  Name = 
REMARK  11 active torsions:
REMARK  status: ('A' for Active; 'I' for Inactive)
REMARK    1  A    between atoms: C_1  and  C_2
REMARK    2  A    between atoms: C_2  and  C_3
REMARK    3  A    between atoms: C_3  and  C_4
REMARK    4  A    between atoms: C_3  and  C_24
REMARK    5  A    between atoms: N_6  and  C_7
REMARK    6  A    between atoms: N_10  and  C_11
REMARK    7  A    between atoms: C_11  and  C_12
REMARK    8  A    between atoms: N_14  and  C_15
REMARK    9  A    between atoms: C_15  and  C_16
REMARK   10  A    between atoms: C_17  and  S_18
REMARK   11  A    between atoms: S_18  and  C_19
REMARK                            x       y       z     vdW  Elec       q    Type
REMARK                         _______ _______ _______ _____ _____    ______ ____
ROOT
ATOM      1  C   UNL     1       1.715   7.299  19.999  0.00  0.00    +0.000 C 
ATOM      2  C   UNL     1       1.482   8.160  21.240  0.00  0.00    +0.000 C 
ATOM      3  C   UNL     1       0.825   9.424  20.710  0.00  0.00    +0.000 C 
ATOM      4  N   UNL     1       1.306   9.528  19.353  0.00  0.00    +0.000 N 
ATOM      5  C   UNL     1       1.900   8.355  18.909  0.00  0.00    +0.000 C 
ATOM      6  O   UNL     1       2.451   8.184  17.831  0.00  0.00    +0.000 OA
ENDROOT
BRANCH   1   9
ATOM      7  C   UNL     1       2.844   5.201  19.386  0.00  0.00    +0.000 C 
ATOM      8  O   UNL     1       1.854   4.826  18.758  0.00  0.00    +0.000 OA
ATOM      9  N   UNL     1       2.832   6.368  20.118  0.00  0.00    +0.000 N 
ATOM     10  H   UNL     1       3.652   6.667  20.633  0.00  0.00    +0.000 HD
BRANCH   7  11
ATOM     11  C   UNL     1       4.171   4.440  19.285  0.00  0.00    +0.000 C 
BRANCH  11  12
ATOM     12  C   UNL     1       5.070   4.894  18.140  0.00  0.00    +0.000 A 
ATOM     13  C   UNL     1       5.898   6.018  18.321  0.00  0.00    +0.000 A 
ATOM     14  C   UNL     1       6.787   6.422  17.318  0.00  0.00    +0.000 A 
ATOM     15 CL   UNL     1       7.800   7.790  17.573  0.00  0.00    +0.000 Cl
ATOM     16  C   UNL     1       6.873   5.720  16.122  0.00  0.00    +0.000 A 
ATOM     17  C   UNL     1       6.058   4.610  15.932  0.00  0.00    +0.000 A 
ATOM     18 CL   UNL     1       6.177   3.705  14.472  0.00  0.00    +0.000 Cl
ATOM     19  C   UNL     1       5.156   4.204  16.920  0.00  0.00    +0.000 A 
ENDBRANCH  11  12
BRANCH  11  21
ATOM     20  C   UNL     1       3.418   2.474  20.743  0.00  0.00    +0.000 C 
ATOM     21  C   UNL     1       3.887   2.924  19.364  0.00  0.00    +0.000 C 
ENDBRANCH  11  21
ENDBRANCH   7  11
ENDBRANCH   1   9
BRANCH   4  22
ATOM     22  C   UNL     1       1.349  10.786  18.625  0.00  0.00    +0.000 C 
BRANCH  22  23
ATOM     23  C   UNL     1       0.685  12.005  19.288  0.00  0.00    +0.000 C 
ATOM     24  O   UNL     1       1.306  12.836  19.955  0.00  0.00    +0.000 OA
ATOM     25  N   UNL     1      -0.656  12.205  19.062  0.00  0.00    +0.000 N 
ATOM     26  H   UNL     1      -1.044  13.022  19.510  0.00  0.00    +0.000 HD
BRANCH  25  27
ATOM     27  C   UNL     1      -1.575  11.266  18.442  0.00  0.00    +0.000 C 
BRANCH  27  28
ATOM     28  C   UNL     1      -2.999  11.702  18.635  0.00  0.00    +0.000 C 
ATOM     29  C   UNL     1      -4.005  11.577  17.751  0.00  0.00    +0.000 C 
BRANCH  29  30
ATOM     30  S   UNL     1      -5.595  12.171  18.121  0.00  0.00    +0.000 S 
ATOM     31  C   UNL     1      -6.459  10.682  18.555  0.00  0.00    +0.000 C 
ATOM     32  O   UNL     1      -5.500  12.979  19.320  0.00  0.00    +0.000 OA
ATOM     33  O   UNL     1      -6.212  12.704  16.921  0.00  0.00    +0.000 OA
ENDBRANCH  29  30
ENDBRANCH  27  28
ENDBRANCH  25  27
ENDBRANCH  22  23
ENDBRANCH   4  22
TORSDOF 9
ENDMDL
MODEL 4
REMARK VINA RESULT:      -7.4      4.312      5.722
REMARK  Name = 
REMARK  11 active torsions:
REMARK  status: ('A' for Active; 'I' for Inactive)
REMARK    1  A    between atoms: C_1  and  C_2
REMARK    2  A    between atoms: C_2  and  C_3
REMARK    3  A    between atoms: C_3  and  C_4
REMARK    4  A    between atoms: C_3  and  C_24
REMARK    5  A    between atoms: N_6  and  C_7
REMARK    6  A    between atoms: N_10  and  C_11
REMARK    7  A    between atoms: C_11  and  C_12
REMARK    8  A    between atoms: N_14  and  C_15
REMARK    9  A    between atoms: C_15  and  C_16
REMARK   10  A    between atoms: C_17  and  S_18
REMARK   11  A    between atoms: S_18  and  C_19
REMARK                            x       y       z     vdW  Elec       q    Type
REMARK                         _______ _______ _______ _____ _____    ______ ____
ROOT
ATOM      1  C   UNL     1       1.709   7.264  19.910  0.00  0.00    +0.000 C 
ATOM      2  C   UNL     1       1.446   8.099  21.163  0.00  0.00    +0.000 C 
ATOM      3  C   UNL     1       0.829   9.387  20.641  0.00  0.00    +0.000 C 
ATOM      4  N   UNL     1       1.360   9.515  19.305  0.00  0.00    +0.000 N 
ATOM      5  C   UNL     1       1.950   8.343  18.854  0.00  0.00    +0.000 C 
ATOM      6  O   UNL     1       2.536   8.188  17.792  0.00  0.00    +0.000 OA
ENDROOT
BRANCH   1   9
ATOM      7  C   UNL     1       2.778   5.120  19.355  0.00  0.00    +0.000 C 
ATOM      8  O   UNL     1       1.770   4.747  18.756  0.00  0.00    +0.000 OA
ATOM      9  N   UNL     1       2.805   6.312  20.045  0.00  0.00    +0.000 N 
ATOM     10  H   UNL     1       3.640   6.609  20.537  0.00  0.00    +0.000 HD
BRANCH   7  11
ATOM     11  C   UNL     1       4.086   4.324  19.262  0.00  0.00    +0.000 C 
BRANCH  11  12
ATOM     12  C   UNL     1       5.030   4.795  18.161  0.00  0.00    +0.000 A 
ATOM     13  C   UNL     1       5.898   5.874  18.416  0.00  0.00    +0.000 A 
ATOM     14  C   UNL     1       6.827   6.288  17.455  0.00  0.00    +0.000 A 
ATOM     15 CL   UNL     1       7.887   7.600  17.800  0.00  0.00    +0.000 Cl
ATOM     16  C   UNL     1       6.915   5.642  16.228  0.00  0.00    +0.000 A 
ATOM     17  C   UNL     1       6.062   4.576  15.965  0.00  0.00    +0.000 A 
ATOM     18 CL   UNL     1       6.181   3.738  14.467  0.00  0.00    +0.000 Cl
ATOM     19  C   UNL     1       5.119   4.161  16.911  0.00  0.00    +0.000 A 
ENDBRANCH  11  12
BRANCH  11  21
ATOM     20  C   UNL     1       4.658   2.012  20.205  0.00  0.00    +0.000 C 
ATOM     21  C   UNL     1       3.756   2.815  19.273  0.00  0.00    +0.000 C 
ENDBRANCH  11  21
ENDBRANCH   7  11
ENDBRANCH   1   9
BRANCH   4  22
ATOM     22  C   UNL     1       1.449  10.789  18.611  0.00  0.00    +0.000 C 
BRANCH  22  23
ATOM     23  C   UNL     1       0.366  11.837  18.921  0.00  0.00    +0.000 C 
ATOM     24  O   UNL     1      -0.779  11.783  18.466  0.00  0.00    +0.000 OA
ATOM     25  N   UNL     1       0.683  12.841  19.805  0.00  0.00    +0.000 N 
ATOM     26  H   UNL     1      -0.062  13.498  19.985  0.00  0.00    +0.000 HD
BRANCH  25  27
ATOM     27  C   UNL     1       2.006  13.155  20.317  0.00  0.00    +0.000 C 
BRANCH  27  28
ATOM     28  C   UNL     1       2.773  13.996  19.340  0.00  0.00    +0.000 C 
ATOM     29  C   UNL     1       3.342  15.191  19.581  0.00  0.00    +0.000 C 
BRANCH  29  30
ATOM     30  S   UNL     1       4.168  16.057  18.321  0.00  0.00    +0.000 S 
ATOM     31  C   UNL     1       5.444  14.913  17.856  0.00  0.00    +0.000 C 
ATOM     32  O   UNL     1       3.262  16.173  17.195  0.00  0.00    +0.000 OA
ATOM     33  O   UNL     1       4.810  17.234  18.873  0.00  0.00    +0.000 OA
ENDBRANCH  29  30
ENDBRANCH  27  28
ENDBRANCH  25  27
ENDBRANCH  22  23
ENDBRANCH   4  22
TORSDOF 9
ENDMDL
MODEL 5
REMARK VINA RESULT:      -7.3      4.260      5.653
REMARK  Name = 
REMARK  11 active torsions:
REMARK  status: ('A' for Active; 'I' for Inactive)
REMARK    1  A    between atoms: C_1  and  C_2
REMARK    2  A    between atoms: C_2  and  C_3
REMARK    3  A    between atoms: C_3  and  C_4
REMARK    4  A    between atoms: C_3  and  C_24
REMARK    5  A    between atoms: N_6  and  C_7
REMARK    6  A    between atoms: N_10  and  C_11
REMARK    7  A    between atoms: C_11  and  C_12
REMARK    8  A    between atoms: N_14  and  C_15
REMARK    9  A    between atoms: C_15  and  C_16
REMARK   10  A    between atoms: C_17  and  S_18
REMARK   11  A    between atoms: S_18  and  C_19
REMARK                            x       y       z     vdW  Elec       q    Type
REMARK                         _______ _______ _______ _____ _____    ______ ____
ROOT
ATOM      1  C   UNL     1       1.720   7.257  19.853  0.00  0.00    +0.000 C 
ATOM      2  C   UNL     1       1.372   8.073  21.097  0.00  0.00    +0.000 C 
ATOM      3  C   UNL     1       0.767   9.358  20.552  0.00  0.00    +0.000 C 
ATOM      4  N   UNL     1       1.374   9.509  19.252  0.00  0.00    +0.000 N 
ATOM      5  C   UNL     1       2.007   8.351  18.823  0.00  0.00    +0.000 C 
ATOM      6  O   UNL     1       2.656   8.216  17.797  0.00  0.00    +0.000 OA
ENDROOT
BRANCH   1   9
ATOM      7  C   UNL     1       2.806   5.095  19.410  0.00  0.00    +0.000 C 
ATOM      8  O   UNL     1       1.805   4.688  18.820  0.00  0.00    +0.000 OA
ATOM      9  N   UNL     1       2.820   6.318  20.042  0.00  0.00    +0.000 N 
ATOM     10  H   UNL     1       3.649   6.644  20.527  0.00  0.00    +0.000 HD
BRANCH   7  11
ATOM     11  C   UNL     1       4.119   4.303  19.365  0.00  0.00    +0.000 C 
BRANCH  11  12
ATOM     12  C   UNL     1       5.107   4.786  18.309  0.00  0.00    +0.000 A 
ATOM     13  C   UNL     1       5.116   4.170  17.043  0.00  0.00    +0.000 A 
ATOM     14  C   UNL     1       5.960   4.632  16.027  0.00  0.00    +0.000 A 
ATOM     15 CL   UNL     1       5.938   3.871  14.484  0.00  0.00    +0.000 Cl
ATOM     16  C   UNL     1       6.807   5.713  16.245  0.00  0.00    +0.000 A 
ATOM     17  C   UNL     1       6.807   6.328  17.492  0.00  0.00    +0.000 A 
ATOM     18 CL   UNL     1       7.821   7.691  17.770  0.00  0.00    +0.000 Cl
ATOM     19  C   UNL     1       5.979   5.866  18.520  0.00  0.00    +0.000 A 
ENDBRANCH  11  12
BRANCH  11  21
ATOM     20  C   UNL     1       4.631   1.992  20.341  0.00  0.00    +0.000 C 
ATOM     21  C   UNL     1       3.794   2.794  19.351  0.00  0.00    +0.000 C 
ENDBRANCH  11  21
ENDBRANCH   7  11
ENDBRANCH   1   9
BRANCH   4  22
ATOM     22  C   UNL     1       1.484  10.792  18.577  0.00  0.00    +0.000 C 
BRANCH  22  23
ATOM     23  C   UNL     1       0.418  11.852  18.902  0.00  0.00    +0.000 C 
ATOM     24  O   UNL     1      -0.712  11.850  18.410  0.00  0.00    +0.000 OA
ATOM     25  N   UNL     1       0.731  12.805  19.841  0.00  0.00    +0.000 N 
ATOM     26  H   UNL     1      -0.003  13.473  20.028  0.00  0.00    +0.000 HD
BRANCH  25  27
ATOM     27  C   UNL     1       2.045  13.060  20.408  0.00  0.00    +0.000 C 
BRANCH  27  28
ATOM     28  C   UNL     1       2.706  14.223  19.728  0.00  0.00    +0.000 C 
ATOM     29  C   UNL     1       2.140  15.069  18.849  0.00  0.00    +0.000 C 
BRANCH  29  30
ATOM     30  S   UNL     1       3.062  16.349  18.121  0.00  0.00    +0.000 S 
ATOM     31  C   UNL     1       4.506  16.403  19.153  0.00  0.00    +0.000 C 
ATOM     32  O   UNL     1       3.487  15.899  16.810  0.00  0.00    +0.000 OA
ATOM     33  O   UNL     1       2.362  17.610  18.276  0.00  0.00    +0.000 OA
ENDBRANCH  29  30
ENDBRANCH  27  28
ENDBRANCH  25  27
ENDBRANCH  22  23
ENDBRANCH   4  22
TORSDOF 9
ENDMDL
MODEL 6
REMARK VINA RESULT:      -7.3      4.848     10.160
REMARK  Name = 
REMARK  11 active torsions:
REMARK  status: ('A' for Active; 'I' for Inactive)
REMARK    1  A    between atoms: C_1  and  C_2
REMARK    2  A    between atoms: C_2  and  C_3
REMARK    3  A    between atoms: C_3  and  C_4
REMARK    4  A    between atoms: C_3  and  C_24
REMARK    5  A    between atoms: N_6  and  C_7
REMARK    6  A    between atoms: N_10  and  C_11
REMARK    7  A    between atoms: C_11  and  C_12
REMARK    8  A    between atoms: N_14  and  C_15
REMARK    9  A    between atoms: C_15  and  C_16
REMARK   10  A    between atoms: C_17  and  S_18
REMARK   11  A    between atoms: S_18  and  C_19
REMARK                            x       y       z     vdW  Elec       q    Type
REMARK                         _______ _______ _______ _____ _____    ______ ____
ROOT
ATOM      1  C   UNL     1       1.194   9.455  20.233  0.00  0.00    +0.000 C 
ATOM      2  C   UNL     1       0.729   8.189  20.950  0.00  0.00    +0.000 C 
ATOM      3  C   UNL     1       1.660   7.099  20.443  0.00  0.00    +0.000 C 
ATOM      4  N   UNL     1       2.059   7.558  19.135  0.00  0.00    +0.000 N 
ATOM      5  C   UNL     1       1.749   8.894  18.923  0.00  0.00    +0.000 C 
ATOM      6  O   UNL     1       1.911   9.521  17.886  0.00  0.00    +0.000 OA
ENDROOT
BRANCH   1   9
ATOM      7  C   UNL     1       0.390  11.775  20.383  0.00  0.00    +0.000 C 
ATOM      8  O   UNL     1       1.404  12.111  20.993  0.00  0.00    +0.000 OA
ATOM      9  N   UNL     1       0.151  10.459  20.053  0.00  0.00    +0.000 N 
ATOM     10  H   UNL     1      -0.688  10.193  19.551  0.00  0.00    +0.000 HD
BRANCH   7  11
ATOM     11  C   UNL     1      -0.597  12.828  19.862  0.00  0.00    +0.000 C 
BRANCH  11  12
ATOM     12  C   UNL     1      -1.787  12.252  19.102  0.00  0.00    +0.000 A 
ATOM     13  C   UNL     1      -3.069  12.318  19.680  0.00  0.00    +0.000 A 
ATOM     14  C   UNL     1      -4.194  11.864  18.982  0.00  0.00    +0.000 A 
ATOM     15 CL   UNL     1      -5.751  11.973  19.706  0.00  0.00    +0.000 Cl
ATOM     16  C   UNL     1      -4.070  11.339  17.701  0.00  0.00    +0.000 A 
ATOM     17  C   UNL     1      -2.808  11.266  17.122  0.00  0.00    +0.000 A 
ATOM     18 CL   UNL     1      -2.638  10.654  15.522  0.00  0.00    +0.000 Cl
ATOM     19  C   UNL     1      -1.674  11.704  17.814  0.00  0.00    +0.000 A 
ENDBRANCH  11  12
BRANCH  11  21
ATOM     20  C   UNL     1       0.307  15.222  19.965  0.00  0.00    +0.000 C 
ATOM     21  C   UNL     1       0.192  13.943  19.143  0.00  0.00    +0.000 C 
ENDBRANCH  11  21
ENDBRANCH   7  11
ENDBRANCH   1   9
BRANCH   4  22
ATOM     22  C   UNL     1       2.534   6.660  18.095  0.00  0.00    +0.000 C 
BRANCH  22  23
ATOM     23  C   UNL     1       2.338   5.152  18.324  0.00  0.00    +0.000 C 
ATOM     24  O   UNL     1       1.349   4.529  17.929  0.00  0.00    +0.000 OA
ATOM     25  N   UNL     1       3.354   4.461  18.940  0.00  0.00    +0.000 N 
ATOM     26  H   UNL     1       3.184   3.473  19.059  0.00  0.00    +0.000 HD
BRANCH  25  27
ATOM     27  C   UNL     1       4.511   5.038  19.604  0.00  0.00    +0.000 C 
BRANCH  27  28
ATOM     28  C   UNL     1       5.701   5.054  18.690  0.00  0.00    +0.000 C 
ATOM     29  C   UNL     1       5.683   5.086  17.345  0.00  0.00    +0.000 C 
BRANCH  29  30
ATOM     30  S   UNL     1       7.161   5.062  16.432  0.00  0.00    +0.000 S 
ATOM     31  C   UNL     1       6.650   4.293  14.915  0.00  0.00    +0.000 C 
ATOM     32  O   UNL     1       7.513   6.434  16.122  0.00  0.00    +0.000 OA
ATOM     33  O   UNL     1       8.120   4.182  17.072  0.00  0.00    +0.000 OA
ENDBRANCH  29  30
ENDBRANCH  27  28
ENDBRANCH  25  27
ENDBRANCH  22  23
ENDBRANCH   4  22
TORSDOF 9
ENDMDL
MODEL 7
REMARK VINA RESULT:      -7.3      2.571      3.739
REMARK  Name = 
REMARK  11 active torsions:
REMARK  status: ('A' for Active; 'I' for Inactive)
REMARK    1  A    between atoms: C_1  and  C_2
REMARK    2  A    between atoms: C_2  and  C_3
REMARK    3  A    between atoms: C_3  and  C_4
REMARK    4  A    between atoms: C_3  and  C_24
REMARK    5  A    between atoms: N_6  and  C_7
REMARK    6  A    between atoms: N_10  and  C_11
REMARK    7  A    between atoms: C_11  and  C_12
REMARK    8  A    between atoms: N_14  and  C_15
REMARK    9  A    between atoms: C_15  and  C_16
REMARK   10  A    between atoms: C_17  and  S_18
REMARK   11  A    between atoms: S_18  and  C_19
REMARK                            x       y       z     vdW  Elec       q    Type
REMARK                         _______ _______ _______ _____ _____    ______ ____
ROOT
ATOM      1  C   UNL     1       1.548   7.340  19.985  0.00  0.00    +0.000 C 
ATOM      2  C   UNL     1       1.092   7.996  21.288  0.00  0.00    +0.000 C 
ATOM      3  C   UNL     1       0.470   9.313  20.854  0.00  0.00    +0.000 C 
ATOM      4  N   UNL     1       1.148   9.634  19.621  0.00  0.00    +0.000 N 
ATOM      5  C   UNL     1       1.852   8.554  19.107  0.00  0.00    +0.000 C 
ATOM      6  O   UNL     1       2.567   8.561  18.116  0.00  0.00    +0.000 OA
ENDROOT
BRANCH   1   9
ATOM      7  C   UNL     1       2.784   5.319  19.323  0.00  0.00    +0.000 C 
ATOM      8  O   UNL     1       1.869   4.977  18.575  0.00  0.00    +0.000 OA
ATOM      9  N   UNL     1       2.672   6.424  20.138  0.00  0.00    +0.000 N 
ATOM     10  H   UNL     1       3.432   6.696  20.752  0.00  0.00    +0.000 HD
BRANCH   7  11
ATOM     11  C   UNL     1       4.135   4.593  19.292  0.00  0.00    +0.000 C 
BRANCH  11  12
ATOM     12  C   UNL     1       5.046   5.012  18.143  0.00  0.00    +0.000 A 
ATOM     13  C   UNL     1       5.902   6.116  18.313  0.00  0.00    +0.000 A 
ATOM     14  C   UNL     1       6.802   6.487  17.307  0.00  0.00    +0.000 A 
ATOM     15 CL   UNL     1       7.849   7.832  17.548  0.00  0.00    +0.000 Cl
ATOM     16  C   UNL     1       6.873   5.770  16.119  0.00  0.00    +0.000 A 
ATOM     17  C   UNL     1       6.031   4.678  15.940  0.00  0.00    +0.000 A 
ATOM     18 CL   UNL     1       6.129   3.754  14.491  0.00  0.00    +0.000 Cl
ATOM     19  C   UNL     1       5.117   4.306  16.931  0.00  0.00    +0.000 A 
ENDBRANCH  11  12
BRANCH  11  21
ATOM     20  C   UNL     1       3.185   2.713  20.748  0.00  0.00    +0.000 C 
ATOM     21  C   UNL     1       3.893   3.076  19.447  0.00  0.00    +0.000 C 
ENDBRANCH  11  21
ENDBRANCH   7  11
ENDBRANCH   1   9
BRANCH   4  22
ATOM     22  C   UNL     1       1.246  10.988  19.104  0.00  0.00    +0.000 C 
BRANCH  22  23
ATOM     23  C   UNL     1       1.057  12.140  20.107  0.00  0.00    +0.000 C 
ATOM     24  O   UNL     1       1.933  12.501  20.897  0.00  0.00    +0.000 OA
ATOM     25  N   UNL     1      -0.126  12.838  20.063  0.00  0.00    +0.000 N 
ATOM     26  H   UNL     1      -0.199  13.590  20.733  0.00  0.00    +0.000 HD
BRANCH  25  27
ATOM     27  C   UNL     1      -1.318  12.470  19.318  0.00  0.00    +0.000 C 
BRANCH  27  28
ATOM     28  C   UNL     1      -2.514  12.397  20.222  0.00  0.00    +0.000 C 
ATOM     29  C   UNL     1      -3.235  13.434  20.685  0.00  0.00    +0.000 C 
BRANCH  29  30
ATOM     30  S   UNL     1      -4.577  13.177  21.760  0.00  0.00    +0.000 S 
ATOM     31  C   UNL     1      -5.720  12.296  20.726  0.00  0.00    +0.000 C 
ATOM     32  O   UNL     1      -4.144  12.264  22.799  0.00  0.00    +0.000 OA
ATOM     33  O   UNL     1      -5.182  14.450  22.103  0.00  0.00    +0.000 OA
ENDBRANCH  29  30
ENDBRANCH  27  28
ENDBRANCH  25  27
ENDBRANCH  22  23
ENDBRANCH   4  22
TORSDOF 9
ENDMDL
MODEL 8
REMARK VINA RESULT:      -7.3      3.253      4.424
REMARK  Name = 
REMARK  11 active torsions:
REMARK  status: ('A' for Active; 'I' for Inactive)
REMARK    1  A    between atoms: C_1  and  C_2
REMARK    2  A    between atoms: C_2  and  C_3
REMARK    3  A    between atoms: C_3  and  C_4
REMARK    4  A    between atoms: C_3  and  C_24
REMARK    5  A    between atoms: N_6  and  C_7
REMARK    6  A    between atoms: N_10  and  C_11
REMARK    7  A    between atoms: C_11  and  C_12
REMARK    8  A    between atoms: N_14  and  C_15
REMARK    9  A    between atoms: C_15  and  C_16
REMARK   10  A    between atoms: C_17  and  S_18
REMARK   11  A    between atoms: S_18  and  C_19
REMARK                            x       y       z     vdW  Elec       q    Type
REMARK                         _______ _______ _______ _____ _____    ______ ____
ROOT
ATOM      1  C   UNL     1       1.812   7.180  19.759  0.00  0.00    +0.000 C 
ATOM      2  C   UNL     1       1.468   7.924  21.048  0.00  0.00    +0.000 C 
ATOM      3  C   UNL     1       0.757   9.185  20.582  0.00  0.00    +0.000 C 
ATOM      4  N   UNL     1       1.293   9.424  19.264  0.00  0.00    +0.000 N 
ATOM      5  C   UNL     1       1.980   8.328  18.763  0.00  0.00    +0.000 C 
ATOM      6  O   UNL     1       2.589   8.275  17.705  0.00  0.00    +0.000 OA
ENDROOT
BRANCH   1   9
ATOM      7  C   UNL     1       2.899   4.992  19.475  0.00  0.00    +0.000 C 
ATOM      8  O   UNL     1       1.820   4.467  19.201  0.00  0.00    +0.000 OA
ATOM      9  N   UNL     1       2.979   6.311  19.863  0.00  0.00    +0.000 N 
ATOM     10  H   UNL     1       3.873   6.734  20.088  0.00  0.00    +0.000 HD
BRANCH   7  11
ATOM     11  C   UNL     1       4.215   4.227  19.282  0.00  0.00    +0.000 C 
BRANCH  11  12
ATOM     12  C   UNL     1       5.102   4.776  18.169  0.00  0.00    +0.000 A 
ATOM     13  C   UNL     1       4.959   4.269  16.864  0.00  0.00    +0.000 A 
ATOM     14  C   UNL     1       5.706   4.797  15.804  0.00  0.00    +0.000 A 
ATOM     15 CL   UNL     1       5.498   4.170  14.215  0.00  0.00    +0.000 Cl
ATOM     16  C   UNL     1       6.604   5.836  16.018  0.00  0.00    +0.000 A 
ATOM     17  C   UNL     1       6.755   6.342  17.304  0.00  0.00    +0.000 A 
ATOM     18 CL   UNL     1       7.834   7.654  17.582  0.00  0.00    +0.000 Cl
ATOM     19  C   UNL     1       6.025   5.814  18.374  0.00  0.00    +0.000 A 
ENDBRANCH  11  12
BRANCH  11  21
ATOM     20  C   UNL     1       4.557   1.932  20.365  0.00  0.00    +0.000 C 
ATOM     21  C   UNL     1       3.912   2.714  19.225  0.00  0.00    +0.000 C 
ENDBRANCH  11  21
ENDBRANCH   7  11
ENDBRANCH   1   9
BRANCH   4  22
ATOM     22  C   UNL     1       1.289  10.736  18.637  0.00  0.00    +0.000 C 
BRANCH  22  23
ATOM     23  C   UNL     1       0.431  11.829  19.298  0.00  0.00    +0.000 C 
ATOM     24  O   UNL     1       0.871  12.624  20.131  0.00  0.00    +0.000 OA
ATOM     25  N   UNL     1      -0.871  11.960  18.879  0.00  0.00    +0.000 N 
ATOM     26  H   UNL     1      -1.391  12.696  19.334  0.00  0.00    +0.000 HD
BRANCH  25  27
ATOM     27  C   UNL     1      -1.603  11.032  18.033  0.00  0.00    +0.000 C 
BRANCH  27  28
ATOM     28  C   UNL     1      -3.072  11.341  18.042  0.00  0.00    +0.000 C 
ATOM     29  C   UNL     1      -3.753  11.981  19.010  0.00  0.00    +0.000 C 
BRANCH  29  30
ATOM     30  S   UNL     1      -5.468  12.225  18.881  0.00  0.00    +0.000 S 
ATOM     31  C   UNL     1      -5.703  12.304  17.123  0.00  0.00    +0.000 C 
ATOM     32  O   UNL     1      -6.125  11.021  19.350  0.00  0.00    +0.000 OA
ATOM     33  O   UNL     1      -5.823  13.519  19.432  0.00  0.00    +0.000 OA
ENDBRANCH  29  30
ENDBRANCH  27  28
ENDBRANCH  25  27
ENDBRANCH  22  23
ENDBRANCH   4  22
TORSDOF 9
ENDMDL
MODEL 9
REMARK VINA RESULT:      -7.2      2.430      3.399
REMARK  Name = 
REMARK  11 active torsions:
REMARK  status: ('A' for Active; 'I' for Inactive)
REMARK    1  A    between atoms: C_1  and  C_2
REMARK    2  A    between atoms: C_2  and  C_3
REMARK    3  A    between atoms: C_3  and  C_4
REMARK    4  A    between atoms: C_3  and  C_24
REMARK    5  A    between atoms: N_6  and  C_7
REMARK    6  A    between atoms: N_10  and  C_11
REMARK    7  A    between atoms: C_11  and  C_12
REMARK    8  A    between atoms: N_14  and  C_15
REMARK    9  A    between atoms: C_15  and  C_16
REMARK   10  A    between atoms: C_17  and  S_18
REMARK   11  A    between atoms: S_18  and  C_19
REMARK                            x       y       z     vdW  Elec       q    Type
REMARK                         _______ _______ _______ _____ _____    ______ ____
ROOT
ATOM      1  C   UNL     1       1.594   8.991  19.503  0.00  0.00    +0.000 C 
ATOM      2  C   UNL     1       0.689   9.656  18.466  0.00  0.00    +0.000 C 
ATOM      3  C   UNL     1       0.103  10.859  19.188  0.00  0.00    +0.000 C 
ATOM      4  N   UNL     1       0.112  10.473  20.579  0.00  0.00    +0.000 N 
ATOM      5  C   UNL     1       0.896   9.353  20.814  0.00  0.00    +0.000 C 
ATOM      6  O   UNL     1       1.029   8.772  21.881  0.00  0.00    +0.000 OA
ENDROOT
BRANCH   1   9
ATOM      7  C   UNL     1       2.662   7.094  18.358  0.00  0.00    +0.000 C 
ATOM      8  O   UNL     1       3.185   7.852  17.542  0.00  0.00    +0.000 OA
ATOM      9  N   UNL     1       1.776   7.557  19.305  0.00  0.00    +0.000 N 
ATOM     10  H   UNL     1       1.349   6.923  19.972  0.00  0.00    +0.000 HD
BRANCH   7  11
ATOM     11  C   UNL     1       3.066   5.616  18.425  0.00  0.00    +0.000 C 
BRANCH  11  12
ATOM     12  C   UNL     1       4.471   5.325  17.909  0.00  0.00    +0.000 A 
ATOM     13  C   UNL     1       5.574   5.555  18.752  0.00  0.00    +0.000 A 
ATOM     14  C   UNL     1       6.872   5.234  18.338  0.00  0.00    +0.000 A 
ATOM     15 CL   UNL     1       8.200   5.511  19.396  0.00  0.00    +0.000 Cl
ATOM     16  C   UNL     1       7.100   4.677  17.085  0.00  0.00    +0.000 A 
ATOM     17  C   UNL     1       6.017   4.447  16.244  0.00  0.00    +0.000 A 
ATOM     18 CL   UNL     1       6.274   3.724  14.703  0.00  0.00    +0.000 Cl
ATOM     19  C   UNL     1       4.717   4.777  16.640  0.00  0.00    +0.000 A 
ENDBRANCH  11  12
BRANCH  11  21
ATOM     20  C   UNL     1       1.791   3.396  18.497  0.00  0.00    +0.000 C 
ATOM     21  C   UNL     1       1.931   4.757  17.826  0.00  0.00    +0.000 C 
ENDBRANCH  11  21
ENDBRANCH   7  11
ENDBRANCH   1   9
BRANCH   4  22
ATOM     22  C   UNL     1      -0.771  11.069  21.568  0.00  0.00    +0.000 C 
BRANCH  22  23
ATOM     23  C   UNL     1      -0.748  12.601  21.701  0.00  0.00    +0.000 C 
ATOM     24  O   UNL     1       0.149  13.217  22.282  0.00  0.00    +0.000 OA
ATOM     25  N   UNL     1      -1.745  13.312  21.077  0.00  0.00    +0.000 N 
ATOM     26  H   UNL     1      -1.682  14.314  21.184  0.00  0.00    +0.000 HD
BRANCH  25  27
ATOM     27  C   UNL     1      -2.954  12.765  20.485  0.00  0.00    +0.000 C 
BRANCH  27  28
ATOM     28  C   UNL     1      -4.128  12.939  21.404  0.00  0.00    +0.000 C 
ATOM     29  C   UNL     1      -5.381  12.495  21.200  0.00  0.00    +0.000 C 
BRANCH  29  30
ATOM     30  S   UNL     1      -6.640  12.816  22.354  0.00  0.00    +0.000 S 
ATOM     31  C   UNL     1      -5.715  13.155  23.832  0.00  0.00    +0.000 C 
ATOM     32  O   UNL     1      -7.296  14.048  21.964  0.00  0.00    +0.000 OA
ATOM     33  O   UNL     1      -7.414  11.611  22.585  0.00  0.00    +0.000 OA
ENDBRANCH  29  30
ENDBRANCH  27  28
ENDBRANCH  25  27
ENDBRANCH  22  23
ENDBRANCH   4  22
TORSDOF 9
ENDMDL
