MODEL 1
REMARK VINA RESULT:      -9.1      0.000      0.000
REMARK  Name = 
REMARK  4 active torsions:
REMARK  status: ('A' for Active; 'I' for Inactive)
REMARK    1  A    between atoms: C_1  and  N_2
REMARK    2  A    between atoms: C_3  and  C_4
REMARK    3  A    between atoms: C_10  and  C_11
REMARK    4  A    between atoms: C_18  and  C_19
REMARK                            x       y       z     vdW  Elec       q    Type
REMARK                         _______ _______ _______ _____ _____    ______ ____
ROOT
ATOM      1  C   UNL     1       4.616   3.209  17.447  0.00  0.00    +0.000 C 
ATOM      2  N   UNL     1       4.232   4.604  17.472  0.00  0.00    +0.000 N 
ATOM      3  C   UNL     1       4.795   5.611  16.710  0.00  0.00    +0.000 A 
ATOM      4  N   UNL     1       4.273   6.780  17.033  0.00  0.00    +0.000 NA
ATOM      5  C   UNL     1       3.309   6.522  17.982  0.00  0.00    +0.000 A 
ATOM      6  C   UNL     1       3.265   5.164  18.307  0.00  0.00    +0.000 A 
ENDROOT
BRANCH   5   7
ATOM      7  C   UNL     1       2.500   7.598  18.551  0.00  0.00    +0.000 A 
ATOM      8  C   UNL     1       2.033   8.663  17.765  0.00  0.00    +0.000 A 
ATOM      9  C   UNL     1       1.149   9.607  18.292  0.00  0.00    +0.000 A 
ATOM     10  C   UNL     1       0.781   9.527  19.629  0.00  0.00    +0.000 A 
ATOM     11  F   UNL     1      -0.078  10.422  20.131  0.00  0.00    +0.000 F 
ATOM     12  C   UNL     1       1.289   8.528  20.449  0.00  0.00    +0.000 A 
ATOM     13  C   UNL     1       2.143   7.564  19.911  0.00  0.00    +0.000 A 
ENDBRANCH   5   7
BRANCH   3  14
ATOM     14  C   UNL     1       5.860   5.452  15.668  0.00  0.00    +0.000 A 
ATOM     15  C   UNL     1       5.692   4.837  14.446  0.00  0.00    +0.000 A 
ATOM     16  N   UNL     1       6.917   4.936  13.860  0.00  0.00    +0.000 N 
ATOM     17  N   UNL     1       7.797   5.552  14.662  0.00  0.00    +0.000 NA
ATOM     18  N   UNL     1       7.156   5.866  15.778  0.00  0.00    +0.000 NA
ATOM     19  H   UNL     1       7.227   4.624  12.947  0.00  0.00    +0.000 HD
ENDBRANCH   3  14
BRANCH   6  20
ATOM     20  C   UNL     1       2.471   4.421  19.310  0.00  0.00    +0.000 A 
ATOM     21  C   UNL     1       2.885   4.304  20.641  0.00  0.00    +0.000 A 
ATOM     22  C   UNL     1       2.113   3.568  21.527  0.00  0.00    +0.000 A 
ATOM     23  N   UNL     1       0.995   2.903  21.177  0.00  0.00    +0.000 NA
ATOM     24  C   UNL     1       0.620   2.999  19.886  0.00  0.00    +0.000 A 
ATOM     25  C   UNL     1       1.292   3.762  18.943  0.00  0.00    +0.000 A 
ENDBRANCH   6  20
TORSDOF 3
ENDMDL
MODEL 2
REMARK VINA RESULT:      -9.0      0.176      1.384
REMARK  Name = 
REMARK  4 active torsions:
REMARK  status: ('A' for Active; 'I' for Inactive)
REMARK    1  A    between atoms: C_1  and  N_2
REMARK    2  A    between atoms: C_3  and  C_4
REMARK    3  A    between atoms: C_10  and  C_11
REMARK    4  A    between atoms: C_18  and  C_19
REMARK                            x       y       z     vdW  Elec       q    Type
REMARK                         _______ _______ _______ _____ _____    ______ ____
ROOT
ATOM      1  C   UNL     1       4.725   3.097  17.429  0.00  0.00    +0.000 C 
ATOM      2  N   UNL     1       4.293   4.477  17.463  0.00  0.00    +0.000 N 
ATOM      3  C   UNL     1       4.819   5.508  16.707  0.00  0.00    +0.000 A 
ATOM      4  N   UNL     1       4.257   6.655  17.039  0.00  0.00    +0.000 NA
ATOM      5  C   UNL     1       3.304   6.358  17.987  0.00  0.00    +0.000 A 
ATOM      6  C   UNL     1       3.308   4.998  18.304  0.00  0.00    +0.000 A 
ENDROOT
BRANCH   5   7
ATOM      7  C   UNL     1       2.458   7.402  18.564  0.00  0.00    +0.000 A 
ATOM      8  C   UNL     1       2.086   7.383  19.917  0.00  0.00    +0.000 A 
ATOM      9  C   UNL     1       1.394   8.457  20.482  0.00  0.00    +0.000 A 
ATOM     10  C   UNL     1       1.014   9.524  19.679  0.00  0.00    +0.000 A 
ATOM     11  F   UNL     1       0.365  10.560  20.224  0.00  0.00    +0.000 F 
ATOM     12  C   UNL     1       1.302   9.532  18.322  0.00  0.00    +0.000 A 
ATOM     13  C   UNL     1       2.026   8.475  17.765  0.00  0.00    +0.000 A 
ENDBRANCH   5   7
BRANCH   3  14
ATOM     14  C   UNL     1       5.887   5.392  15.663  0.00  0.00    +0.000 A 
ATOM     15  C   UNL     1       5.731   4.802  14.428  0.00  0.00    +0.000 A 
ATOM     16  N   UNL     1       6.955   4.937  13.845  0.00  0.00    +0.000 N 
ATOM     17  N   UNL     1       7.822   5.553  14.661  0.00  0.00    +0.000 NA
ATOM     18  N   UNL     1       7.174   5.829  15.783  0.00  0.00    +0.000 NA
ATOM     19  H   UNL     1       7.271   4.652  12.925  0.00  0.00    +0.000 HD
ENDBRANCH   3  14
BRANCH   6  20
ATOM     20  C   UNL     1       2.542   4.221  19.303  0.00  0.00    +0.000 A 
ATOM     21  C   UNL     1       1.337   3.589  18.981  0.00  0.00    +0.000 A 
ATOM     22  C   UNL     1       0.648   2.902  19.969  0.00  0.00    +0.000 A 
ATOM     23  N   UNL     1       1.042   2.841  21.255  0.00  0.00    +0.000 NA
ATOM     24  C   UNL     1       2.190   3.476  21.562  0.00  0.00    +0.000 A 
ATOM     25  C   UNL     1       2.978   4.135  20.631  0.00  0.00    +0.000 A 
ENDBRANCH   6  20
TORSDOF 3
ENDMDL
MODEL 3
REMARK VINA RESULT:      -8.0      2.164      4.427
REMARK  Name = 
REMARK  4 active torsions:
REMARK  status: ('A' for Active; 'I' for Inactive)
REMARK    1  A    between atoms: C_1  and  N_2
REMARK    2  A    between atoms: C_3  and  C_4
REMARK    3  A    between atoms: C_10  and  C_11
REMARK    4  A    between atoms: C_18  and  C_19
REMARK                            x       y       z     vdW  Elec       q    Type
REMARK                         _______ _______ _______ _____ _____    ______ ____
ROOT
ATOM      1  C   UNL     1       4.504   7.691  16.348  0.00  0.00    +0.000 C 
ATOM      2  N   UNL     1       4.273   6.425  17.009  0.00  0.00    +0.000 N 
ATOM      3  C   UNL     1       4.851   5.217  16.665  0.00  0.00    +0.000 A 
ATOM      4  N   UNL     1       4.364   4.244  17.415  0.00  0.00    +0.000 NA
ATOM      5  C   UNL     1       3.498   4.839  18.304  0.00  0.00    +0.000 A 
ATOM      6  C   UNL     1       3.390   6.212  18.068  0.00  0.00    +0.000 A 
ENDROOT
BRANCH   5   7
ATOM      7  C   UNL     1       2.792   4.054  19.315  0.00  0.00    +0.000 A 
ATOM      8  C   UNL     1       3.457   3.527  20.433  0.00  0.00    +0.000 A 
ATOM      9  C   UNL     1       2.745   2.897  21.456  0.00  0.00    +0.000 A 
ATOM     10  C   UNL     1       1.371   2.735  21.333  0.00  0.00    +0.000 A 
ATOM     11  F   UNL     1       0.685   2.146  22.321  0.00  0.00    +0.000 F 
ATOM     12  C   UNL     1       0.699   3.179  20.202  0.00  0.00    +0.000 A 
ATOM     13  C   UNL     1       1.407   3.840  19.196  0.00  0.00    +0.000 A 
ENDBRANCH   5   7
BRANCH   3  14
ATOM     14  C   UNL     1       5.871   4.989  15.592  0.00  0.00    +0.000 A 
ATOM     15  C   UNL     1       5.684   4.212  14.469  0.00  0.00    +0.000 A 
ATOM     16  N   UNL     1       6.869   4.309  13.805  0.00  0.00    +0.000 N 
ATOM     17  N   UNL     1       7.743   5.078  14.470  0.00  0.00    +0.000 NA
ATOM     18  N   UNL     1       7.139   5.494  15.572  0.00  0.00    +0.000 NA
ATOM     19  H   UNL     1       7.154   3.900  12.922  0.00  0.00    +0.000 HD
ENDBRANCH   3  14
BRANCH   6  20
ATOM     20  C   UNL     1       2.541   7.251  18.692  0.00  0.00    +0.000 A 
ATOM     21  C   UNL     1       2.048   8.338  17.963  0.00  0.00    +0.000 A 
ATOM     22  C   UNL     1       1.284   9.296  18.611  0.00  0.00    +0.000 A 
ATOM     23  N   UNL     1       1.018   9.278  19.931  0.00  0.00    +0.000 NA
ATOM     24  C   UNL     1       1.521   8.241  20.630  0.00  0.00    +0.000 A 
ATOM     25  C   UNL     1       2.243   7.205  20.059  0.00  0.00    +0.000 A 
ENDBRANCH   6  20
TORSDOF 3
ENDMDL
MODEL 4
REMARK VINA RESULT:      -7.7      4.038      7.201
REMARK  Name = 
REMARK  4 active torsions:
REMARK  status: ('A' for Active; 'I' for Inactive)
REMARK    1  A    between atoms: C_1  and  N_2
REMARK    2  A    between atoms: C_3  and  C_4
REMARK    3  A    between atoms: C_10  and  C_11
REMARK    4  A    between atoms: C_18  and  C_19
REMARK                            x       y       z     vdW  Elec       q    Type
REMARK                         _______ _______ _______ _____ _____    ______ ____
ROOT
ATOM      1  C   UNL     1       4.099   5.109  19.551  0.00  0.00    +0.000 C 
ATOM      2  N   UNL     1       4.277   4.636  18.195  0.00  0.00    +0.000 N 
ATOM      3  C   UNL     1       3.516   3.665  17.571  0.00  0.00    +0.000 A 
ATOM      4  N   UNL     1       3.993   3.410  16.367  0.00  0.00    +0.000 NA
ATOM      5  C   UNL     1       5.049   4.273  16.179  0.00  0.00    +0.000 A 
ATOM      6  C   UNL     1       5.280   5.049  17.317  0.00  0.00    +0.000 A 
ENDROOT
BRANCH   5   7
ATOM      7  C   UNL     1       5.802   4.287  14.926  0.00  0.00    +0.000 A 
ATOM      8  C   UNL     1       5.339   3.621  13.781  0.00  0.00    +0.000 A 
ATOM      9  C   UNL     1       6.000   3.758  12.558  0.00  0.00    +0.000 A 
ATOM     10  C   UNL     1       7.165   4.509  12.492  0.00  0.00    +0.000 A 
ATOM     11  F   UNL     1       7.790   4.654  11.317  0.00  0.00    +0.000 F 
ATOM     12  C   UNL     1       7.688   5.116  13.626  0.00  0.00    +0.000 A 
ATOM     13  C   UNL     1       7.007   5.008  14.840  0.00  0.00    +0.000 A 
ENDBRANCH   5   7
BRANCH   3  14
ATOM     14  C   UNL     1       2.325   2.961  18.145  0.00  0.00    +0.000 A 
ATOM     15  C   UNL     1       2.370   1.813  18.906  0.00  0.00    +0.000 A 
ATOM     16  N   UNL     1       1.063   1.558  19.191  0.00  0.00    +0.000 N 
ATOM     17  N   UNL     1       0.253   2.470  18.634  0.00  0.00    +0.000 NA
ATOM     18  N   UNL     1       1.022   3.331  17.985  0.00  0.00    +0.000 NA
ATOM     19  H   UNL     1       0.652   0.812  19.740  0.00  0.00    +0.000 HD
ENDBRANCH   3  14
BRANCH   6  20
ATOM     20  C   UNL     1       6.330   6.043  17.630  0.00  0.00    +0.000 A 
ATOM     21  C   UNL     1       7.374   5.761  18.517  0.00  0.00    +0.000 A 
ATOM     22  C   UNL     1       8.311   6.744  18.794  0.00  0.00    +0.000 A 
ATOM     23  N   UNL     1       8.258   7.994  18.296  0.00  0.00    +0.000 NA
ATOM     24  C   UNL     1       7.233   8.265  17.463  0.00  0.00    +0.000 A 
ATOM     25  C   UNL     1       6.285   7.329  17.080  0.00  0.00    +0.000 A 
ENDBRANCH   6  20
TORSDOF 3
ENDMDL
MODEL 5
REMARK VINA RESULT:      -7.5      2.146      4.341
REMARK  Name = 
REMARK  4 active torsions:
REMARK  status: ('A' for Active; 'I' for Inactive)
REMARK    1  A    between atoms: C_1  and  N_2
REMARK    2  A    between atoms: C_3  and  C_4
REMARK    3  A    between atoms: C_10  and  C_11
REMARK    4  A    between atoms: C_18  and  C_19
REMARK                            x       y       z     vdW  Elec       q    Type
REMARK                         _______ _______ _______ _____ _____    ______ ____
ROOT
ATOM      1  C   UNL     1       4.483   7.831  16.366  0.00  0.00    +0.000 C 
ATOM      2  N   UNL     1       4.198   6.606  17.082  0.00  0.00    +0.000 N 
ATOM      3  C   UNL     1       4.752   5.368  16.819  0.00  0.00    +0.000 A 
ATOM      4  N   UNL     1       4.217   4.448  17.600  0.00  0.00    +0.000 NA
ATOM      5  C   UNL     1       3.339   5.110  18.429  0.00  0.00    +0.000 A 
ATOM      6  C   UNL     1       3.276   6.471  18.121  0.00  0.00    +0.000 A 
ENDROOT
BRANCH   5   7
ATOM      7  C   UNL     1       2.582   4.396  19.455  0.00  0.00    +0.000 A 
ATOM      8  C   UNL     1       1.360   3.770  19.166  0.00  0.00    +0.000 A 
ATOM      9  C   UNL     1       0.718   2.978  20.122  0.00  0.00    +0.000 A 
ATOM     10  C   UNL     1       1.266   2.864  21.393  0.00  0.00    +0.000 A 
ATOM     11  F   UNL     1       0.660   2.092  22.304  0.00  0.00    +0.000 F 
ATOM     12  C   UNL     1       2.434   3.534  21.729  0.00  0.00    +0.000 A 
ATOM     13  C   UNL     1       3.093   4.296  20.762  0.00  0.00    +0.000 A 
ENDBRANCH   5   7
BRANCH   3  14
ATOM     14  C   UNL     1       5.799   5.060  15.792  0.00  0.00    +0.000 A 
ATOM     15  C   UNL     1       5.663   4.150  14.766  0.00  0.00    +0.000 A 
ATOM     16  N   UNL     1       6.854   4.218  14.109  0.00  0.00    +0.000 N 
ATOM     17  N   UNL     1       7.685   5.095  14.691  0.00  0.00    +0.000 NA
ATOM     18  N   UNL     1       7.046   5.610  15.729  0.00  0.00    +0.000 NA
ATOM     19  H   UNL     1       7.170   3.722  13.284  0.00  0.00    +0.000 HD
ENDBRANCH   3  14
BRANCH   6  20
ATOM     20  C   UNL     1       2.437   7.561  18.663  0.00  0.00    +0.000 A 
ATOM     21  C   UNL     1       2.080   7.617  20.014  0.00  0.00    +0.000 A 
ATOM     22  C   UNL     1       1.264   8.646  20.457  0.00  0.00    +0.000 A 
ATOM     23  N   UNL     1       0.741   9.590  19.651  0.00  0.00    +0.000 NA
ATOM     24  C   UNL     1       1.068   9.512  18.346  0.00  0.00    +0.000 A 
ATOM     25  C   UNL     1       1.925   8.556  17.823  0.00  0.00    +0.000 A 
ENDBRANCH   6  20
TORSDOF 3
ENDMDL
MODEL 6
REMARK VINA RESULT:      -7.5      4.043      7.242
REMARK  Name = 
REMARK  4 active torsions:
REMARK  status: ('A' for Active; 'I' for Inactive)
REMARK    1  A    between atoms: C_1  and  N_2
REMARK    2  A    between atoms: C_3  and  C_4
REMARK    3  A    between atoms: C_10  and  C_11
REMARK    4  A    between atoms: C_18  and  C_19
REMARK                            x       y       z     vdW  Elec       q    Type
REMARK                         _______ _______ _______ _____ _____    ______ ____
ROOT
ATOM      1  C   UNL     1       4.037   5.091  19.631  0.00  0.00    +0.000 C 
ATOM      2  N   UNL     1       4.199   4.656  18.260  0.00  0.00    +0.000 N 
ATOM      3  C   UNL     1       3.443   3.690  17.624  0.00  0.00    +0.000 A 
ATOM      4  N   UNL     1       3.902   3.474  16.405  0.00  0.00    +0.000 NA
ATOM      5  C   UNL     1       4.941   4.359  16.222  0.00  0.00    +0.000 A 
ATOM      6  C   UNL     1       5.179   5.109  17.377  0.00  0.00    +0.000 A 
ENDROOT
BRANCH   5   7
ATOM      7  C   UNL     1       5.671   4.419  14.958  0.00  0.00    +0.000 A 
ATOM      8  C   UNL     1       6.922   5.048  14.859  0.00  0.00    +0.000 A 
ATOM      9  C   UNL     1       7.667   4.977  13.680  0.00  0.00    +0.000 A 
ATOM     10  C   UNL     1       7.134   4.330  12.573  0.00  0.00    +0.000 A 
ATOM     11  F   UNL     1       7.854   4.247  11.448  0.00  0.00    +0.000 F 
ATOM     12  C   UNL     1       5.867   3.765  12.619  0.00  0.00    +0.000 A 
ATOM     13  C   UNL     1       5.138   3.806  13.810  0.00  0.00    +0.000 A 
ENDBRANCH   5   7
BRANCH   3  14
ATOM     14  C   UNL     1       2.273   2.951  18.199  0.00  0.00    +0.000 A 
ATOM     15  C   UNL     1       2.353   1.805  18.960  0.00  0.00    +0.000 A 
ATOM     16  N   UNL     1       1.053   1.512  19.246  0.00  0.00    +0.000 N 
ATOM     17  N   UNL     1       0.217   2.400  18.691  0.00  0.00    +0.000 NA
ATOM     18  N   UNL     1       0.959   3.283  18.040  0.00  0.00    +0.000 NA
ATOM     19  H   UNL     1       0.664   0.755  19.796  0.00  0.00    +0.000 HD
ENDBRANCH   3  14
BRANCH   6  20
ATOM     20  C   UNL     1       6.219   6.111  17.697  0.00  0.00    +0.000 A 
ATOM     21  C   UNL     1       6.216   7.388  17.126  0.00  0.00    +0.000 A 
ATOM     22  C   UNL     1       7.235   8.273  17.441  0.00  0.00    +0.000 A 
ATOM     23  N   UNL     1       8.276   7.966  18.238  0.00  0.00    +0.000 NA
ATOM     24  C   UNL     1       8.285   6.725  18.762  0.00  0.00    +0.000 A 
ATOM     25  C   UNL     1       7.279   5.794  18.554  0.00  0.00    +0.000 A 
ENDBRANCH   6  20
TORSDOF 3
ENDMDL
MODEL 7
REMARK VINA RESULT:      -7.4      0.798      1.425
REMARK  Name = 
REMARK  4 active torsions:
REMARK  status: ('A' for Active; 'I' for Inactive)
REMARK    1  A    between atoms: C_1  and  N_2
REMARK    2  A    between atoms: C_3  and  C_4
REMARK    3  A    between atoms: C_10  and  C_11
REMARK    4  A    between atoms: C_18  and  C_19
REMARK                            x       y       z     vdW  Elec       q    Type
REMARK                         _______ _______ _______ _____ _____    ______ ____
ROOT
ATOM      1  C   UNL     1       4.944   3.610  18.137  0.00  0.00    +0.000 C 
ATOM      2  N   UNL     1       4.388   4.946  18.114  0.00  0.00    +0.000 N 
ATOM      3  C   UNL     1       4.898   6.022  17.411  0.00  0.00    +0.000 A 
ATOM      4  N   UNL     1       4.202   7.113  17.671  0.00  0.00    +0.000 NA
ATOM      5  C   UNL     1       3.183   6.729  18.513  0.00  0.00    +0.000 A 
ATOM      6  C   UNL     1       3.276   5.374  18.839  0.00  0.00    +0.000 A 
ENDROOT
BRANCH   5   7
ATOM      7  C   UNL     1       2.190   7.690  18.987  0.00  0.00    +0.000 A 
ATOM      8  C   UNL     1       1.872   7.810  20.348  0.00  0.00    +0.000 A 
ATOM      9  C   UNL     1       1.024   8.825  20.798  0.00  0.00    +0.000 A 
ATOM     10  C   UNL     1       0.438   9.683  19.877  0.00  0.00    +0.000 A 
ATOM     11  F   UNL     1      -0.363  10.666  20.309  0.00  0.00    +0.000 F 
ATOM     12  C   UNL     1       0.674   9.539  18.517  0.00  0.00    +0.000 A 
ATOM     13  C   UNL     1       1.550   8.547  18.072  0.00  0.00    +0.000 A 
ENDBRANCH   5   7
BRANCH   3  14
ATOM     14  C   UNL     1       6.080   6.005  16.490  0.00  0.00    +0.000 A 
ATOM     15  C   UNL     1       7.233   6.739  16.663  0.00  0.00    +0.000 A 
ATOM     16  N   UNL     1       8.001   6.398  15.591  0.00  0.00    +0.000 N 
ATOM     17  N   UNL     1       7.369   5.526  14.793  0.00  0.00    +0.000 NA
ATOM     18  N   UNL     1       6.185   5.286  15.335  0.00  0.00    +0.000 NA
ATOM     19  H   UNL     1       8.935   6.700  15.339  0.00  0.00    +0.000 HD
ENDBRANCH   3  14
BRANCH   6  20
ATOM     20  C   UNL     1       2.478   4.529  19.755  0.00  0.00    +0.000 A 
ATOM     21  C   UNL     1       2.874   4.293  21.075  0.00  0.00    +0.000 A 
ATOM     22  C   UNL     1       2.102   3.467  21.876  0.00  0.00    +0.000 A 
ATOM     23  N   UNL     1       1.000   2.822  21.447  0.00  0.00    +0.000 NA
ATOM     24  C   UNL     1       0.642   3.032  20.165  0.00  0.00    +0.000 A 
ATOM     25  C   UNL     1       1.316   3.889  19.309  0.00  0.00    +0.000 A 
ENDBRANCH   6  20
TORSDOF 3
ENDMDL
MODEL 8
REMARK VINA RESULT:      -6.9      3.491      6.022
REMARK  Name = 
REMARK  4 active torsions:
REMARK  status: ('A' for Active; 'I' for Inactive)
REMARK    1  A    between atoms: C_1  and  N_2
REMARK    2  A    between atoms: C_3  and  C_4
REMARK    3  A    between atoms: C_10  and  C_11
REMARK    4  A    between atoms: C_18  and  C_19
REMARK                            x       y       z     vdW  Elec       q    Type
REMARK                         _______ _______ _______ _____ _____    ______ ____
ROOT
ATOM      1  C   UNL     1       1.400   5.572  20.475  0.00  0.00    +0.000 C 
ATOM      2  N   UNL     1       2.331   6.085  19.493  0.00  0.00    +0.000 N 
ATOM      3  C   UNL     1       2.427   7.401  19.080  0.00  0.00    +0.000 A 
ATOM      4  N   UNL     1       3.320   7.516  18.115  0.00  0.00    +0.000 NA
ATOM      5  C   UNL     1       3.861   6.262  17.937  0.00  0.00    +0.000 A 
ATOM      6  C   UNL     1       3.248   5.322  18.770  0.00  0.00    +0.000 A 
ENDROOT
BRANCH   5   7
ATOM      7  C   UNL     1       4.916   6.024  16.954  0.00  0.00    +0.000 A 
ATOM      8  C   UNL     1       6.222   6.499  17.147  0.00  0.00    +0.000 A 
ATOM      9  C   UNL     1       7.248   6.147  16.267  0.00  0.00    +0.000 A 
ATOM     10  C   UNL     1       6.956   5.371  15.153  0.00  0.00    +0.000 A 
ATOM     11  F   UNL     1       7.941   5.020  14.317  0.00  0.00    +0.000 F 
ATOM     12  C   UNL     1       5.658   4.952  14.896  0.00  0.00    +0.000 A 
ATOM     13  C   UNL     1       4.639   5.275  15.796  0.00  0.00    +0.000 A 
ENDBRANCH   5   7
BRANCH   3  14
ATOM     14  C   UNL     1       1.638   8.560  19.606  0.00  0.00    +0.000 A 
ATOM     15  C   UNL     1       1.140   9.595  18.844  0.00  0.00    +0.000 A 
ATOM     16  N   UNL     1       0.508  10.392  19.750  0.00  0.00    +0.000 N 
ATOM     17  N   UNL     1       0.614   9.902  20.993  0.00  0.00    +0.000 NA
ATOM     18  N   UNL     1       1.313   8.781  20.913  0.00  0.00    +0.000 NA
ATOM     19  H   UNL     1      -0.005  11.254  19.609  0.00  0.00    +0.000 HD
ENDBRANCH   3  14
BRANCH   6  20
ATOM     20  C   UNL     1       3.420   3.858  18.887  0.00  0.00    +0.000 A 
ATOM     21  C   UNL     1       4.299   3.288  19.814  0.00  0.00    +0.000 A 
ATOM     22  C   UNL     1       4.440   1.910  19.855  0.00  0.00    +0.000 A 
ATOM     23  N   UNL     1       3.813   1.065  19.014  0.00  0.00    +0.000 NA
ATOM     24  C   UNL     1       2.990   1.625  18.106  0.00  0.00    +0.000 A 
ATOM     25  C   UNL     1       2.738   2.986  18.030  0.00  0.00    +0.000 A 
ENDBRANCH   6  20
TORSDOF 3
ENDMDL
MODEL 9
REMARK VINA RESULT:      -6.9      3.327      5.873
REMARK  Name = 
REMARK  4 active torsions:
REMARK  status: ('A' for Active; 'I' for Inactive)
REMARK    1  A    between atoms: C_1  and  N_2
REMARK    2  A    between atoms: C_3  and  C_4
REMARK    3  A    between atoms: C_10  and  C_11
REMARK    4  A    between atoms: C_18  and  C_19
REMARK                            x       y       z     vdW  Elec       q    Type
REMARK                         _______ _______ _______ _____ _____    ______ ____
ROOT
ATOM      1  C   UNL     1       0.663   7.745  20.771  0.00  0.00    +0.000 C 
ATOM      2  N   UNL     1       1.627   7.565  19.707  0.00  0.00    +0.000 N 
ATOM      3  C   UNL     1       2.065   8.547  18.839  0.00  0.00    +0.000 A 
ATOM      4  N   UNL     1       2.881   8.034  17.936  0.00  0.00    +0.000 NA
ATOM      5  C   UNL     1       3.024   6.703  18.259  0.00  0.00    +0.000 A 
ATOM      6  C   UNL     1       2.230   6.357  19.355  0.00  0.00    +0.000 A 
ENDROOT
BRANCH   5   7
ATOM      7  C   UNL     1       3.891   5.823  17.478  0.00  0.00    +0.000 A 
ATOM      8  C   UNL     1       3.803   4.426  17.575  0.00  0.00    +0.000 A 
ATOM      9  C   UNL     1       4.542   3.602  16.724  0.00  0.00    +0.000 A 
ATOM     10  C   UNL     1       5.422   4.173  15.814  0.00  0.00    +0.000 A 
ATOM     11  F   UNL     1       6.119   3.385  14.987  0.00  0.00    +0.000 F 
ATOM     12  C   UNL     1       5.586   5.550  15.749  0.00  0.00    +0.000 A 
ATOM     13  C   UNL     1       4.820   6.375  16.577  0.00  0.00    +0.000 A 
ENDBRANCH   5   7
BRANCH   3  14
ATOM     14  C   UNL     1       1.683   9.996  18.865  0.00  0.00    +0.000 A 
ATOM     15  C   UNL     1       2.142  10.955  17.989  0.00  0.00    +0.000 A 
ATOM     16  N   UNL     1       1.527  12.097  18.404  0.00  0.00    +0.000 N 
ATOM     17  N   UNL     1       0.750  11.875  19.474  0.00  0.00    +0.000 NA
ATOM     18  N   UNL     1       0.847  10.587  19.767  0.00  0.00    +0.000 NA
ATOM     19  H   UNL     1       1.577  13.036  18.026  0.00  0.00    +0.000 HD
ENDBRANCH   3  14
BRANCH   6  20
ATOM     20  C   UNL     1       1.983   5.056  20.015  0.00  0.00    +0.000 A 
ATOM     21  C   UNL     1       2.638   4.689  21.195  0.00  0.00    +0.000 A 
ATOM     22  C   UNL     1       2.388   3.444  21.748  0.00  0.00    +0.000 A 
ATOM     23  N   UNL     1       1.577   2.523  21.192  0.00  0.00    +0.000 NA
ATOM     24  C   UNL     1       0.972   2.875  20.041  0.00  0.00    +0.000 A 
ATOM     25  C   UNL     1       1.112   4.119  19.446  0.00  0.00    +0.000 A 
ENDBRANCH   6  20
TORSDOF 3
ENDMDL
