MODEL 1
REMARK VINA RESULT:      -8.3      0.000      0.000
REMARK  Name = 
REMARK  4 active torsions:
REMARK  status: ('A' for Active; 'I' for Inactive)
REMARK    1  A    between atoms: N_2  and  C_4
REMARK    2  A    between atoms: C_7  and  O_8
REMARK    3  A    between atoms: C_9  and  C_10
REMARK    4  A    between atoms: C_13  and  C_14
REMARK                            x       y       z     vdW  Elec       q    Type
REMARK                         _______ _______ _______ _____ _____    ______ ____
ROOT
ATOM      1  C   UNL     1       5.790   4.063  16.319  0.00  0.00    +0.000 C 
ATOM      2  N   UNL     1       6.581   4.306  17.319  0.00  0.00    +0.000 NA
ATOM      3  N   UNL     1       5.894   4.005  18.443  0.00  0.00    +0.000 N 
ATOM      4  C   UNL     1       4.484   3.677  18.221  0.00  0.00    +0.000 C 
ATOM      5  C   UNL     1       4.388   3.675  16.703  0.00  0.00    +0.000 C 
ATOM      6  H   UNL     1       6.062   4.653  19.213  0.00  0.00    +0.000 HD
ENDROOT
BRANCH   4   7
ATOM      7  C   UNL     1       3.530   4.635  18.892  0.00  0.00    +0.000 A 
ATOM      8  C   UNL     1       3.423   5.976  18.492  0.00  0.00    +0.000 A 
ATOM      9  C   UNL     1       2.583   6.862  19.173  0.00  0.00    +0.000 A 
ATOM     10  C   UNL     1       1.831   6.419  20.259  0.00  0.00    +0.000 A 
ATOM     11  C   UNL     1       1.900   5.083  20.650  0.00  0.00    +0.000 A 
ATOM     12  C   UNL     1       2.739   4.206  19.965  0.00  0.00    +0.000 A 
ATOM     13  F   UNL     1       2.783   2.926  20.364  0.00  0.00    +0.000 F 
ENDBRANCH   4   7
BRANCH   1  18
ATOM     14  C   UNL     1       5.921   3.412  12.616  0.00  0.00    +0.000 A 
ATOM     15  C   UNL     1       6.908   4.308  12.184  0.00  0.00    +0.000 A 
ATOM     16  C   UNL     1       7.551   5.131  13.117  0.00  0.00    +0.000 A 
ATOM     17  C   UNL     1       7.202   5.051  14.463  0.00  0.00    +0.000 A 
ATOM     18  C   UNL     1       6.221   4.149  14.905  0.00  0.00    +0.000 A 
ATOM     19  C   UNL     1       5.583   3.317  13.970  0.00  0.00    +0.000 A 
BRANCH  14  21
ATOM     20  O   UNL     1       4.118   2.995  11.222  0.00  0.00    +0.000 OA
ATOM     21  N   UNL     1       5.215   2.583  11.628  0.00  0.00    +0.000 N 
ATOM     22  O   UNL     1       5.748   1.529  11.268  0.00  0.00    +0.000 OA
ENDBRANCH  14  21
BRANCH  17  23
ATOM     23  O   UNL     1       7.833   5.883  15.344  0.00  0.00    +0.000 OA
ATOM     24  H   UNL     1       8.300   5.369  16.023  0.00  0.00    +0.000 HD
ENDBRANCH  17  23
ENDBRANCH   1  18
TORSDOF 4
ENDMDL
MODEL 2
REMARK VINA RESULT:      -8.3      1.437      1.955
REMARK  Name = 
REMARK  4 active torsions:
REMARK  status: ('A' for Active; 'I' for Inactive)
REMARK    1  A    between atoms: N_2  and  C_4
REMARK    2  A    between atoms: C_7  and  O_8
REMARK    3  A    between atoms: C_9  and  C_10
REMARK    4  A    between atoms: C_13  and  C_14
REMARK                            x       y       z     vdW  Elec       q    Type
REMARK                         _______ _______ _______ _____ _____    ______ ____
ROOT
ATOM      1  C   UNL     1       5.210   4.804  16.128  0.00  0.00    +0.000 C 
ATOM      2  N   UNL     1       4.682   5.946  16.447  0.00  0.00    +0.000 NA
ATOM      3  N   UNL     1       4.294   5.848  17.738  0.00  0.00    +0.000 N 
ATOM      4  C   UNL     1       4.422   4.506  18.309  0.00  0.00    +0.000 C 
ATOM      5  C   UNL     1       5.109   3.742  17.188  0.00  0.00    +0.000 C 
ATOM      6  H   UNL     1       3.407   6.311  17.937  0.00  0.00    +0.000 HD
ENDROOT
BRANCH   4   7
ATOM      7  C   UNL     1       3.103   3.906  18.738  0.00  0.00    +0.000 A 
ATOM      8  C   UNL     1       2.527   2.822  18.058  0.00  0.00    +0.000 A 
ATOM      9  C   UNL     1       1.273   2.329  18.431  0.00  0.00    +0.000 A 
ATOM     10  C   UNL     1       0.581   2.905  19.494  0.00  0.00    +0.000 A 
ATOM     11  C   UNL     1       1.154   3.961  20.201  0.00  0.00    +0.000 A 
ATOM     12  C   UNL     1       2.404   4.447  19.823  0.00  0.00    +0.000 A 
ATOM     13  F   UNL     1       2.928   5.463  20.524  0.00  0.00    +0.000 F 
ENDBRANCH   4   7
BRANCH   1  18
ATOM     14  C   UNL     1       5.774   3.514  12.639  0.00  0.00    +0.000 A 
ATOM     15  C   UNL     1       7.002   4.095  12.294  0.00  0.00    +0.000 A 
ATOM     16  C   UNL     1       7.665   4.912  13.219  0.00  0.00    +0.000 A 
ATOM     17  C   UNL     1       7.095   5.139  14.470  0.00  0.00    +0.000 A 
ATOM     18  C   UNL     1       5.871   4.554  14.825  0.00  0.00    +0.000 A 
ATOM     19  C   UNL     1       5.211   3.727  13.901  0.00  0.00    +0.000 A 
BRANCH  14  21
ATOM     20  O   UNL     1       5.586   1.625  11.310  0.00  0.00    +0.000 OA
ATOM     21  N   UNL     1       5.059   2.696  11.649  0.00  0.00    +0.000 N 
ATOM     22  O   UNL     1       3.986   3.122  11.209  0.00  0.00    +0.000 OA
ENDBRANCH  14  21
BRANCH  17  23
ATOM     23  O   UNL     1       7.757   5.958  15.340  0.00  0.00    +0.000 OA
ATOM     24  H   UNL     1       8.132   5.444  16.074  0.00  0.00    +0.000 HD
ENDBRANCH  17  23
ENDBRANCH   1  18
TORSDOF 4
ENDMDL
MODEL 3
REMARK VINA RESULT:      -8.1      1.535      1.688
REMARK  Name = 
REMARK  4 active torsions:
REMARK  status: ('A' for Active; 'I' for Inactive)
REMARK    1  A    between atoms: N_2  and  C_4
REMARK    2  A    between atoms: C_7  and  O_8
REMARK    3  A    between atoms: C_9  and  C_10
REMARK    4  A    between atoms: C_13  and  C_14
REMARK                            x       y       z     vdW  Elec       q    Type
REMARK                         _______ _______ _______ _____ _____    ______ ____
ROOT
ATOM      1  C   UNL     1       5.334   4.764  15.970  0.00  0.00    +0.000 C 
ATOM      2  N   UNL     1       4.794   5.898  16.294  0.00  0.00    +0.000 NA
ATOM      3  N   UNL     1       4.433   5.802  17.592  0.00  0.00    +0.000 N 
ATOM      4  C   UNL     1       4.593   4.465  18.167  0.00  0.00    +0.000 C 
ATOM      5  C   UNL     1       5.272   3.706  17.038  0.00  0.00    +0.000 C 
ATOM      6  H   UNL     1       3.543   6.252  17.806  0.00  0.00    +0.000 HD
ENDROOT
BRANCH   4   7
ATOM      7  C   UNL     1       3.294   3.847  18.626  0.00  0.00    +0.000 A 
ATOM      8  C   UNL     1       2.075   4.132  17.992  0.00  0.00    +0.000 A 
ATOM      9  C   UNL     1       0.875   3.601  18.476  0.00  0.00    +0.000 A 
ATOM     10  C   UNL     1       0.877   2.772  19.596  0.00  0.00    +0.000 A 
ATOM     11  C   UNL     1       2.082   2.453  20.217  0.00  0.00    +0.000 A 
ATOM     12  C   UNL     1       3.274   2.985  19.728  0.00  0.00    +0.000 A 
ATOM     13  F   UNL     1       4.418   2.657  20.348  0.00  0.00    +0.000 F 
ENDBRANCH   4   7
BRANCH   1  18
ATOM     14  C   UNL     1       5.871   3.428  12.494  0.00  0.00    +0.000 A 
ATOM     15  C   UNL     1       7.062   4.056  12.107  0.00  0.00    +0.000 A 
ATOM     16  C   UNL     1       7.709   4.922  12.997  0.00  0.00    +0.000 A 
ATOM     17  C   UNL     1       7.161   5.149  14.258  0.00  0.00    +0.000 A 
ATOM     18  C   UNL     1       5.973   4.516  14.656  0.00  0.00    +0.000 A 
ATOM     19  C   UNL     1       5.330   3.641  13.766  0.00  0.00    +0.000 A 
BRANCH  14  21
ATOM     20  O   UNL     1       4.084   2.958  11.096  0.00  0.00    +0.000 OA
ATOM     21  N   UNL     1       5.171   2.557  11.539  0.00  0.00    +0.000 N 
ATOM     22  O   UNL     1       5.697   1.480  11.241  0.00  0.00    +0.000 OA
ENDBRANCH  14  21
BRANCH  17  23
ATOM     23  O   UNL     1       7.805   6.016  15.095  0.00  0.00    +0.000 OA
ATOM     24  H   UNL     1       7.778   5.690  16.010  0.00  0.00    +0.000 HD
ENDBRANCH  17  23
ENDBRANCH   1  18
TORSDOF 4
ENDMDL
MODEL 4
REMARK VINA RESULT:      -8.1      3.696      7.425
REMARK  Name = 
REMARK  4 active torsions:
REMARK  status: ('A' for Active; 'I' for Inactive)
REMARK    1  A    between atoms: N_2  and  C_4
REMARK    2  A    between atoms: C_7  and  O_8
REMARK    3  A    between atoms: C_9  and  C_10
REMARK    4  A    between atoms: C_13  and  C_14
REMARK                            x       y       z     vdW  Elec       q    Type
REMARK                         _______ _______ _______ _____ _____    ______ ____
ROOT
ATOM      1  C   UNL     1       5.613   4.976  17.457  0.00  0.00    +0.000 C 
ATOM      2  N   UNL     1       6.724   4.313  17.559  0.00  0.00    +0.000 NA
ATOM      3  N   UNL     1       7.469   4.632  16.478  0.00  0.00    +0.000 N 
ATOM      4  C   UNL     1       6.773   5.450  15.483  0.00  0.00    +0.000 C 
ATOM      5  C   UNL     1       5.450   5.743  16.174  0.00  0.00    +0.000 C 
ATOM      6  H   UNL     1       7.990   3.845  16.091  0.00  0.00    +0.000 HD
ENDROOT
BRANCH   4   7
ATOM      7  C   UNL     1       6.626   4.771  14.142  0.00  0.00    +0.000 A 
ATOM      8  C   UNL     1       5.558   3.904  13.865  0.00  0.00    +0.000 A 
ATOM      9  C   UNL     1       5.480   3.234  12.640  0.00  0.00    +0.000 A 
ATOM     10  C   UNL     1       6.463   3.427  11.672  0.00  0.00    +0.000 A 
ATOM     11  C   UNL     1       7.513   4.310  11.918  0.00  0.00    +0.000 A 
ATOM     12  C   UNL     1       7.583   4.974  13.141  0.00  0.00    +0.000 A 
ATOM     13  F   UNL     1       8.605   5.818  13.347  0.00  0.00    +0.000 F 
ENDBRANCH   4   7
BRANCH   1  18
ATOM     14  C   UNL     1       2.819   6.209  19.655  0.00  0.00    +0.000 A 
ATOM     15  C   UNL     1       2.531   5.086  20.441  0.00  0.00    +0.000 A 
ATOM     16  C   UNL     1       3.267   3.908  20.260  0.00  0.00    +0.000 A 
ATOM     17  C   UNL     1       4.276   3.866  19.301  0.00  0.00    +0.000 A 
ATOM     18  C   UNL     1       4.577   4.991  18.517  0.00  0.00    +0.000 A 
ATOM     19  C   UNL     1       3.845   6.174  18.705  0.00  0.00    +0.000 A 
BRANCH  14  21
ATOM     20  O   UNL     1       1.987   8.221  18.861  0.00  0.00    +0.000 OA
ATOM     21  N   UNL     1       2.014   7.428  19.815  0.00  0.00    +0.000 N 
ATOM     22  O   UNL     1       1.419   7.595  20.885  0.00  0.00    +0.000 OA
ENDBRANCH  14  21
BRANCH  17  23
ATOM     23  O   UNL     1       4.961   2.695  19.136  0.00  0.00    +0.000 OA
ATOM     24  H   UNL     1       5.740   2.833  18.571  0.00  0.00    +0.000 HD
ENDBRANCH  17  23
ENDBRANCH   1  18
TORSDOF 4
ENDMDL
MODEL 5
REMARK VINA RESULT:      -8.0      1.559      2.066
REMARK  Name = 
REMARK  4 active torsions:
REMARK  status: ('A' for Active; 'I' for Inactive)
REMARK    1  A    between atoms: N_2  and  C_4
REMARK    2  A    between atoms: C_7  and  O_8
REMARK    3  A    between atoms: C_9  and  C_10
REMARK    4  A    between atoms: C_13  and  C_14
REMARK                            x       y       z     vdW  Elec       q    Type
REMARK                         _______ _______ _______ _____ _____    ______ ____
ROOT
ATOM      1  C   UNL     1       5.177   4.997  16.240  0.00  0.00    +0.000 C 
ATOM      2  N   UNL     1       4.612   6.138  16.489  0.00  0.00    +0.000 NA
ATOM      3  N   UNL     1       4.221   6.106  17.781  0.00  0.00    +0.000 N 
ATOM      4  C   UNL     1       4.386   4.804  18.432  0.00  0.00    +0.000 C 
ATOM      5  C   UNL     1       5.103   3.997  17.361  0.00  0.00    +0.000 C 
ATOM      6  H   UNL     1       3.319   6.552  17.949  0.00  0.00    +0.000 HD
ENDROOT
BRANCH   4   7
ATOM      7  C   UNL     1       3.084   4.191  18.891  0.00  0.00    +0.000 A 
ATOM      8  C   UNL     1       2.652   4.282  20.223  0.00  0.00    +0.000 A 
ATOM      9  C   UNL     1       1.478   3.648  20.639  0.00  0.00    +0.000 A 
ATOM     10  C   UNL     1       0.714   2.921  19.729  0.00  0.00    +0.000 A 
ATOM     11  C   UNL     1       1.111   2.847  18.395  0.00  0.00    +0.000 A 
ATOM     12  C   UNL     1       2.283   3.483  17.987  0.00  0.00    +0.000 A 
ATOM     13  F   UNL     1       2.638   3.394  16.697  0.00  0.00    +0.000 F 
ENDBRANCH   4   7
BRANCH   1  18
ATOM     14  C   UNL     1       5.751   3.618  12.786  0.00  0.00    +0.000 A 
ATOM     15  C   UNL     1       7.016   4.128  12.461  0.00  0.00    +0.000 A 
ATOM     16  C   UNL     1       7.699   4.925  13.387  0.00  0.00    +0.000 A 
ATOM     17  C   UNL     1       7.114   5.204  14.621  0.00  0.00    +0.000 A 
ATOM     18  C   UNL     1       5.853   4.689  14.957  0.00  0.00    +0.000 A 
ATOM     19  C   UNL     1       5.172   3.882  14.032  0.00  0.00    +0.000 A 
BRANCH  14  21
ATOM     20  O   UNL     1       5.527   1.748  11.437  0.00  0.00    +0.000 OA
ATOM     21  N   UNL     1       5.017   2.821  11.794  0.00  0.00    +0.000 N 
ATOM     22  O   UNL     1       3.945   3.265  11.370  0.00  0.00    +0.000 OA
ENDBRANCH  14  21
BRANCH  17  23
ATOM     23  O   UNL     1       7.799   6.003  15.493  0.00  0.00    +0.000 OA
ATOM     24  H   UNL     1       8.030   5.509  16.297  0.00  0.00    +0.000 HD
ENDBRANCH  17  23
ENDBRANCH   1  18
TORSDOF 4
ENDMDL
MODEL 6
REMARK VINA RESULT:      -8.0      0.996      1.428
REMARK  Name = 
REMARK  4 active torsions:
REMARK  status: ('A' for Active; 'I' for Inactive)
REMARK    1  A    between atoms: N_2  and  C_4
REMARK    2  A    between atoms: C_7  and  O_8
REMARK    3  A    between atoms: C_9  and  C_10
REMARK    4  A    between atoms: C_13  and  C_14
REMARK                            x       y       z     vdW  Elec       q    Type
REMARK                         _______ _______ _______ _____ _____    ______ ____
ROOT
ATOM      1  C   UNL     1       5.790   4.065  16.455  0.00  0.00    +0.000 C 
ATOM      2  N   UNL     1       6.594   4.264  17.454  0.00  0.00    +0.000 NA
ATOM      3  N   UNL     1       5.913   3.934  18.573  0.00  0.00    +0.000 N 
ATOM      4  C   UNL     1       4.498   3.631  18.355  0.00  0.00    +0.000 C 
ATOM      5  C   UNL     1       4.387   3.682  16.839  0.00  0.00    +0.000 C 
ATOM      6  H   UNL     1       6.098   4.552  19.364  0.00  0.00    +0.000 HD
ENDROOT
BRANCH   4   7
ATOM      7  C   UNL     1       3.562   4.577  19.068  0.00  0.00    +0.000 A 
ATOM      8  C   UNL     1       2.669   4.132  20.055  0.00  0.00    +0.000 A 
ATOM      9  C   UNL     1       1.765   5.014  20.653  0.00  0.00    +0.000 A 
ATOM     10  C   UNL     1       1.746   6.357  20.281  0.00  0.00    +0.000 A 
ATOM     11  C   UNL     1       2.648   6.823  19.326  0.00  0.00    +0.000 A 
ATOM     12  C   UNL     1       3.546   5.937  18.735  0.00  0.00    +0.000 A 
ATOM     13  F   UNL     1       4.402   6.416  17.820  0.00  0.00    +0.000 F 
ENDBRANCH   4   7
BRANCH   1  18
ATOM     14  C   UNL     1       5.915   3.497  12.738  0.00  0.00    +0.000 A 
ATOM     15  C   UNL     1       6.871   4.432  12.318  0.00  0.00    +0.000 A 
ATOM     16  C   UNL     1       7.494   5.255  13.264  0.00  0.00    +0.000 A 
ATOM     17  C   UNL     1       7.157   5.136  14.611  0.00  0.00    +0.000 A 
ATOM     18  C   UNL     1       6.208   4.195  15.039  0.00  0.00    +0.000 A 
ATOM     19  C   UNL     1       5.590   3.363  14.091  0.00  0.00    +0.000 A 
BRANCH  14  21
ATOM     20  O   UNL     1       4.130   3.069  11.324  0.00  0.00    +0.000 OA
ATOM     21  N   UNL     1       5.228   2.668  11.737  0.00  0.00    +0.000 N 
ATOM     22  O   UNL     1       5.778   1.623  11.372  0.00  0.00    +0.000 OA
ENDBRANCH  14  21
BRANCH  17  23
ATOM     23  O   UNL     1       7.769   5.968  15.505  0.00  0.00    +0.000 OA
ATOM     24  H   UNL     1       7.522   5.732  16.415  0.00  0.00    +0.000 HD
ENDBRANCH  17  23
ENDBRANCH   1  18
TORSDOF 4
ENDMDL
MODEL 7
REMARK VINA RESULT:      -7.7      3.418      7.206
REMARK  Name = 
REMARK  4 active torsions:
REMARK  status: ('A' for Active; 'I' for Inactive)
REMARK    1  A    between atoms: N_2  and  C_4
REMARK    2  A    between atoms: C_7  and  O_8
REMARK    3  A    between atoms: C_9  and  C_10
REMARK    4  A    between atoms: C_13  and  C_14
REMARK                            x       y       z     vdW  Elec       q    Type
REMARK                         _______ _______ _______ _____ _____    ______ ____
ROOT
ATOM      1  C   UNL     1       5.714   4.969  17.830  0.00  0.00    +0.000 C 
ATOM      2  N   UNL     1       6.793   4.265  17.986  0.00  0.00    +0.000 NA
ATOM      3  N   UNL     1       7.645   4.634  17.005  0.00  0.00    +0.000 N 
ATOM      4  C   UNL     1       7.068   5.541  16.011  0.00  0.00    +0.000 C 
ATOM      5  C   UNL     1       5.693   5.828  16.595  0.00  0.00    +0.000 C 
ATOM      6  H   UNL     1       8.180   3.860  16.613  0.00  0.00    +0.000 HD
ENDROOT
BRANCH   4   7
ATOM      7  C   UNL     1       7.031   4.962  14.617  0.00  0.00    +0.000 A 
ATOM      8  C   UNL     1       7.791   5.504  13.569  0.00  0.00    +0.000 A 
ATOM      9  C   UNL     1       7.689   4.993  12.272  0.00  0.00    +0.000 A 
ATOM     10  C   UNL     1       6.832   3.928  12.004  0.00  0.00    +0.000 A 
ATOM     11  C   UNL     1       6.095   3.356  13.039  0.00  0.00    +0.000 A 
ATOM     12  C   UNL     1       6.203   3.870  14.330  0.00  0.00    +0.000 A 
ATOM     13  F   UNL     1       5.481   3.297  15.304  0.00  0.00    +0.000 F 
ENDBRANCH   4   7
BRANCH   1  18
ATOM     14  C   UNL     1       2.747   6.132  19.830  0.00  0.00    +0.000 A 
ATOM     15  C   UNL     1       2.366   4.970  20.514  0.00  0.00    +0.000 A 
ATOM     16  C   UNL     1       3.096   3.789  20.330  0.00  0.00    +0.000 A 
ATOM     17  C   UNL     1       4.190   3.782  19.468  0.00  0.00    +0.000 A 
ATOM     18  C   UNL     1       4.583   4.944  18.787  0.00  0.00    +0.000 A 
ATOM     19  C   UNL     1       3.857   6.131  18.979  0.00  0.00    +0.000 A 
BRANCH  14  21
ATOM     20  O   UNL     1       1.969   8.173  19.054  0.00  0.00    +0.000 OA
ATOM     21  N   UNL     1       1.951   7.358  19.989  0.00  0.00    +0.000 N 
ATOM     22  O   UNL     1       1.319   7.508  21.040  0.00  0.00    +0.000 OA
ENDBRANCH  14  21
BRANCH  17  23
ATOM     23  O   UNL     1       4.868   2.608  19.295  0.00  0.00    +0.000 OA
ATOM     24  H   UNL     1       4.801   2.056  20.092  0.00  0.00    +0.000 HD
ENDBRANCH  17  23
ENDBRANCH   1  18
TORSDOF 4
ENDMDL
MODEL 8
REMARK VINA RESULT:      -7.5      5.355      7.569
REMARK  Name = 
REMARK  4 active torsions:
REMARK  status: ('A' for Active; 'I' for Inactive)
REMARK    1  A    between atoms: N_2  and  C_4
REMARK    2  A    between atoms: C_7  and  O_8
REMARK    3  A    between atoms: C_9  and  C_10
REMARK    4  A    between atoms: C_13  and  C_14
REMARK                            x       y       z     vdW  Elec       q    Type
REMARK                         _______ _______ _______ _____ _____    ______ ____
ROOT
ATOM      1  C   UNL     1       2.177   8.128  18.598  0.00  0.00    +0.000 C 
ATOM      2  N   UNL     1       2.386   8.766  17.487  0.00  0.00    +0.000 NA
ATOM      3  N   UNL     1       1.839   9.993  17.633  0.00  0.00    +0.000 N 
ATOM      4  C   UNL     1       1.068  10.169  18.865  0.00  0.00    +0.000 C 
ATOM      5  C   UNL     1       1.321   8.860  19.595  0.00  0.00    +0.000 C 
ATOM      6  H   UNL     1       1.380  10.340  16.791  0.00  0.00    +0.000 HD
ENDROOT
BRANCH   4   7
ATOM      7  C   UNL     1      -0.394  10.462  18.623  0.00  0.00    +0.000 A 
ATOM      8  C   UNL     1      -1.122   9.811  17.615  0.00  0.00    +0.000 A 
ATOM      9  C   UNL     1      -2.456  10.148  17.365  0.00  0.00    +0.000 A 
ATOM     10  C   UNL     1      -3.084  11.133  18.124  0.00  0.00    +0.000 A 
ATOM     11  C   UNL     1      -2.386  11.766  19.150  0.00  0.00    +0.000 A 
ATOM     12  C   UNL     1      -1.056  11.425  19.394  0.00  0.00    +0.000 A 
ATOM     13  F   UNL     1      -0.412  12.051  20.389  0.00  0.00    +0.000 F 
ENDBRANCH   4   7
BRANCH   1  18
ATOM     14  C   UNL     1       2.525   4.675  20.051  0.00  0.00    +0.000 A 
ATOM     15  C   UNL     1       3.672   4.189  19.410  0.00  0.00    +0.000 A 
ATOM     16  C   UNL     1       4.351   5.004  18.496  0.00  0.00    +0.000 A 
ATOM     17  C   UNL     1       3.879   6.288  18.234  0.00  0.00    +0.000 A 
ATOM     18  C   UNL     1       2.737   6.785  18.880  0.00  0.00    +0.000 A 
ATOM     19  C   UNL     1       2.061   5.971  19.803  0.00  0.00    +0.000 A 
BRANCH  14  21
ATOM     20  O   UNL     1       0.701   3.348  20.582  0.00  0.00    +0.000 OA
ATOM     21  N   UNL     1       1.788   3.800  20.974  0.00  0.00    +0.000 N 
ATOM     22  O   UNL     1       2.285   3.573  22.081  0.00  0.00    +0.000 OA
ENDBRANCH  14  21
BRANCH  17  23
ATOM     23  O   UNL     1       4.553   7.050  17.321  0.00  0.00    +0.000 OA
ATOM     24  H   UNL     1       5.051   6.485  16.707  0.00  0.00    +0.000 HD
ENDBRANCH  17  23
ENDBRANCH   1  18
TORSDOF 4
ENDMDL
MODEL 9
REMARK VINA RESULT:      -7.4      3.731      7.337
REMARK  Name = 
REMARK  4 active torsions:
REMARK  status: ('A' for Active; 'I' for Inactive)
REMARK    1  A    between atoms: N_2  and  C_4
REMARK    2  A    between atoms: C_7  and  O_8
REMARK    3  A    between atoms: C_9  and  C_10
REMARK    4  A    between atoms: C_13  and  C_14
REMARK                            x       y       z     vdW  Elec       q    Type
REMARK                         _______ _______ _______ _____ _____    ______ ____
ROOT
ATOM      1  C   UNL     1       5.313   5.065  17.465  0.00  0.00    +0.000 C 
ATOM      2  N   UNL     1       6.393   4.367  17.639  0.00  0.00    +0.000 NA
ATOM      3  N   UNL     1       7.206   4.641  16.595  0.00  0.00    +0.000 N 
ATOM      4  C   UNL     1       6.594   5.464  15.550  0.00  0.00    +0.000 C 
ATOM      5  C   UNL     1       5.247   5.814  16.161  0.00  0.00    +0.000 C 
ATOM      6  H   UNL     1       7.720   3.830  16.251  0.00  0.00    +0.000 HD
ENDROOT
BRANCH   4   7
ATOM      7  C   UNL     1       6.497   4.765  14.214  0.00  0.00    +0.000 A 
ATOM      8  C   UNL     1       5.431   3.907  13.903  0.00  0.00    +0.000 A 
ATOM      9  C   UNL     1       5.397   3.219  12.687  0.00  0.00    +0.000 A 
ATOM     10  C   UNL     1       6.425   3.383  11.760  0.00  0.00    +0.000 A 
ATOM     11  C   UNL     1       7.474   4.257  12.039  0.00  0.00    +0.000 A 
ATOM     12  C   UNL     1       7.500   4.940  13.253  0.00  0.00    +0.000 A 
ATOM     13  F   UNL     1       8.523   5.774  13.491  0.00  0.00    +0.000 F 
ENDBRANCH   4   7
BRANCH   1  18
ATOM     14  C   UNL     1       3.056   4.082  20.310  0.00  0.00    +0.000 A 
ATOM     15  C   UNL     1       2.240   5.212  20.456  0.00  0.00    +0.000 A 
ATOM     16  C   UNL     1       2.420   6.309  19.605  0.00  0.00    +0.000 A 
ATOM     17  C   UNL     1       3.408   6.267  18.624  0.00  0.00    +0.000 A 
ATOM     18  C   UNL     1       4.222   5.135  18.466  0.00  0.00    +0.000 A 
ATOM     19  C   UNL     1       4.036   4.031  19.313  0.00  0.00    +0.000 A 
BRANCH  14  21
ATOM     20  O   UNL     1       3.832   2.140  21.309  0.00  0.00    +0.000 OA
ATOM     21  N   UNL     1       2.896   2.951  21.235  0.00  0.00    +0.000 N 
ATOM     22  O   UNL     1       1.843   2.870  21.876  0.00  0.00    +0.000 OA
ENDBRANCH  14  21
BRANCH  17  23
ATOM     23  O   UNL     1       3.571   7.363  17.825  0.00  0.00    +0.000 OA
ATOM     24  H   UNL     1       3.728   7.093  16.904  0.00  0.00    +0.000 HD
ENDBRANCH  17  23
ENDBRANCH   1  18
TORSDOF 4
ENDMDL
