MODEL 1
REMARK VINA RESULT:      -7.6      0.000      0.000
REMARK  Name = 
REMARK  6 active torsions:
REMARK  status: ('A' for Active; 'I' for Inactive)
REMARK    1  A    between atoms: C_2  and  C_3
REMARK    2  A    between atoms: C_3  and  O_4
REMARK    3  A    between atoms: O_4  and  C_5
REMARK    4  A    between atoms: C_7  and  C_8
REMARK    5  A    between atoms: C_10  and  C_11
REMARK    6  A    between atoms: C_16  and  O_17
REMARK                            x       y       z     vdW  Elec       q    Type
REMARK                         _______ _______ _______ _____ _____    ______ ____
ROOT
ATOM      1  C   UNL     1       6.996   4.704  17.293  0.00  0.00    +0.000 A 
ATOM      2  C   UNL     1       7.100   4.557  15.931  0.00  0.00    +0.000 A 
ATOM      3  C   UNL     1       5.985   4.057  15.296  0.00  0.00    +0.000 A 
ATOM      4  C   UNL     1       5.928   3.906  13.809  0.00  0.00    +0.000 C 
ATOM      5  N   UNL     1       4.877   3.700  15.974  0.00  0.00    +0.000 NA
ATOM      6  C   UNL     1       4.866   3.888  17.306  0.00  0.00    +0.000 A 
ATOM      7  N   UNL     1       5.908   4.374  18.005  0.00  0.00    +0.000 NA
ENDROOT
BRANCH   6   8
ATOM      8  C   UNL     1       3.657   3.519  18.069  0.00  0.00    +0.000 A 
ATOM      9  C   UNL     1       2.384   3.914  17.602  0.00  0.00    +0.000 A 
ATOM     10  C   UNL     1       1.209   3.587  18.288  0.00  0.00    +0.000 A 
ATOM     11  C   UNL     1       1.281   2.853  19.466  0.00  0.00    +0.000 A 
ATOM     12  C   UNL     1       2.520   2.442  19.953  0.00  0.00    +0.000 A 
ATOM     13  C   UNL     1       3.691   2.769  19.258  0.00  0.00    +0.000 A 
BRANCH  13  14
ATOM     14  O   UNL     1       4.880   2.295  19.748  0.00  0.00    +0.000 OA
ATOM     15  H   UNL     1       5.472   3.037  19.937  0.00  0.00    +0.000 HD
ENDBRANCH  13  14
ENDBRANCH   6   8
BRANCH   1  16
ATOM     16  O   UNL     1       8.111   5.187  17.950  0.00  0.00    +0.000 OA
BRANCH  16  17
ATOM     17  C   UNL     1       7.828   6.379  18.685  0.00  0.00    +0.000 C 
BRANCH  17  19
ATOM     18  C   UNL     1       8.106   8.757  17.904  0.00  0.00    +0.000 C 
ATOM     19  C   UNL     1       7.692   7.500  17.699  0.00  0.00    +0.000 C 
ENDBRANCH  17  19
ENDBRANCH  16  17
ENDBRANCH   1  16
TORSDOF 5
ENDMDL
MODEL 2
REMARK VINA RESULT:      -7.5      1.195      1.251
REMARK  Name = 
REMARK  6 active torsions:
REMARK  status: ('A' for Active; 'I' for Inactive)
REMARK    1  A    between atoms: C_2  and  C_3
REMARK    2  A    between atoms: C_3  and  O_4
REMARK    3  A    between atoms: O_4  and  C_5
REMARK    4  A    between atoms: C_7  and  C_8
REMARK    5  A    between atoms: C_10  and  C_11
REMARK    6  A    between atoms: C_16  and  O_17
REMARK                            x       y       z     vdW  Elec       q    Type
REMARK                         _______ _______ _______ _____ _____    ______ ____
ROOT
ATOM      1  C   UNL     1       6.728   4.561  17.711  0.00  0.00    +0.000 A 
ATOM      2  C   UNL     1       6.816   4.466  16.343  0.00  0.00    +0.000 A 
ATOM      3  C   UNL     1       5.643   4.165  15.688  0.00  0.00    +0.000 A 
ATOM      4  C   UNL     1       5.572   4.095  14.195  0.00  0.00    +0.000 C 
ATOM      5  N   UNL     1       4.492   3.943  16.350  0.00  0.00    +0.000 NA
ATOM      6  C   UNL     1       4.501   4.067  17.690  0.00  0.00    +0.000 A 
ATOM      7  N   UNL     1       5.600   4.361  18.409  0.00  0.00    +0.000 NA
ENDROOT
BRANCH   6   8
ATOM      8  C   UNL     1       3.248   3.844  18.436  0.00  0.00    +0.000 A 
ATOM      9  C   UNL     1       2.386   2.789  18.063  0.00  0.00    +0.000 A 
ATOM     10  C   UNL     1       1.188   2.536  18.741  0.00  0.00    +0.000 A 
ATOM     11  C   UNL     1       0.821   3.339  19.815  0.00  0.00    +0.000 A 
ATOM     12  C   UNL     1       1.650   4.385  20.214  0.00  0.00    +0.000 A 
ATOM     13  C   UNL     1       2.850   4.629  19.534  0.00  0.00    +0.000 A 
BRANCH  13  14
ATOM     14  O   UNL     1       3.656   5.634  19.999  0.00  0.00    +0.000 OA
ATOM     15  H   UNL     1       3.513   5.752  20.950  0.00  0.00    +0.000 HD
ENDBRANCH  13  14
ENDBRANCH   6   8
BRANCH   1  16
ATOM     16  O   UNL     1       7.898   4.844  18.389  0.00  0.00    +0.000 OA
BRANCH  16  17
ATOM     17  C   UNL     1       7.869   6.135  18.999  0.00  0.00    +0.000 C 
BRANCH  17  19
ATOM     18  C   UNL     1       8.149   8.418  17.971  0.00  0.00    +0.000 C 
ATOM     19  C   UNL     1       7.717   7.151  17.906  0.00  0.00    +0.000 C 
ENDBRANCH  17  19
ENDBRANCH  16  17
ENDBRANCH   1  16
TORSDOF 5
ENDMDL
MODEL 3
REMARK VINA RESULT:      -7.5      1.569      3.664
REMARK  Name = 
REMARK  6 active torsions:
REMARK  status: ('A' for Active; 'I' for Inactive)
REMARK    1  A    between atoms: C_2  and  C_3
REMARK    2  A    between atoms: C_3  and  O_4
REMARK    3  A    between atoms: O_4  and  C_5
REMARK    4  A    between atoms: C_7  and  C_8
REMARK    5  A    between atoms: C_10  and  C_11
REMARK    6  A    between atoms: C_16  and  O_17
REMARK                            x       y       z     vdW  Elec       q    Type
REMARK                         _______ _______ _______ _____ _____    ______ ____
ROOT
ATOM      1  C   UNL     1       6.315   4.121  16.183  0.00  0.00    +0.000 A 
ATOM      2  C   UNL     1       7.239   4.816  16.924  0.00  0.00    +0.000 A 
ATOM      3  C   UNL     1       6.880   5.088  18.226  0.00  0.00    +0.000 A 
ATOM      4  C   UNL     1       7.813   5.778  19.171  0.00  0.00    +0.000 C 
ATOM      5  N   UNL     1       5.685   4.726  18.727  0.00  0.00    +0.000 NA
ATOM      6  C   UNL     1       4.848   4.040  17.927  0.00  0.00    +0.000 A 
ATOM      7  N   UNL     1       5.118   3.730  16.646  0.00  0.00    +0.000 NA
ENDROOT
BRANCH   6   8
ATOM      8  C   UNL     1       3.537   3.619  18.459  0.00  0.00    +0.000 A 
ATOM      9  C   UNL     1       2.597   4.592  18.864  0.00  0.00    +0.000 A 
ATOM     10  C   UNL     1       1.341   4.242  19.372  0.00  0.00    +0.000 A 
ATOM     11  C   UNL     1       0.994   2.902  19.491  0.00  0.00    +0.000 A 
ATOM     12  C   UNL     1       1.895   1.915  19.096  0.00  0.00    +0.000 A 
ATOM     13  C   UNL     1       3.148   2.272  18.583  0.00  0.00    +0.000 A 
BRANCH  13  14
ATOM     14  O   UNL     1       3.976   1.267  18.158  0.00  0.00    +0.000 OA
ATOM     15  H   UNL     1       3.640   0.898  17.329  0.00  0.00    +0.000 HD
ENDBRANCH  13  14
ENDBRANCH   6   8
BRANCH   1  16
ATOM     16  O   UNL     1       6.648   3.855  14.869  0.00  0.00    +0.000 OA
BRANCH  16  17
ATOM     17  C   UNL     1       5.601   4.209  13.966  0.00  0.00    +0.000 C 
BRANCH  17  19
ATOM     18  C   UNL     1       4.927   3.165  11.774  0.00  0.00    +0.000 C 
ATOM     19  C   UNL     1       5.866   3.510  12.665  0.00  0.00    +0.000 C 
ENDBRANCH  17  19
ENDBRANCH  16  17
ENDBRANCH   1  16
TORSDOF 5
ENDMDL
MODEL 4
REMARK VINA RESULT:      -7.5      1.629      3.623
REMARK  Name = 
REMARK  6 active torsions:
REMARK  status: ('A' for Active; 'I' for Inactive)
REMARK    1  A    between atoms: C_2  and  C_3
REMARK    2  A    between atoms: C_3  and  O_4
REMARK    3  A    between atoms: O_4  and  C_5
REMARK    4  A    between atoms: C_7  and  C_8
REMARK    5  A    between atoms: C_10  and  C_11
REMARK    6  A    between atoms: C_16  and  O_17
REMARK                            x       y       z     vdW  Elec       q    Type
REMARK                         _______ _______ _______ _____ _____    ______ ____
ROOT
ATOM      1  C   UNL     1       5.928   4.240  16.084  0.00  0.00    +0.000 A 
ATOM      2  C   UNL     1       6.773   5.316  16.208  0.00  0.00    +0.000 A 
ATOM      3  C   UNL     1       6.645   6.046  17.368  0.00  0.00    +0.000 A 
ATOM      4  C   UNL     1       7.544   7.204  17.672  0.00  0.00    +0.000 C 
ATOM      5  N   UNL     1       5.725   5.746  18.304  0.00  0.00    +0.000 NA
ATOM      6  C   UNL     1       4.946   4.668  18.098  0.00  0.00    +0.000 A 
ATOM      7  N   UNL     1       5.006   3.897  16.997  0.00  0.00    +0.000 NA
ENDROOT
BRANCH   6   8
ATOM      8  C   UNL     1       3.941   4.309  19.117  0.00  0.00    +0.000 A 
ATOM      9  C   UNL     1       2.879   5.197  19.400  0.00  0.00    +0.000 A 
ATOM     10  C   UNL     1       1.900   4.901  20.355  0.00  0.00    +0.000 A 
ATOM     11  C   UNL     1       1.961   3.702  21.056  0.00  0.00    +0.000 A 
ATOM     12  C   UNL     1       2.992   2.800  20.799  0.00  0.00    +0.000 A 
ATOM     13  C   UNL     1       3.965   3.101  19.838  0.00  0.00    +0.000 A 
BRANCH  13  14
ATOM     14  O   UNL     1       4.926   2.158  19.583  0.00  0.00    +0.000 OA
ATOM     15  H   UNL     1       5.754   2.596  19.337  0.00  0.00    +0.000 HD
ENDBRANCH  13  14
ENDBRANCH   6   8
BRANCH   1  16
ATOM     16  O   UNL     1       6.027   3.505  14.919  0.00  0.00    +0.000 OA
BRANCH  16  17
ATOM     17  C   UNL     1       6.549   4.278  13.838  0.00  0.00    +0.000 C 
BRANCH  17  19
ATOM     18  C   UNL     1       5.060   3.317  12.048  0.00  0.00    +0.000 C 
ATOM     19  C   UNL     1       6.276   3.528  12.568  0.00  0.00    +0.000 C 
ENDBRANCH  17  19
ENDBRANCH  16  17
ENDBRANCH   1  16
TORSDOF 5
ENDMDL
MODEL 5
REMARK VINA RESULT:      -7.4      1.122      1.203
REMARK  Name = 
REMARK  6 active torsions:
REMARK  status: ('A' for Active; 'I' for Inactive)
REMARK    1  A    between atoms: C_2  and  C_3
REMARK    2  A    between atoms: C_3  and  O_4
REMARK    3  A    between atoms: O_4  and  C_5
REMARK    4  A    between atoms: C_7  and  C_8
REMARK    5  A    between atoms: C_10  and  C_11
REMARK    6  A    between atoms: C_16  and  O_17
REMARK                            x       y       z     vdW  Elec       q    Type
REMARK                         _______ _______ _______ _____ _____    ______ ____
ROOT
ATOM      1  C   UNL     1       6.741   4.516  17.808  0.00  0.00    +0.000 A 
ATOM      2  C   UNL     1       6.795   4.456  16.437  0.00  0.00    +0.000 A 
ATOM      3  C   UNL     1       5.612   4.148  15.804  0.00  0.00    +0.000 A 
ATOM      4  C   UNL     1       5.503   4.114  14.312  0.00  0.00    +0.000 C 
ATOM      5  N   UNL     1       4.482   3.888  16.489  0.00  0.00    +0.000 NA
ATOM      6  C   UNL     1       4.524   3.979  17.831  0.00  0.00    +0.000 A 
ATOM      7  N   UNL     1       5.635   4.276  18.529  0.00  0.00    +0.000 NA
ENDROOT
BRANCH   6   8
ATOM      8  C   UNL     1       3.295   3.713  18.603  0.00  0.00    +0.000 A 
ATOM      9  C   UNL     1       2.705   4.747  19.365  0.00  0.00    +0.000 A 
ATOM     10  C   UNL     1       1.539   4.544  20.111  0.00  0.00    +0.000 A 
ATOM     11  C   UNL     1       0.932   3.294  20.115  0.00  0.00    +0.000 A 
ATOM     12  C   UNL     1       1.483   2.253  19.371  0.00  0.00    +0.000 A 
ATOM     13  C   UNL     1       2.648   2.464  18.622  0.00  0.00    +0.000 A 
BRANCH  13  14
ATOM     14  O   UNL     1       3.119   1.424  17.865  0.00  0.00    +0.000 OA
ATOM     15  H   UNL     1       4.061   1.291  18.046  0.00  0.00    +0.000 HD
ENDBRANCH  13  14
ENDBRANCH   6   8
BRANCH   1  16
ATOM     16  O   UNL     1       7.923   4.804  18.463  0.00  0.00    +0.000 OA
BRANCH  16  17
ATOM     17  C   UNL     1       7.808   5.955  19.300  0.00  0.00    +0.000 C 
BRANCH  17  19
ATOM     18  C   UNL     1       7.557   7.871  17.683  0.00  0.00    +0.000 C 
ATOM     19  C   UNL     1       8.302   7.137  18.519  0.00  0.00    +0.000 C 
ENDBRANCH  17  19
ENDBRANCH  16  17
ENDBRANCH   1  16
TORSDOF 5
ENDMDL
MODEL 6
REMARK VINA RESULT:      -7.4      1.794      3.776
REMARK  Name = 
REMARK  6 active torsions:
REMARK  status: ('A' for Active; 'I' for Inactive)
REMARK    1  A    between atoms: C_2  and  C_3
REMARK    2  A    between atoms: C_3  and  O_4
REMARK    3  A    between atoms: O_4  and  C_5
REMARK    4  A    between atoms: C_7  and  C_8
REMARK    5  A    between atoms: C_10  and  C_11
REMARK    6  A    between atoms: C_16  and  O_17
REMARK                            x       y       z     vdW  Elec       q    Type
REMARK                         _______ _______ _______ _____ _____    ______ ____
ROOT
ATOM      1  C   UNL     1       6.315   4.223  16.303  0.00  0.00    +0.000 A 
ATOM      2  C   UNL     1       7.276   4.857  17.052  0.00  0.00    +0.000 A 
ATOM      3  C   UNL     1       6.929   5.141  18.354  0.00  0.00    +0.000 A 
ATOM      4  C   UNL     1       7.897   5.767  19.308  0.00  0.00    +0.000 C 
ATOM      5  N   UNL     1       5.711   4.847  18.849  0.00  0.00    +0.000 NA
ATOM      6  C   UNL     1       4.838   4.218  18.041  0.00  0.00    +0.000 A 
ATOM      7  N   UNL     1       5.095   3.901  16.759  0.00  0.00    +0.000 NA
ENDROOT
BRANCH   6   8
ATOM      8  C   UNL     1       3.503   3.872  18.566  0.00  0.00    +0.000 A 
ATOM      9  C   UNL     1       2.858   2.695  18.126  0.00  0.00    +0.000 A 
ATOM     10  C   UNL     1       1.593   2.324  18.596  0.00  0.00    +0.000 A 
ATOM     11  C   UNL     1       0.938   3.127  19.522  0.00  0.00    +0.000 A 
ATOM     12  C   UNL     1       1.547   4.293  19.981  0.00  0.00    +0.000 A 
ATOM     13  C   UNL     1       2.815   4.656  19.511  0.00  0.00    +0.000 A 
BRANCH  13  14
ATOM     14  O   UNL     1       3.394   5.782  20.034  0.00  0.00    +0.000 OA
ATOM     15  H   UNL     1       3.384   5.733  21.001  0.00  0.00    +0.000 HD
ENDBRANCH  13  14
ENDBRANCH   6   8
BRANCH   1  16
ATOM     16  O   UNL     1       6.637   3.947  14.988  0.00  0.00    +0.000 OA
BRANCH  16  17
ATOM     17  C   UNL     1       5.544   4.194  14.103  0.00  0.00    +0.000 C 
BRANCH  17  19
ATOM     18  C   UNL     1       4.960   3.277  11.830  0.00  0.00    +0.000 C 
ATOM     19  C   UNL     1       5.852   3.519  12.799  0.00  0.00    +0.000 C 
ENDBRANCH  17  19
ENDBRANCH  16  17
ENDBRANCH   1  16
TORSDOF 5
ENDMDL
MODEL 7
REMARK VINA RESULT:      -7.3      1.456      1.699
REMARK  Name = 
REMARK  6 active torsions:
REMARK  status: ('A' for Active; 'I' for Inactive)
REMARK    1  A    between atoms: C_2  and  C_3
REMARK    2  A    between atoms: C_3  and  O_4
REMARK    3  A    between atoms: O_4  and  C_5
REMARK    4  A    between atoms: C_7  and  C_8
REMARK    5  A    between atoms: C_10  and  C_11
REMARK    6  A    between atoms: C_16  and  O_17
REMARK                            x       y       z     vdW  Elec       q    Type
REMARK                         _______ _______ _______ _____ _____    ______ ____
ROOT
ATOM      1  C   UNL     1       7.007   5.929  18.047  0.00  0.00    +0.000 A 
ATOM      2  C   UNL     1       7.105   5.417  16.776  0.00  0.00    +0.000 A 
ATOM      3  C   UNL     1       6.135   4.506  16.422  0.00  0.00    +0.000 A 
ATOM      4  C   UNL     1       6.073   3.915  15.049  0.00  0.00    +0.000 C 
ATOM      5  N   UNL     1       5.173   4.117  17.281  0.00  0.00    +0.000 NA
ATOM      6  C   UNL     1       5.154   4.681  18.503  0.00  0.00    +0.000 A 
ATOM      7  N   UNL     1       6.060   5.580  18.929  0.00  0.00    +0.000 NA
ENDROOT
BRANCH   6   8
ATOM      8  C   UNL     1       4.100   4.282  19.456  0.00  0.00    +0.000 A 
ATOM      9  C   UNL     1       3.116   5.217  19.848  0.00  0.00    +0.000 A 
ATOM     10  C   UNL     1       2.096   4.885  20.747  0.00  0.00    +0.000 A 
ATOM     11  C   UNL     1       2.037   3.603  21.281  0.00  0.00    +0.000 A 
ATOM     12  C   UNL     1       2.989   2.654  20.913  0.00  0.00    +0.000 A 
ATOM     13  C   UNL     1       4.004   2.992  20.008  0.00  0.00    +0.000 A 
BRANCH  13  14
ATOM     14  O   UNL     1       4.883   2.008  19.636  0.00  0.00    +0.000 OA
ATOM     15  H   UNL     1       5.030   1.406  20.379  0.00  0.00    +0.000 HD
ENDBRANCH  13  14
ENDBRANCH   6   8
BRANCH   1  16
ATOM     16  O   UNL     1       7.983   6.831  18.427  0.00  0.00    +0.000 OA
BRANCH  16  17
ATOM     17  C   UNL     1       7.864   8.076  17.739  0.00  0.00    +0.000 C 
BRANCH  17  19
ATOM     18  C   UNL     1       8.868  10.354  18.127  0.00  0.00    +0.000 C 
ATOM     19  C   UNL     1       8.584   9.114  18.547  0.00  0.00    +0.000 C 
ENDBRANCH  17  19
ENDBRANCH  16  17
ENDBRANCH   1  16
TORSDOF 5
ENDMDL
MODEL 8
REMARK VINA RESULT:      -7.3      1.814      3.525
REMARK  Name = 
REMARK  6 active torsions:
REMARK  status: ('A' for Active; 'I' for Inactive)
REMARK    1  A    between atoms: C_2  and  C_3
REMARK    2  A    between atoms: C_3  and  O_4
REMARK    3  A    between atoms: O_4  and  C_5
REMARK    4  A    between atoms: C_7  and  C_8
REMARK    5  A    between atoms: C_10  and  C_11
REMARK    6  A    between atoms: C_16  and  O_17
REMARK                            x       y       z     vdW  Elec       q    Type
REMARK                         _______ _______ _______ _____ _____    ______ ____
ROOT
ATOM      1  C   UNL     1       5.487   5.084  16.606  0.00  0.00    +0.000 A 
ATOM      2  C   UNL     1       6.682   5.518  17.126  0.00  0.00    +0.000 A 
ATOM      3  C   UNL     1       6.811   5.417  18.493  0.00  0.00    +0.000 A 
ATOM      4  C   UNL     1       8.080   5.788  19.193  0.00  0.00    +0.000 C 
ATOM      5  N   UNL     1       5.815   4.955  19.272  0.00  0.00    +0.000 NA
ATOM      6  C   UNL     1       4.683   4.544  18.671  0.00  0.00    +0.000 A 
ATOM      7  N   UNL     1       4.474   4.605  17.343  0.00  0.00    +0.000 NA
ENDROOT
BRANCH   6   8
ATOM      8  C   UNL     1       3.583   4.019  19.502  0.00  0.00    +0.000 A 
ATOM      9  C   UNL     1       2.353   4.712  19.560  0.00  0.00    +0.000 A 
ATOM     10  C   UNL     1       1.280   4.253  20.332  0.00  0.00    +0.000 A 
ATOM     11  C   UNL     1       1.413   3.083  21.071  0.00  0.00    +0.000 A 
ATOM     12  C   UNL     1       2.610   2.371  21.033  0.00  0.00    +0.000 A 
ATOM     13  C   UNL     1       3.678   2.834  20.254  0.00  0.00    +0.000 A 
BRANCH  13  14
ATOM     14  O   UNL     1       4.814   2.069  20.207  0.00  0.00    +0.000 OA
ATOM     15  H   UNL     1       4.845   1.485  20.978  0.00  0.00    +0.000 HD
ENDBRANCH  13  14
ENDBRANCH   6   8
BRANCH   1  16
ATOM     16  O   UNL     1       5.331   5.195  15.237  0.00  0.00    +0.000 OA
BRANCH  16  17
ATOM     17  C   UNL     1       6.453   4.676  14.523  0.00  0.00    +0.000 C 
BRANCH  17  19
ATOM     18  C   UNL     1       6.492   3.565  12.262  0.00  0.00    +0.000 C 
ATOM     19  C   UNL     1       5.931   3.750  13.465  0.00  0.00    +0.000 C 
ENDBRANCH  17  19
ENDBRANCH  16  17
ENDBRANCH   1  16
TORSDOF 5
ENDMDL
MODEL 9
REMARK VINA RESULT:      -7.2      1.469      3.354
REMARK  Name = 
REMARK  6 active torsions:
REMARK  status: ('A' for Active; 'I' for Inactive)
REMARK    1  A    between atoms: C_2  and  C_3
REMARK    2  A    between atoms: C_3  and  O_4
REMARK    3  A    between atoms: O_4  and  C_5
REMARK    4  A    between atoms: C_7  and  C_8
REMARK    5  A    between atoms: C_10  and  C_11
REMARK    6  A    between atoms: C_16  and  O_17
REMARK                            x       y       z     vdW  Elec       q    Type
REMARK                         _______ _______ _______ _____ _____    ______ ____
ROOT
ATOM      1  C   UNL     1       6.066   5.329  15.990  0.00  0.00    +0.000 A 
ATOM      2  C   UNL     1       7.068   5.776  16.816  0.00  0.00    +0.000 A 
ATOM      3  C   UNL     1       6.894   5.523  18.158  0.00  0.00    +0.000 A 
ATOM      4  C   UNL     1       7.934   5.890  19.169  0.00  0.00    +0.000 C 
ATOM      5  N   UNL     1       5.793   4.909  18.633  0.00  0.00    +0.000 NA
ATOM      6  C   UNL     1       4.869   4.500  17.745  0.00  0.00    +0.000 A 
ATOM      7  N   UNL     1       4.960   4.703  16.418  0.00  0.00    +0.000 NA
ENDROOT
BRANCH   6   8
ATOM      8  C   UNL     1       3.661   3.811  18.240  0.00  0.00    +0.000 A 
ATOM      9  C   UNL     1       2.386   4.206  17.775  0.00  0.00    +0.000 A 
ATOM     10  C   UNL     1       1.213   3.583  18.213  0.00  0.00    +0.000 A 
ATOM     11  C   UNL     1       1.286   2.543  19.133  0.00  0.00    +0.000 A 
ATOM     12  C   UNL     1       2.527   2.123  19.608  0.00  0.00    +0.000 A 
ATOM     13  C   UNL     1       3.698   2.749  19.161  0.00  0.00    +0.000 A 
BRANCH  13  14
ATOM     14  O   UNL     1       4.896   2.264  19.616  0.00  0.00    +0.000 OA
ATOM     15  H   UNL     1       5.619   2.644  19.096  0.00  0.00    +0.000 HD
ENDBRANCH  13  14
ENDBRANCH   6   8
BRANCH   1  16
ATOM     16  O   UNL     1       6.213   5.590  14.641  0.00  0.00    +0.000 OA
BRANCH  16  17
ATOM     17  C   UNL     1       7.244   4.799  14.049  0.00  0.00    +0.000 C 
BRANCH  17  19
ATOM     18  C   UNL     1       5.432   3.544  12.829  0.00  0.00    +0.000 C 
ATOM     19  C   UNL     1       6.653   4.093  12.865  0.00  0.00    +0.000 C 
ENDBRANCH  17  19
ENDBRANCH  16  17
ENDBRANCH   1  16
TORSDOF 5
ENDMDL
