MODEL 1
REMARK VINA RESULT:      -7.5      0.000      0.000
REMARK  Name = 
REMARK  5 active torsions:
REMARK  status: ('A' for Active; 'I' for Inactive)
REMARK    1  A    between atoms: C_1  and  O_2
REMARK    2  A    between atoms: O_2  and  C_3
REMARK    3  A    between atoms: C_6  and  C_7
REMARK    4  A    between atoms: C_7  and  N_8
REMARK    5  A    between atoms: C_18  and  C_19
REMARK                            x       y       z     vdW  Elec       q    Type
REMARK                         _______ _______ _______ _____ _____    ______ ____
ROOT
ATOM      1  N   UNL     1       5.959   3.800  17.683  0.00  0.00    +0.000 NA
ATOM      2  C   UNL     1       5.452   4.325  18.954  0.00  0.00    +0.000 C 
ATOM      3  C   UNL     1       4.886   5.753  18.903  0.00  0.00    +0.000 C 
ATOM      4  C   UNL     1       3.858   5.994  17.780  0.00  0.00    +0.000 C 
ATOM      5  C   UNL     1       4.286   5.273  16.479  0.00  0.00    +0.000 C 
ATOM      6  C   UNL     1       4.916   3.891  16.655  0.00  0.00    +0.000 C 
ATOM      7  N   UNL     1       3.828   7.427  17.453  0.00  0.00    +0.000 N 
ATOM      8  C   UNL     1       2.681   8.093  17.796  0.00  0.00    +0.000 C 
ATOM      9  O   UNL     1       2.454   9.264  17.564  0.00  0.00    +0.000 OA
ATOM     10  C   UNL     1       1.814   7.155  18.569  0.00  0.00    +0.000 C 
ATOM     11  C   UNL     1       2.352   5.754  18.179  0.00  0.00    +0.000 C 
ATOM     12  H   UNL     1       4.559   7.923  16.957  0.00  0.00    +0.000 HD
ENDROOT
BRANCH  11  13
ATOM     13  C   UNL     1       1.979   4.683  19.188  0.00  0.00    +0.000 A 
ATOM     14  C   UNL     1       2.128   4.937  20.556  0.00  0.00    +0.000 A 
ATOM     15  C   UNL     1       1.878   3.918  21.467  0.00  0.00    +0.000 A 
ATOM     16  N   UNL     1       1.497   2.672  21.122  0.00  0.00    +0.000 NA
ATOM     17  C   UNL     1       1.346   2.437  19.806  0.00  0.00    +0.000 A 
ATOM     18  C   UNL     1       1.558   3.395  18.822  0.00  0.00    +0.000 A 
ENDBRANCH  11  13
BRANCH   1  19
ATOM     19  C   UNL     1       7.249   4.367  17.245  0.00  0.00    +0.000 C 
BRANCH  19  23
ATOM     20  C   UNL     1       8.186   8.492  18.337  0.00  0.00    +0.000 A 
ATOM     21  C   UNL     1       8.484   7.457  19.225  0.00  0.00    +0.000 A 
ATOM     22  C   UNL     1       8.181   6.123  18.896  0.00  0.00    +0.000 A 
ATOM     23  C   UNL     1       7.557   5.800  17.677  0.00  0.00    +0.000 A 
ATOM     24  C   UNL     1       7.309   6.849  16.777  0.00  0.00    +0.000 A 
ATOM     25  C   UNL     1       7.602   8.175  17.110  0.00  0.00    +0.000 A 
BRANCH  20  27
ATOM     26  C   UNL     1       9.411  10.220  19.443  0.00  0.00    +0.000 C 
ATOM     27  O   UNL     1       8.389   9.830  18.535  0.00  0.00    +0.000 OA
ENDBRANCH  20  27
ENDBRANCH  19  23
ENDBRANCH   1  19
TORSDOF 4
ENDMDL
MODEL 2
REMARK VINA RESULT:      -7.3      4.968      7.864
REMARK  Name = 
REMARK  5 active torsions:
REMARK  status: ('A' for Active; 'I' for Inactive)
REMARK    1  A    between atoms: C_1  and  O_2
REMARK    2  A    between atoms: O_2  and  C_3
REMARK    3  A    between atoms: C_6  and  C_7
REMARK    4  A    between atoms: C_7  and  N_8
REMARK    5  A    between atoms: C_18  and  C_19
REMARK                            x       y       z     vdW  Elec       q    Type
REMARK                         _______ _______ _______ _____ _____    ______ ____
ROOT
ATOM      1  N   UNL     1       0.914   8.771  19.167  0.00  0.00    +0.000 NA
ATOM      2  C   UNL     1       0.170   9.563  20.149  0.00  0.00    +0.000 C 
ATOM      3  C   UNL     1       0.795  10.916  20.522  0.00  0.00    +0.000 C 
ATOM      4  C   UNL     1       1.185  11.795  19.316  0.00  0.00    +0.000 C 
ATOM      5  C   UNL     1       1.796  10.933  18.184  0.00  0.00    +0.000 C 
ATOM      6  C   UNL     1       1.147   9.568  17.957  0.00  0.00    +0.000 C 
ATOM      7  N   UNL     1       2.244  12.729  19.723  0.00  0.00    +0.000 N 
ATOM      8  C   UNL     1       1.885  14.051  19.776  0.00  0.00    +0.000 C 
ATOM      9  O   UNL     1       2.632  14.970  20.044  0.00  0.00    +0.000 OA
ATOM     10  C   UNL     1       0.414  14.141  19.534  0.00  0.00    +0.000 C 
ATOM     11  C   UNL     1       0.077  12.803  18.827  0.00  0.00    +0.000 C 
ATOM     12  H   UNL     1       3.206  12.471  19.908  0.00  0.00    +0.000 HD
ENDROOT
BRANCH  11  13
ATOM     13  C   UNL     1      -1.395  12.444  18.925  0.00  0.00    +0.000 A 
ATOM     14  C   UNL     1      -2.006  11.734  17.885  0.00  0.00    +0.000 A 
ATOM     15  C   UNL     1      -3.374  11.496  17.937  0.00  0.00    +0.000 A 
ATOM     16  N   UNL     1      -4.176  11.913  18.938  0.00  0.00    +0.000 NA
ATOM     17  C   UNL     1      -3.581  12.586  19.939  0.00  0.00    +0.000 A 
ATOM     18  C   UNL     1      -2.219  12.859  19.982  0.00  0.00    +0.000 A 
ENDBRANCH  11  13
BRANCH   1  19
ATOM     19  C   UNL     1       2.144   8.136  19.681  0.00  0.00    +0.000 C 
BRANCH  19  23
ATOM     20  C   UNL     1       2.257   3.777  19.412  0.00  0.00    +0.000 A 
ATOM     21  C   UNL     1       1.791   4.386  20.579  0.00  0.00    +0.000 A 
ATOM     22  C   UNL     1       1.756   5.789  20.688  0.00  0.00    +0.000 A 
ATOM     23  C   UNL     1       2.204   6.610  19.638  0.00  0.00    +0.000 A 
ATOM     24  C   UNL     1       2.624   5.980  18.455  0.00  0.00    +0.000 A 
ATOM     25  C   UNL     1       2.666   4.586  18.351  0.00  0.00    +0.000 A 
BRANCH  20  27
ATOM     26  C   UNL     1       3.006   2.027  17.968  0.00  0.00    +0.000 C 
ATOM     27  O   UNL     1       2.381   2.435  19.177  0.00  0.00    +0.000 OA
ENDBRANCH  20  27
ENDBRANCH  19  23
ENDBRANCH   1  19
TORSDOF 4
ENDMDL
MODEL 3
REMARK VINA RESULT:      -7.3      3.206      5.169
REMARK  Name = 
REMARK  5 active torsions:
REMARK  status: ('A' for Active; 'I' for Inactive)
REMARK    1  A    between atoms: C_1  and  O_2
REMARK    2  A    between atoms: O_2  and  C_3
REMARK    3  A    between atoms: C_6  and  C_7
REMARK    4  A    between atoms: C_7  and  N_8
REMARK    5  A    between atoms: C_18  and  C_19
REMARK                            x       y       z     vdW  Elec       q    Type
REMARK                         _______ _______ _______ _____ _____    ______ ____
ROOT
ATOM      1  N   UNL     1       6.350   5.889  17.881  0.00  0.00    +0.000 NA
ATOM      2  C   UNL     1       5.081   6.157  17.198  0.00  0.00    +0.000 C 
ATOM      3  C   UNL     1       4.039   5.030  17.267  0.00  0.00    +0.000 C 
ATOM      4  C   UNL     1       3.774   4.489  18.686  0.00  0.00    +0.000 C 
ATOM      5  C   UNL     1       5.094   4.388  19.490  0.00  0.00    +0.000 C 
ATOM      6  C   UNL     1       6.096   5.523  19.279  0.00  0.00    +0.000 C 
ATOM      7  N   UNL     1       3.258   3.116  18.590  0.00  0.00    +0.000 N 
ATOM      8  C   UNL     1       1.949   2.945  18.954  0.00  0.00    +0.000 C 
ATOM      9  O   UNL     1       1.363   1.881  18.986  0.00  0.00    +0.000 OA
ATOM     10  C   UNL     1       1.361   4.292  19.216  0.00  0.00    +0.000 C 
ATOM     11  C   UNL     1       2.600   5.189  19.469  0.00  0.00    +0.000 C 
ATOM     12  H   UNL     1       3.809   2.306  18.331  0.00  0.00    +0.000 HD
ENDROOT
BRANCH  11  13
ATOM     13  C   UNL     1       2.305   6.665  19.267  0.00  0.00    +0.000 A 
ATOM     14  C   UNL     1       1.876   7.440  20.350  0.00  0.00    +0.000 A 
ATOM     15  C   UNL     1       1.514   8.764  20.136  0.00  0.00    +0.000 A 
ATOM     16  N   UNL     1       1.543   9.370  18.933  0.00  0.00    +0.000 NA
ATOM     17  C   UNL     1       1.966   8.623  17.897  0.00  0.00    +0.000 A 
ATOM     18  C   UNL     1       2.362   7.296  18.015  0.00  0.00    +0.000 A 
ENDBRANCH  11  13
BRANCH   1  19
ATOM     19  C   UNL     1       7.239   4.934  17.190  0.00  0.00    +0.000 C 
BRANCH  19  23
ATOM     20  C   UNL     1       6.429   4.019  12.996  0.00  0.00    +0.000 A 
ATOM     21  C   UNL     1       7.340   5.027  13.321  0.00  0.00    +0.000 A 
ATOM     22  C   UNL     1       7.606   5.343  14.666  0.00  0.00    +0.000 A 
ATOM     23  C   UNL     1       6.953   4.667  15.713  0.00  0.00    +0.000 A 
ATOM     24  C   UNL     1       6.078   3.625  15.367  0.00  0.00    +0.000 A 
ATOM     25  C   UNL     1       5.808   3.318  14.030  0.00  0.00    +0.000 A 
BRANCH  20  27
ATOM     26  C   UNL     1       4.779   3.001  11.599  0.00  0.00    +0.000 C 
ATOM     27  O   UNL     1       6.046   3.629  11.742  0.00  0.00    +0.000 OA
ENDBRANCH  20  27
ENDBRANCH  19  23
ENDBRANCH   1  19
TORSDOF 4
ENDMDL
MODEL 4
REMARK VINA RESULT:      -7.3      2.596      4.145
REMARK  Name = 
REMARK  5 active torsions:
REMARK  status: ('A' for Active; 'I' for Inactive)
REMARK    1  A    between atoms: C_1  and  O_2
REMARK    2  A    between atoms: O_2  and  C_3
REMARK    3  A    between atoms: C_6  and  C_7
REMARK    4  A    between atoms: C_7  and  N_8
REMARK    5  A    between atoms: C_18  and  C_19
REMARK                            x       y       z     vdW  Elec       q    Type
REMARK                         _______ _______ _______ _____ _____    ______ ____
ROOT
ATOM      1  N   UNL     1       7.160   7.657  18.176  0.00  0.00    +0.000 NA
ATOM      2  C   UNL     1       5.829   7.579  17.568  0.00  0.00    +0.000 C 
ATOM      3  C   UNL     1       5.747   6.793  16.250  0.00  0.00    +0.000 C 
ATOM      4  C   UNL     1       6.393   5.394  16.298  0.00  0.00    +0.000 C 
ATOM      5  C   UNL     1       7.709   5.425  17.112  0.00  0.00    +0.000 C 
ATOM      6  C   UNL     1       7.705   6.307  18.361  0.00  0.00    +0.000 C 
ATOM      7  N   UNL     1       6.774   4.992  14.937  0.00  0.00    +0.000 N 
ATOM      8  C   UNL     1       6.055   3.959  14.397  0.00  0.00    +0.000 C 
ATOM      9  O   UNL     1       6.255   3.459  13.307  0.00  0.00    +0.000 OA
ATOM     10  C   UNL     1       4.946   3.624  15.339  0.00  0.00    +0.000 C 
ATOM     11  C   UNL     1       5.424   4.215  16.690  0.00  0.00    +0.000 C 
ATOM     12  H   UNL     1       7.546   5.384  14.411  0.00  0.00    +0.000 HD
ENDROOT
BRANCH  11  13
ATOM     13  C   UNL     1       4.283   4.441  17.666  0.00  0.00    +0.000 A 
ATOM     14  C   UNL     1       4.557   4.591  19.030  0.00  0.00    +0.000 A 
ATOM     15  C   UNL     1       3.501   4.699  19.927  0.00  0.00    +0.000 A 
ATOM     16  N   UNL     1       2.201   4.664  19.571  0.00  0.00    +0.000 NA
ATOM     17  C   UNL     1       1.945   4.529  18.258  0.00  0.00    +0.000 A 
ATOM     18  C   UNL     1       2.932   4.429  17.286  0.00  0.00    +0.000 A 
ENDBRANCH  11  13
BRANCH   1  19
ATOM     19  C   UNL     1       8.103   8.568  17.497  0.00  0.00    +0.000 C 
BRANCH  19  23
ATOM     20  C   UNL     1       9.449  12.160  19.590  0.00  0.00    +0.000 A 
ATOM     21  C   UNL     1       9.574  10.912  20.205  0.00  0.00    +0.000 A 
ATOM     22  C   UNL     1       9.137   9.745  19.551  0.00  0.00    +0.000 A 
ATOM     23  C   UNL     1       8.550   9.806  18.274  0.00  0.00    +0.000 A 
ATOM     24  C   UNL     1       8.477  11.062  17.652  0.00  0.00    +0.000 A 
ATOM     25  C   UNL     1       8.904  12.222  18.307  0.00  0.00    +0.000 A 
BRANCH  20  27
ATOM     26  C   UNL     1       9.351  14.542  19.436  0.00  0.00    +0.000 C 
ATOM     27  O   UNL     1       9.795  13.374  20.115  0.00  0.00    +0.000 OA
ENDBRANCH  20  27
ENDBRANCH  19  23
ENDBRANCH   1  19
TORSDOF 4
ENDMDL
MODEL 5
REMARK VINA RESULT:      -7.3      2.589      4.228
REMARK  Name = 
REMARK  5 active torsions:
REMARK  status: ('A' for Active; 'I' for Inactive)
REMARK    1  A    between atoms: C_1  and  O_2
REMARK    2  A    between atoms: O_2  and  C_3
REMARK    3  A    between atoms: C_6  and  C_7
REMARK    4  A    between atoms: C_7  and  N_8
REMARK    5  A    between atoms: C_18  and  C_19
REMARK                            x       y       z     vdW  Elec       q    Type
REMARK                         _______ _______ _______ _____ _____    ______ ____
ROOT
ATOM      1  N   UNL     1       7.168   7.657  18.163  0.00  0.00    +0.000 NA
ATOM      2  C   UNL     1       5.828   7.560  17.576  0.00  0.00    +0.000 C 
ATOM      3  C   UNL     1       5.737   6.772  16.260  0.00  0.00    +0.000 C 
ATOM      4  C   UNL     1       6.403   5.382  16.298  0.00  0.00    +0.000 C 
ATOM      5  C   UNL     1       7.731   5.431  17.092  0.00  0.00    +0.000 C 
ATOM      6  C   UNL     1       7.733   6.314  18.340  0.00  0.00    +0.000 C 
ATOM      7  N   UNL     1       6.768   4.985  14.931  0.00  0.00    +0.000 N 
ATOM      8  C   UNL     1       6.055   3.941  14.403  0.00  0.00    +0.000 C 
ATOM      9  O   UNL     1       6.246   3.443  13.311  0.00  0.00    +0.000 OA
ATOM     10  C   UNL     1       4.966   3.591  15.362  0.00  0.00    +0.000 C 
ATOM     11  C   UNL     1       5.456   4.190  16.706  0.00  0.00    +0.000 C 
ATOM     12  H   UNL     1       7.527   5.386  14.394  0.00  0.00    +0.000 HD
ENDROOT
BRANCH  11  13
ATOM     13  C   UNL     1       4.327   4.401  17.698  0.00  0.00    +0.000 A 
ATOM     14  C   UNL     1       3.001   4.394  17.251  0.00  0.00    +0.000 A 
ATOM     15  C   UNL     1       1.980   4.686  18.148  0.00  0.00    +0.000 A 
ATOM     16  N   UNL     1       2.179   4.986  19.447  0.00  0.00    +0.000 NA
ATOM     17  C   UNL     1       3.455   4.982  19.873  0.00  0.00    +0.000 A 
ATOM     18  C   UNL     1       4.540   4.688  19.056  0.00  0.00    +0.000 A 
ENDBRANCH  11  13
BRANCH   1  19
ATOM     19  C   UNL     1       8.087   8.580  17.469  0.00  0.00    +0.000 C 
BRANCH  19  23
ATOM     20  C   UNL     1       9.419  12.189  19.542  0.00  0.00    +0.000 A 
ATOM     21  C   UNL     1       9.574  10.942  20.153  0.00  0.00    +0.000 A 
ATOM     22  C   UNL     1       9.142   9.770  19.506  0.00  0.00    +0.000 A 
ATOM     23  C   UNL     1       8.530   9.823  18.240  0.00  0.00    +0.000 A 
ATOM     24  C   UNL     1       8.427  11.079  17.621  0.00  0.00    +0.000 A 
ATOM     25  C   UNL     1       8.849  12.245  18.269  0.00  0.00    +0.000 A 
BRANCH  20  27
ATOM     26  C   UNL     1       9.924  13.506  21.470  0.00  0.00    +0.000 C 
ATOM     27  O   UNL     1       9.756  13.408  20.062  0.00  0.00    +0.000 OA
ENDBRANCH  20  27
ENDBRANCH  19  23
ENDBRANCH   1  19
TORSDOF 4
ENDMDL
MODEL 6
REMARK VINA RESULT:      -7.2      5.022      7.880
REMARK  Name = 
REMARK  5 active torsions:
REMARK  status: ('A' for Active; 'I' for Inactive)
REMARK    1  A    between atoms: C_1  and  O_2
REMARK    2  A    between atoms: O_2  and  C_3
REMARK    3  A    between atoms: C_6  and  C_7
REMARK    4  A    between atoms: C_7  and  N_8
REMARK    5  A    between atoms: C_18  and  C_19
REMARK                            x       y       z     vdW  Elec       q    Type
REMARK                         _______ _______ _______ _____ _____    ______ ____
ROOT
ATOM      1  N   UNL     1       0.807   8.865  19.309  0.00  0.00    +0.000 NA
ATOM      2  C   UNL     1       0.072   9.703  20.260  0.00  0.00    +0.000 C 
ATOM      3  C   UNL     1       0.748  11.030  20.637  0.00  0.00    +0.000 C 
ATOM      4  C   UNL     1       1.213  11.875  19.435  0.00  0.00    +0.000 C 
ATOM      5  C   UNL     1       1.817  10.973  18.331  0.00  0.00    +0.000 C 
ATOM      6  C   UNL     1       1.112   9.636  18.098  0.00  0.00    +0.000 C 
ATOM      7  N   UNL     1       2.302  12.765  19.863  0.00  0.00    +0.000 N 
ATOM      8  C   UNL     1       2.003  14.102  19.892  0.00  0.00    +0.000 C 
ATOM      9  O   UNL     1       2.784  14.989  20.172  0.00  0.00    +0.000 OA
ATOM     10  C   UNL     1       0.546  14.257  19.605  0.00  0.00    +0.000 C 
ATOM     11  C   UNL     1       0.168  12.927  18.902  0.00  0.00    +0.000 C 
ATOM     12  H   UNL     1       3.245  12.465  20.079  0.00  0.00    +0.000 HD
ENDROOT
BRANCH  11  13
ATOM     13  C   UNL     1      -1.321  12.638  18.960  0.00  0.00    +0.000 A 
ATOM     14  C   UNL     1      -2.077  13.106  20.041  0.00  0.00    +0.000 A 
ATOM     15  C   UNL     1      -3.418  12.753  20.135  0.00  0.00    +0.000 A 
ATOM     16  N   UNL     1      -4.058  11.971  19.243  0.00  0.00    +0.000 NA
ATOM     17  C   UNL     1      -3.328  11.532  18.201  0.00  0.00    +0.000 A 
ATOM     18  C   UNL     1      -1.988  11.844  18.014  0.00  0.00    +0.000 A 
ENDBRANCH  11  13
BRANCH   1  19
ATOM     19  C   UNL     1       1.991   8.181  19.867  0.00  0.00    +0.000 C 
BRANCH  19  23
ATOM     20  C   UNL     1       2.424   3.883  19.209  0.00  0.00    +0.000 A 
ATOM     21  C   UNL     1       2.737   4.776  18.181  0.00  0.00    +0.000 A 
ATOM     22  C   UNL     1       2.594   6.163  18.371  0.00  0.00    +0.000 A 
ATOM     23  C   UNL     1       2.119   6.684  19.588  0.00  0.00    +0.000 A 
ATOM     24  C   UNL     1       1.855   5.774  20.624  0.00  0.00    +0.000 A 
ATOM     25  C   UNL     1       1.989   4.395  20.432  0.00  0.00    +0.000 A 
BRANCH  20  27
ATOM     26  C   UNL     1       3.324   1.923  18.182  0.00  0.00    +0.000 C 
ATOM     27  O   UNL     1       2.479   2.518  19.158  0.00  0.00    +0.000 OA
ENDBRANCH  20  27
ENDBRANCH  19  23
ENDBRANCH   1  19
TORSDOF 4
ENDMDL
MODEL 7
REMARK VINA RESULT:      -7.2      5.187      7.912
REMARK  Name = 
REMARK  5 active torsions:
REMARK  status: ('A' for Active; 'I' for Inactive)
REMARK    1  A    between atoms: C_1  and  O_2
REMARK    2  A    between atoms: O_2  and  C_3
REMARK    3  A    between atoms: C_6  and  C_7
REMARK    4  A    between atoms: C_7  and  N_8
REMARK    5  A    between atoms: C_18  and  C_19
REMARK                            x       y       z     vdW  Elec       q    Type
REMARK                         _______ _______ _______ _____ _____    ______ ____
ROOT
ATOM      1  N   UNL     1       0.675   8.884  19.591  0.00  0.00    +0.000 NA
ATOM      2  C   UNL     1      -0.133   9.671  20.525  0.00  0.00    +0.000 C 
ATOM      3  C   UNL     1       0.449  11.038  20.917  0.00  0.00    +0.000 C 
ATOM      4  C   UNL     1       0.887  11.913  19.726  0.00  0.00    +0.000 C 
ATOM      5  C   UNL     1       1.571  11.052  18.636  0.00  0.00    +0.000 C 
ATOM      6  C   UNL     1       0.958   9.674  18.387  0.00  0.00    +0.000 C 
ATOM      7  N   UNL     1       1.906  12.869  20.179  0.00  0.00    +0.000 N 
ATOM      8  C   UNL     1       1.523  14.184  20.201  0.00  0.00    +0.000 C 
ATOM      9  O   UNL     1       2.239  15.119  20.499  0.00  0.00    +0.000 OA
ATOM     10  C   UNL     1       0.066  14.247  19.881  0.00  0.00    +0.000 C 
ATOM     11  C   UNL     1      -0.211  12.897  19.170  0.00  0.00    +0.000 C 
ATOM     12  H   UNL     1       2.862  12.629  20.417  0.00  0.00    +0.000 HD
ENDROOT
BRANCH  11  13
ATOM     13  C   UNL     1      -1.680  12.514  19.193  0.00  0.00    +0.000 A 
ATOM     14  C   UNL     1      -2.214  11.754  18.147  0.00  0.00    +0.000 A 
ATOM     15  C   UNL     1      -3.579  11.492  18.126  0.00  0.00    +0.000 A 
ATOM     16  N   UNL     1      -4.446  11.929  19.060  0.00  0.00    +0.000 NA
ATOM     17  C   UNL     1      -3.925  12.651  20.069  0.00  0.00    +0.000 A 
ATOM     18  C   UNL     1      -2.573  12.951  20.183  0.00  0.00    +0.000 A 
ENDBRANCH  11  13
BRANCH   1  19
ATOM     19  C   UNL     1       1.887   8.275  20.176  0.00  0.00    +0.000 C 
BRANCH  19  23
ATOM     20  C   UNL     1       2.935   4.195  19.014  0.00  0.00    +0.000 A 
ATOM     21  C   UNL     1       3.326   5.267  18.208  0.00  0.00    +0.000 A 
ATOM     22  C   UNL     1       2.989   6.587  18.560  0.00  0.00    +0.000 A 
ATOM     23  C   UNL     1       2.239   6.860  19.718  0.00  0.00    +0.000 A 
ATOM     24  C   UNL     1       1.897   5.775  20.541  0.00  0.00    +0.000 A 
ATOM     25  C   UNL     1       2.225   4.462  20.185  0.00  0.00    +0.000 A 
BRANCH  20  27
ATOM     26  C   UNL     1       4.086   2.192  19.621  0.00  0.00    +0.000 C 
ATOM     27  O   UNL     1       3.159   2.866  18.782  0.00  0.00    +0.000 OA
ENDBRANCH  20  27
ENDBRANCH  19  23
ENDBRANCH   1  19
TORSDOF 4
ENDMDL
MODEL 8
REMARK VINA RESULT:      -7.2      2.588      4.340
REMARK  Name = 
REMARK  5 active torsions:
REMARK  status: ('A' for Active; 'I' for Inactive)
REMARK    1  A    between atoms: C_1  and  O_2
REMARK    2  A    between atoms: O_2  and  C_3
REMARK    3  A    between atoms: C_6  and  C_7
REMARK    4  A    between atoms: C_7  and  N_8
REMARK    5  A    between atoms: C_18  and  C_19
REMARK                            x       y       z     vdW  Elec       q    Type
REMARK                         _______ _______ _______ _____ _____    ______ ____
ROOT
ATOM      1  N   UNL     1       7.136   7.787  18.132  0.00  0.00    +0.000 NA
ATOM      2  C   UNL     1       5.791   7.654  17.566  0.00  0.00    +0.000 C 
ATOM      3  C   UNL     1       5.696   6.845  16.263  0.00  0.00    +0.000 C 
ATOM      4  C   UNL     1       6.391   5.470  16.311  0.00  0.00    +0.000 C 
ATOM      5  C   UNL     1       7.730   5.558  17.085  0.00  0.00    +0.000 C 
ATOM      6  C   UNL     1       7.732   6.460  18.319  0.00  0.00    +0.000 C 
ATOM      7  N   UNL     1       6.745   5.060  14.945  0.00  0.00    +0.000 N 
ATOM      8  C   UNL     1       6.046   3.994  14.443  0.00  0.00    +0.000 C 
ATOM      9  O   UNL     1       6.230   3.484  13.356  0.00  0.00    +0.000 OA
ATOM     10  C   UNL     1       4.979   3.636  15.423  0.00  0.00    +0.000 C 
ATOM     11  C   UNL     1       5.476   4.265  16.751  0.00  0.00    +0.000 C 
ATOM     12  H   UNL     1       7.487   5.469  14.391  0.00  0.00    +0.000 HD
ENDROOT
BRANCH  11  13
ATOM     13  C   UNL     1       4.358   4.467  17.757  0.00  0.00    +0.000 A 
ATOM     14  C   UNL     1       3.027   4.466  17.324  0.00  0.00    +0.000 A 
ATOM     15  C   UNL     1       2.016   4.751  18.234  0.00  0.00    +0.000 A 
ATOM     16  N   UNL     1       2.229   5.037  19.534  0.00  0.00    +0.000 NA
ATOM     17  C   UNL     1       3.509   5.027  19.947  0.00  0.00    +0.000 A 
ATOM     18  C   UNL     1       4.585   4.740  19.115  0.00  0.00    +0.000 A 
ENDBRANCH  11  13
BRANCH   1  19
ATOM     19  C   UNL     1       8.026   8.719  17.411  0.00  0.00    +0.000 C 
BRANCH  19  23
ATOM     20  C   UNL     1       9.568  12.020  19.822  0.00  0.00    +0.000 A 
ATOM     21  C   UNL     1       9.064  12.273  18.544  0.00  0.00    +0.000 A 
ATOM     22  C   UNL     1       8.572  11.222  17.748  0.00  0.00    +0.000 A 
ATOM     23  C   UNL     1       8.591   9.893  18.209  0.00  0.00    +0.000 A 
ATOM     24  C   UNL     1       9.056   9.665  19.514  0.00  0.00    +0.000 A 
ATOM     25  C   UNL     1       9.553  10.710  20.300  0.00  0.00    +0.000 A 
BRANCH  20  27
ATOM     26  C   UNL     1      10.832  14.023  20.137  0.00  0.00    +0.000 C 
ATOM     27  O   UNL     1      10.108  12.931  20.688  0.00  0.00    +0.000 OA
ENDBRANCH  20  27
ENDBRANCH  19  23
ENDBRANCH   1  19
TORSDOF 4
ENDMDL
MODEL 9
REMARK VINA RESULT:      -7.2      3.900      7.208
REMARK  Name = 
REMARK  5 active torsions:
REMARK  status: ('A' for Active; 'I' for Inactive)
REMARK    1  A    between atoms: C_1  and  O_2
REMARK    2  A    between atoms: O_2  and  C_3
REMARK    3  A    between atoms: C_6  and  C_7
REMARK    4  A    between atoms: C_7  and  N_8
REMARK    5  A    between atoms: C_18  and  C_19
REMARK                            x       y       z     vdW  Elec       q    Type
REMARK                         _______ _______ _______ _____ _____    ______ ____
ROOT
ATOM      1  N   UNL     1       2.104   7.928  19.728  0.00  0.00    +0.000 NA
ATOM      2  C   UNL     1       3.086   6.964  20.231  0.00  0.00    +0.000 C 
ATOM      3  C   UNL     1       2.868   5.506  19.796  0.00  0.00    +0.000 C 
ATOM      4  C   UNL     1       2.662   5.314  18.280  0.00  0.00    +0.000 C 
ATOM      5  C   UNL     1       1.782   6.447  17.698  0.00  0.00    +0.000 C 
ATOM      6  C   UNL     1       2.028   7.846  18.265  0.00  0.00    +0.000 C 
ATOM      7  N   UNL     1       1.916   4.069  18.048  0.00  0.00    +0.000 N 
ATOM      8  C   UNL     1       2.619   3.056  17.450  0.00  0.00    +0.000 C 
ATOM      9  O   UNL     1       2.161   1.975  17.137  0.00  0.00    +0.000 OA
ATOM     10  C   UNL     1       4.044   3.485  17.336  0.00  0.00    +0.000 C 
ATOM     11  C   UNL     1       3.971   5.030  17.451  0.00  0.00    +0.000 C 
ATOM     12  H   UNL     1       0.932   3.937  18.247  0.00  0.00    +0.000 HD
ENDROOT
BRANCH  11  13
ATOM     13  C   UNL     1       5.296   5.650  17.857  0.00  0.00    +0.000 A 
ATOM     14  C   UNL     1       5.777   6.771  17.170  0.00  0.00    +0.000 A 
ATOM     15  C   UNL     1       7.035   7.271  17.482  0.00  0.00    +0.000 A 
ATOM     16  N   UNL     1       7.848   6.741  18.418  0.00  0.00    +0.000 NA
ATOM     17  C   UNL     1       7.376   5.670  19.082  0.00  0.00    +0.000 A 
ATOM     18  C   UNL     1       6.127   5.109  18.850  0.00  0.00    +0.000 A 
ENDBRANCH  11  13
BRANCH   1  19
ATOM     19  C   UNL     1       0.779   7.863  20.377  0.00  0.00    +0.000 C 
BRANCH  19  23
ATOM     20  C   UNL     1      -0.694  11.368  22.530  0.00  0.00    +0.000 A 
ATOM     21  C   UNL     1      -0.189  11.513  21.236  0.00  0.00    +0.000 A 
ATOM     22  C   UNL     1       0.300  10.398  20.530  0.00  0.00    +0.000 A 
ATOM     23  C   UNL     1       0.308   9.117  21.112  0.00  0.00    +0.000 A 
ATOM     24  C   UNL     1      -0.248   8.984  22.395  0.00  0.00    +0.000 A 
ATOM     25  C   UNL     1      -0.725  10.095  23.098  0.00  0.00    +0.000 A 
BRANCH  20  27
ATOM     26  C   UNL     1      -2.545  12.693  23.256  0.00  0.00    +0.000 C 
ATOM     27  O   UNL     1      -1.166  12.360  23.344  0.00  0.00    +0.000 OA
ENDBRANCH  20  27
ENDBRANCH  19  23
ENDBRANCH   1  19
TORSDOF 4
ENDMDL
