MODEL 1
REMARK VINA RESULT:      -6.6      0.000      0.000
REMARK  Name = 
REMARK  4 active torsions:
REMARK  status: ('A' for Active; 'I' for Inactive)
REMARK    1  A    between atoms: C_2  and  O_3
REMARK    2  A    between atoms: C_2  and  C_4
REMARK    3  A    between atoms: C_6  and  C_8
REMARK    4  A    between atoms: N_10  and  C_11
REMARK                            x       y       z     vdW  Elec       q    Type
REMARK                         _______ _______ _______ _____ _____    ______ ____
ROOT
ATOM      1  C   UNL     1       5.334   4.478  18.552  0.00  0.00    +0.000 C 
ATOM      2  O   UNL     1       5.400   5.338  19.426  0.00  0.00    +0.000 OA
ATOM      3  N   UNL     1       4.434   3.422  18.572  0.00  0.00    +0.000 N 
ATOM      4  H   UNL     1       4.607   2.650  17.937  0.00  0.00    +0.000 HD
ENDROOT
BRANCH   3   5
ATOM      5  C   UNL     1       3.374   3.264  19.495  0.00  0.00    +0.000 A 
ATOM      6  C   UNL     1       3.536   2.640  20.737  0.00  0.00    +0.000 A 
ATOM      7  C   UNL     1       2.457   2.488  21.608  0.00  0.00    +0.000 A 
ATOM      8  C   UNL     1       1.200   2.961  21.248  0.00  0.00    +0.000 A 
ATOM      9  C   UNL     1       1.029   3.606  20.025  0.00  0.00    +0.000 A 
ATOM     10  C   UNL     1       2.115   3.770  19.156  0.00  0.00    +0.000 A 
ENDBRANCH   3   5
BRANCH   1  13
ATOM     11  C   UNL     1       5.895   4.480  16.112  0.00  0.00    +0.000 C 
ATOM     12 CL   UNL     1       4.206   4.401  15.647  0.00  0.00    +0.000 Cl
ATOM     13  C   UNL     1       6.312   4.472  17.397  0.00  0.00    +0.000 C 
ATOM     14 CL   UNL     1       7.989   4.479  17.869  0.00  0.00    +0.000 Cl
BRANCH  11  16
ATOM     15  O   UNL     1       7.725   5.339  14.778  0.00  0.00    +0.000 OA
ATOM     16  C   UNL     1       6.830   4.527  14.942  0.00  0.00    +0.000 C 
BRANCH  16  17
ATOM     17  O   UNL     1       6.600   3.557  14.024  0.00  0.00    +0.000 OA
ATOM     18  H   UNL     1       5.713   3.143  14.102  0.00  0.00    +0.000 HD
ENDBRANCH  16  17
ENDBRANCH  11  16
ENDBRANCH   1  13
TORSDOF 4
ENDMDL
MODEL 2
REMARK VINA RESULT:      -6.5      0.195      1.211
REMARK  Name = 
REMARK  4 active torsions:
REMARK  status: ('A' for Active; 'I' for Inactive)
REMARK    1  A    between atoms: C_2  and  O_3
REMARK    2  A    between atoms: C_2  and  C_4
REMARK    3  A    between atoms: C_6  and  C_8
REMARK    4  A    between atoms: N_10  and  C_11
REMARK                            x       y       z     vdW  Elec       q    Type
REMARK                         _______ _______ _______ _____ _____    ______ ____
ROOT
ATOM      1  C   UNL     1       5.353   4.542  18.677  0.00  0.00    +0.000 C 
ATOM      2  O   UNL     1       5.473   5.352  19.591  0.00  0.00    +0.000 OA
ATOM      3  N   UNL     1       4.390   3.544  18.648  0.00  0.00    +0.000 N 
ATOM      4  H   UNL     1       4.515   2.795  17.976  0.00  0.00    +0.000 HD
ENDROOT
BRANCH   3   5
ATOM      5  C   UNL     1       3.323   3.407  19.565  0.00  0.00    +0.000 A 
ATOM      6  C   UNL     1       2.086   4.037  19.390  0.00  0.00    +0.000 A 
ATOM      7  C   UNL     1       1.067   3.889  20.333  0.00  0.00    +0.000 A 
ATOM      8  C   UNL     1       1.273   3.108  21.464  0.00  0.00    +0.000 A 
ATOM      9  C   UNL     1       2.493   2.456  21.641  0.00  0.00    +0.000 A 
ATOM     10  C   UNL     1       3.509   2.593  20.688  0.00  0.00    +0.000 A 
ENDBRANCH   3   5
BRANCH   1  13
ATOM     11  C   UNL     1       5.910   4.520  16.236  0.00  0.00    +0.000 C 
ATOM     12 CL   UNL     1       4.221   4.416  15.776  0.00  0.00    +0.000 Cl
ATOM     13  C   UNL     1       6.329   4.532  17.520  0.00  0.00    +0.000 C 
ATOM     14 CL   UNL     1       8.008   4.563  17.989  0.00  0.00    +0.000 Cl
BRANCH  11  16
ATOM     15  O   UNL     1       7.741   5.369  14.897  0.00  0.00    +0.000 OA
ATOM     16  C   UNL     1       6.842   4.562  15.063  0.00  0.00    +0.000 C 
BRANCH  16  17
ATOM     17  O   UNL     1       6.604   3.593  14.146  0.00  0.00    +0.000 OA
ATOM     18  H   UNL     1       7.139   2.781  14.283  0.00  0.00    +0.000 HD
ENDBRANCH  16  17
ENDBRANCH  11  16
ENDBRANCH   1  13
TORSDOF 4
ENDMDL
MODEL 3
REMARK VINA RESULT:      -6.5      3.204      5.918
REMARK  Name = 
REMARK  4 active torsions:
REMARK  status: ('A' for Active; 'I' for Inactive)
REMARK    1  A    between atoms: C_2  and  O_3
REMARK    2  A    between atoms: C_2  and  C_4
REMARK    3  A    between atoms: C_6  and  C_8
REMARK    4  A    between atoms: N_10  and  C_11
REMARK                            x       y       z     vdW  Elec       q    Type
REMARK                         _______ _______ _______ _____ _____    ______ ____
ROOT
ATOM      1  C   UNL     1       4.417   3.782  17.839  0.00  0.00    +0.000 C 
ATOM      2  O   UNL     1       4.883   3.579  16.721  0.00  0.00    +0.000 OA
ATOM      3  N   UNL     1       4.939   4.695  18.742  0.00  0.00    +0.000 N 
ATOM      4  H   UNL     1       4.630   4.626  19.706  0.00  0.00    +0.000 HD
ENDROOT
BRANCH   3   5
ATOM      5  C   UNL     1       5.967   5.626  18.466  0.00  0.00    +0.000 A 
ATOM      6  C   UNL     1       7.193   5.624  19.140  0.00  0.00    +0.000 A 
ATOM      7  C   UNL     1       8.172   6.576  18.849  0.00  0.00    +0.000 A 
ATOM      8  C   UNL     1       7.936   7.542  17.877  0.00  0.00    +0.000 A 
ATOM      9  C   UNL     1       6.728   7.541  17.181  0.00  0.00    +0.000 A 
ATOM     10  C   UNL     1       5.752   6.579  17.464  0.00  0.00    +0.000 A 
ENDBRANCH   3   5
BRANCH   1  13
ATOM     11  C   UNL     1       2.041   3.525  18.586  0.00  0.00    +0.000 C 
ATOM     12 CL   UNL     1       1.728   5.243  18.432  0.00  0.00    +0.000 Cl
ATOM     13  C   UNL     1       3.248   2.966  18.347  0.00  0.00    +0.000 C 
ATOM     14 CL   UNL     1       3.588   1.271  18.565  0.00  0.00    +0.000 Cl
BRANCH  11  16
ATOM     15  O   UNL     1       0.220   1.943  18.364  0.00  0.00    +0.000 OA
ATOM     16  C   UNL     1       0.845   2.744  19.039  0.00  0.00    +0.000 C 
BRANCH  16  17
ATOM     17  O   UNL     1       0.480   3.002  20.319  0.00  0.00    +0.000 OA
ATOM     18  H   UNL     1       0.168   3.922  20.461  0.00  0.00    +0.000 HD
ENDBRANCH  16  17
ENDBRANCH  11  16
ENDBRANCH   1  13
TORSDOF 4
ENDMDL
MODEL 4
REMARK VINA RESULT:      -6.5      3.210      6.043
REMARK  Name = 
REMARK  4 active torsions:
REMARK  status: ('A' for Active; 'I' for Inactive)
REMARK    1  A    between atoms: C_2  and  O_3
REMARK    2  A    between atoms: C_2  and  C_4
REMARK    3  A    between atoms: C_6  and  C_8
REMARK    4  A    between atoms: N_10  and  C_11
REMARK                            x       y       z     vdW  Elec       q    Type
REMARK                         _______ _______ _______ _____ _____    ______ ____
ROOT
ATOM      1  C   UNL     1       4.394   3.791  17.837  0.00  0.00    +0.000 C 
ATOM      2  O   UNL     1       4.863   3.579  16.722  0.00  0.00    +0.000 OA
ATOM      3  N   UNL     1       4.903   4.725  18.727  0.00  0.00    +0.000 N 
ATOM      4  H   UNL     1       4.596   4.666  19.692  0.00  0.00    +0.000 HD
ENDROOT
BRANCH   3   5
ATOM      5  C   UNL     1       5.917   5.667  18.436  0.00  0.00    +0.000 A 
ATOM      6  C   UNL     1       5.778   6.654  17.454  0.00  0.00    +0.000 A 
ATOM      7  C   UNL     1       6.814   7.551  17.187  0.00  0.00    +0.000 A 
ATOM      8  C   UNL     1       8.004   7.472  17.903  0.00  0.00    +0.000 A 
ATOM      9  C   UNL     1       8.148   6.509  18.900  0.00  0.00    +0.000 A 
ATOM     10  C   UNL     1       7.104   5.618  19.176  0.00  0.00    +0.000 A 
ENDBRANCH   3   5
BRANCH   1  13
ATOM     11  C   UNL     1       2.019   3.507  18.576  0.00  0.00    +0.000 C 
ATOM     12 CL   UNL     1       1.675   5.215  18.379  0.00  0.00    +0.000 Cl
ATOM     13  C   UNL     1       3.237   2.966  18.358  0.00  0.00    +0.000 C 
ATOM     14 CL   UNL     1       3.608   1.283  18.618  0.00  0.00    +0.000 Cl
BRANCH  11  16
ATOM     15  O   UNL     1       0.182   1.944  18.358  0.00  0.00    +0.000 OA
ATOM     16  C   UNL     1       0.835   2.715  19.041  0.00  0.00    +0.000 C 
BRANCH  16  17
ATOM     17  O   UNL     1       0.518   2.925  20.342  0.00  0.00    +0.000 OA
ATOM     18  H   UNL     1       0.825   2.211  20.942  0.00  0.00    +0.000 HD
ENDBRANCH  16  17
ENDBRANCH  11  16
ENDBRANCH   1  13
TORSDOF 4
ENDMDL
MODEL 5
REMARK VINA RESULT:      -6.4      2.440      6.425
REMARK  Name = 
REMARK  4 active torsions:
REMARK  status: ('A' for Active; 'I' for Inactive)
REMARK    1  A    between atoms: C_2  and  O_3
REMARK    2  A    between atoms: C_2  and  C_4
REMARK    3  A    between atoms: C_6  and  C_8
REMARK    4  A    between atoms: N_10  and  C_11
REMARK                            x       y       z     vdW  Elec       q    Type
REMARK                         _______ _______ _______ _____ _____    ______ ____
ROOT
ATOM      1  C   UNL     1       5.255   4.627  16.741  0.00  0.00    +0.000 C 
ATOM      2  O   UNL     1       4.687   5.631  16.321  0.00  0.00    +0.000 OA
ATOM      3  N   UNL     1       6.018   3.781  15.951  0.00  0.00    +0.000 N 
ATOM      4  H   UNL     1       6.251   2.870  16.332  0.00  0.00    +0.000 HD
ENDROOT
BRANCH   3   5
ATOM      5  C   UNL     1       6.385   4.023  14.607  0.00  0.00    +0.000 A 
ATOM      6  C   UNL     1       5.788   3.363  13.527  0.00  0.00    +0.000 A 
ATOM      7  C   UNL     1       6.196   3.619  12.216  0.00  0.00    +0.000 A 
ATOM      8  C   UNL     1       7.208   4.541  11.970  0.00  0.00    +0.000 A 
ATOM      9  C   UNL     1       7.795   5.223  13.034  0.00  0.00    +0.000 A 
ATOM     10  C   UNL     1       7.376   4.976  14.347  0.00  0.00    +0.000 A 
ENDBRANCH   3   5
BRANCH   1  13
ATOM     11  C   UNL     1       4.245   3.196  18.530  0.00  0.00    +0.000 C 
ATOM     12 CL   UNL     1       3.195   2.379  17.388  0.00  0.00    +0.000 Cl
ATOM     13  C   UNL     1       5.089   4.192  18.181  0.00  0.00    +0.000 C 
ATOM     14 CL   UNL     1       6.086   5.057  19.319  0.00  0.00    +0.000 Cl
BRANCH  11  16
ATOM     15  O   UNL     1       3.163   2.960  20.684  0.00  0.00    +0.000 OA
ATOM     16  C   UNL     1       4.090   2.700  19.936  0.00  0.00    +0.000 C 
BRANCH  16  17
ATOM     17  O   UNL     1       5.106   1.901  20.345  0.00  0.00    +0.000 OA
ATOM     18  H   UNL     1       4.843   1.251  21.032  0.00  0.00    +0.000 HD
ENDBRANCH  16  17
ENDBRANCH  11  16
ENDBRANCH   1  13
TORSDOF 4
ENDMDL
MODEL 6
REMARK VINA RESULT:      -6.4      4.026      5.299
REMARK  Name = 
REMARK  4 active torsions:
REMARK  status: ('A' for Active; 'I' for Inactive)
REMARK    1  A    between atoms: C_2  and  O_3
REMARK    2  A    between atoms: C_2  and  C_4
REMARK    3  A    between atoms: C_6  and  C_8
REMARK    4  A    between atoms: N_10  and  C_11
REMARK                            x       y       z     vdW  Elec       q    Type
REMARK                         _______ _______ _______ _____ _____    ______ ____
ROOT
ATOM      1  C   UNL     1       2.680   5.041  18.340  0.00  0.00    +0.000 C 
ATOM      2  O   UNL     1       1.627   4.931  17.718  0.00  0.00    +0.000 OA
ATOM      3  N   UNL     1       3.130   6.229  18.898  0.00  0.00    +0.000 N 
ATOM      4  H   UNL     1       4.101   6.270  19.187  0.00  0.00    +0.000 HD
ENDROOT
BRANCH   3   5
ATOM      5  C   UNL     1       2.390   7.432  18.973  0.00  0.00    +0.000 A 
ATOM      6  C   UNL     1       2.231   8.295  17.883  0.00  0.00    +0.000 A 
ATOM      7  C   UNL     1       1.509   9.483  18.009  0.00  0.00    +0.000 A 
ATOM      8  C   UNL     1       0.934   9.821  19.229  0.00  0.00    +0.000 A 
ATOM      9  C   UNL     1       1.063   8.960  20.317  0.00  0.00    +0.000 A 
ATOM     10  C   UNL     1       1.777   7.763  20.187  0.00  0.00    +0.000 A 
ENDBRANCH   3   5
BRANCH   1  13
ATOM     11  C   UNL     1       3.544   3.010  19.521  0.00  0.00    +0.000 C 
ATOM     12 CL   UNL     1       2.429   3.220  20.857  0.00  0.00    +0.000 Cl
ATOM     13  C   UNL     1       3.622   3.865  18.478  0.00  0.00    +0.000 C 
ATOM     14 CL   UNL     1       4.775   3.704  17.180  0.00  0.00    +0.000 Cl
BRANCH  11  16
ATOM     15  O   UNL     1       5.248   1.629  20.549  0.00  0.00    +0.000 OA
ATOM     16  C   UNL     1       4.423   1.805  19.668  0.00  0.00    +0.000 C 
BRANCH  16  17
ATOM     17  O   UNL     1       4.233   0.873  18.702  0.00  0.00    +0.000 OA
ATOM     18  H   UNL     1       5.055   0.405  18.439  0.00  0.00    +0.000 HD
ENDBRANCH  16  17
ENDBRANCH  11  16
ENDBRANCH   1  13
TORSDOF 4
ENDMDL
MODEL 7
REMARK VINA RESULT:      -6.4      4.055      5.231
REMARK  Name = 
REMARK  4 active torsions:
REMARK  status: ('A' for Active; 'I' for Inactive)
REMARK    1  A    between atoms: C_2  and  O_3
REMARK    2  A    between atoms: C_2  and  C_4
REMARK    3  A    between atoms: C_6  and  C_8
REMARK    4  A    between atoms: N_10  and  C_11
REMARK                            x       y       z     vdW  Elec       q    Type
REMARK                         _______ _______ _______ _____ _____    ______ ____
ROOT
ATOM      1  C   UNL     1       2.701   5.083  18.425  0.00  0.00    +0.000 C 
ATOM      2  O   UNL     1       1.629   4.956  17.841  0.00  0.00    +0.000 OA
ATOM      3  N   UNL     1       3.160   6.282  18.949  0.00  0.00    +0.000 N 
ATOM      4  H   UNL     1       4.140   6.336  19.204  0.00  0.00    +0.000 HD
ENDROOT
BRANCH   3   5
ATOM      5  C   UNL     1       2.413   7.481  19.031  0.00  0.00    +0.000 A 
ATOM      6  C   UNL     1       1.742   7.879  20.193  0.00  0.00    +0.000 A 
ATOM      7  C   UNL     1       1.000   9.061  20.222  0.00  0.00    +0.000 A 
ATOM      8  C   UNL     1       0.921   9.861  19.087  0.00  0.00    +0.000 A 
ATOM      9  C   UNL     1       1.604   9.489  17.930  0.00  0.00    +0.000 A 
ATOM     10  C   UNL     1       2.359   8.311  17.906  0.00  0.00    +0.000 A 
ENDBRANCH   3   5
BRANCH   1  13
ATOM     11  C   UNL     1       3.512   2.977  19.508  0.00  0.00    +0.000 C 
ATOM     12 CL   UNL     1       2.282   3.056  20.755  0.00  0.00    +0.000 Cl
ATOM     13  C   UNL     1       3.657   3.916  18.548  0.00  0.00    +0.000 C 
ATOM     14 CL   UNL     1       4.919   3.884  17.347  0.00  0.00    +0.000 Cl
BRANCH  11  16
ATOM     15  O   UNL     1       5.230   1.595  20.511  0.00  0.00    +0.000 OA
ATOM     16  C   UNL     1       4.404   1.779  19.633  0.00  0.00    +0.000 C 
BRANCH  16  17
ATOM     17  O   UNL     1       4.226   0.864  18.648  0.00  0.00    +0.000 OA
ATOM     18  H   UNL     1       4.656   1.109  17.801  0.00  0.00    +0.000 HD
ENDBRANCH  16  17
ENDBRANCH  11  16
ENDBRANCH   1  13
TORSDOF 4
ENDMDL
MODEL 8
REMARK VINA RESULT:      -6.4      1.464      1.668
REMARK  Name = 
REMARK  4 active torsions:
REMARK  status: ('A' for Active; 'I' for Inactive)
REMARK    1  A    between atoms: C_2  and  O_3
REMARK    2  A    between atoms: C_2  and  C_4
REMARK    3  A    between atoms: C_6  and  C_8
REMARK    4  A    between atoms: N_10  and  C_11
REMARK                            x       y       z     vdW  Elec       q    Type
REMARK                         _______ _______ _______ _____ _____    ______ ____
ROOT
ATOM      1  C   UNL     1       5.159   4.177  18.820  0.00  0.00    +0.000 C 
ATOM      2  O   UNL     1       5.441   3.222  19.539  0.00  0.00    +0.000 OA
ATOM      3  N   UNL     1       3.862   4.546  18.496  0.00  0.00    +0.000 N 
ATOM      4  H   UNL     1       3.740   5.194  17.726  0.00  0.00    +0.000 HD
ENDROOT
BRANCH   3   5
ATOM      5  C   UNL     1       2.688   3.992  19.057  0.00  0.00    +0.000 A 
ATOM      6  C   UNL     1       2.243   4.303  20.347  0.00  0.00    +0.000 A 
ATOM      7  C   UNL     1       1.088   3.717  20.867  0.00  0.00    +0.000 A 
ATOM      8  C   UNL     1       0.362   2.811  20.101  0.00  0.00    +0.000 A 
ATOM      9  C   UNL     1       0.780   2.509  18.806  0.00  0.00    +0.000 A 
ATOM     10  C   UNL     1       1.931   3.108  18.280  0.00  0.00    +0.000 A 
ENDBRANCH   3   5
BRANCH   1  13
ATOM     11  C   UNL     1       6.306   5.145  16.816  0.00  0.00    +0.000 C 
ATOM     12 CL   UNL     1       5.206   4.348  15.708  0.00  0.00    +0.000 Cl
ATOM     13  C   UNL     1       6.248   4.993  18.158  0.00  0.00    +0.000 C 
ATOM     14 CL   UNL     1       7.379   5.725  19.263  0.00  0.00    +0.000 Cl
BRANCH  11  16
ATOM     15  O   UNL     1       7.770   7.053  16.528  0.00  0.00    +0.000 OA
ATOM     16  C   UNL     1       7.335   5.987  16.125  0.00  0.00    +0.000 C 
BRANCH  16  17
ATOM     17  O   UNL     1       7.774   5.459  14.957  0.00  0.00    +0.000 OA
ATOM     18  H   UNL     1       8.406   6.036  14.476  0.00  0.00    +0.000 HD
ENDBRANCH  16  17
ENDBRANCH  11  16
ENDBRANCH   1  13
TORSDOF 4
ENDMDL
MODEL 9
REMARK VINA RESULT:      -6.4      4.058      5.467
REMARK  Name = 
REMARK  4 active torsions:
REMARK  status: ('A' for Active; 'I' for Inactive)
REMARK    1  A    between atoms: C_2  and  O_3
REMARK    2  A    between atoms: C_2  and  C_4
REMARK    3  A    between atoms: C_6  and  C_8
REMARK    4  A    between atoms: N_10  and  C_11
REMARK                            x       y       z     vdW  Elec       q    Type
REMARK                         _______ _______ _______ _____ _____    ______ ____
ROOT
ATOM      1  C   UNL     1       2.200   4.637  19.687  0.00  0.00    +0.000 C 
ATOM      2  O   UNL     1       1.194   4.514  18.994  0.00  0.00    +0.000 OA
ATOM      3  N   UNL     1       2.802   5.854  19.970  0.00  0.00    +0.000 N 
ATOM      4  H   UNL     1       3.741   5.832  20.351  0.00  0.00    +0.000 HD
ENDROOT
BRANCH   3   5
ATOM      5  C   UNL     1       2.274   7.125  19.646  0.00  0.00    +0.000 A 
ATOM      6  C   UNL     1       2.443   7.719  18.390  0.00  0.00    +0.000 A 
ATOM      7  C   UNL     1       1.921   8.986  18.121  0.00  0.00    +0.000 A 
ATOM      8  C   UNL     1       1.221   9.674  19.106  0.00  0.00    +0.000 A 
ATOM      9  C   UNL     1       1.024   9.084  20.354  0.00  0.00    +0.000 A 
ATOM     10  C   UNL     1       1.536   7.809  20.619  0.00  0.00    +0.000 A 
ENDBRANCH   3   5
BRANCH   1  13
ATOM     11  C   UNL     1       3.994   2.892  19.612  0.00  0.00    +0.000 C 
ATOM     12 CL   UNL     1       4.612   3.487  18.083  0.00  0.00    +0.000 Cl
ATOM     13  C   UNL     1       2.915   3.420  20.232  0.00  0.00    +0.000 C 
ATOM     14 CL   UNL     1       2.250   2.792  21.715  0.00  0.00    +0.000 Cl
BRANCH  11  16
ATOM     15  O   UNL     1       5.341   1.679  21.218  0.00  0.00    +0.000 OA
ATOM     16  C   UNL     1       4.762   1.721  20.146  0.00  0.00    +0.000 C 
BRANCH  16  17
ATOM     17  O   UNL     1       4.773   0.653  19.312  0.00  0.00    +0.000 OA
ATOM     18  H   UNL     1       5.003  -0.192  19.756  0.00  0.00    +0.000 HD
ENDBRANCH  16  17
ENDBRANCH  11  16
ENDBRANCH   1  13
TORSDOF 4
ENDMDL
