MODEL 1
REMARK VINA RESULT:     -10.0      0.000      0.000
REMARK  Name = 
REMARK  3 active torsions:
REMARK  status: ('A' for Active; 'I' for Inactive)
REMARK    1  A    between atoms: C_1  and  C_2
REMARK    2  A    between atoms: C_7  and  C_8
REMARK    3  A    between atoms: C_8  and  C_9
REMARK                            x       y       z     vdW  Elec       q    Type
REMARK                         _______ _______ _______ _____ _____    ______ ____
ROOT
ATOM      1  C   UNL     1       1.713   2.753  21.356  0.00  0.00    +0.000 C 
ATOM      2  C   UNL     1       0.928   3.335  20.172  0.00  0.00    +0.000 C 
ATOM      3  C   UNL     1       0.823   2.304  19.040  0.00  0.00    +0.000 C 
ATOM      4  C   UNL     1       2.118   2.245  18.243  0.00  0.00    +0.000 C 
ATOM      5  C   UNL     1       2.381   3.604  17.593  0.00  0.00    +0.000 C 
ATOM      6  C   UNL     1       2.344   4.743  18.578  0.00  0.00    +0.000 A 
ATOM      7  C   UNL     1       2.986   5.969  18.380  0.00  0.00    +0.000 A 
ATOM      8  N   UNL     1       2.827   6.997  19.241  0.00  0.00    +0.000 NA
ATOM      9  C   UNL     1       2.045   6.807  20.306  0.00  0.00    +0.000 A 
ATOM     10  N   UNL     1       1.852   7.877  21.154  0.00  0.00    +0.000 N 
ATOM     11  N   UNL     1       1.405   5.677  20.588  0.00  0.00    +0.000 NA
ATOM     12  C   UNL     1       1.571   4.642  19.736  0.00  0.00    +0.000 A 
ATOM     13  H   UNL     1       1.984   8.744  20.651  0.00  0.00    +0.000 HD
ATOM     14  H   UNL     1       0.976   7.759  21.646  0.00  0.00    +0.000 HD
ENDROOT
BRANCH   7  15
ATOM     15  C   UNL     1       3.865   6.258  17.173  0.00  0.00    +0.000 C 
BRANCH  15  16
ATOM     16  C   UNL     1       4.973   5.219  16.806  0.00  0.00    +0.000 C 
ATOM     17  C   UNL     1       5.965   5.006  17.953  0.00  0.00    +0.000 C 
ATOM     18  C   UNL     1       7.385   4.667  17.591  0.00  0.00    +0.000 C 
ATOM     19  O   UNL     1       8.212   4.376  18.449  0.00  0.00    +0.000 OA
ATOM     20  N   UNL     1       7.744   4.703  16.280  0.00  0.00    +0.000 N 
ATOM     21  C   UNL     1       7.020   5.152  15.215  0.00  0.00    +0.000 C 
ATOM     22  O   UNL     1       7.562   5.288  14.119  0.00  0.00    +0.000 OA
ATOM     23  C   UNL     1       5.563   5.457  15.413  0.00  0.00    +0.000 C 
ATOM     24  H   UNL     1       8.718   4.520  16.095  0.00  0.00    +0.000 HD
ENDBRANCH  15  16
ENDBRANCH   7  15
TORSDOF 2
ENDMDL
MODEL 2
REMARK VINA RESULT:      -9.3      1.709      1.872
REMARK  Name = 
REMARK  3 active torsions:
REMARK  status: ('A' for Active; 'I' for Inactive)
REMARK    1  A    between atoms: C_1  and  C_2
REMARK    2  A    between atoms: C_7  and  C_8
REMARK    3  A    between atoms: C_8  and  C_9
REMARK                            x       y       z     vdW  Elec       q    Type
REMARK                         _______ _______ _______ _____ _____    ______ ____
ROOT
ATOM      1  C   UNL     1       2.032   2.636  21.240  0.00  0.00    +0.000 C 
ATOM      2  C   UNL     1       1.319   3.117  19.969  0.00  0.00    +0.000 C 
ATOM      3  C   UNL     1       1.349   2.025  18.892  0.00  0.00    +0.000 C 
ATOM      4  C   UNL     1       2.705   1.987  18.201  0.00  0.00    +0.000 C 
ATOM      5  C   UNL     1       2.959   3.321  17.499  0.00  0.00    +0.000 C 
ATOM      6  C   UNL     1       2.794   4.506  18.413  0.00  0.00    +0.000 A 
ATOM      7  C   UNL     1       3.396   5.750  18.196  0.00  0.00    +0.000 A 
ATOM      8  N   UNL     1       3.124   6.813  18.984  0.00  0.00    +0.000 NA
ATOM      9  C   UNL     1       2.269   6.642  19.994  0.00  0.00    +0.000 A 
ATOM     10  N   UNL     1       1.963   7.744  20.764  0.00  0.00    +0.000 N 
ATOM     11  N   UNL     1       1.659   5.498  20.290  0.00  0.00    +0.000 NA
ATOM     12  C   UNL     1       1.936   4.430  19.512  0.00  0.00    +0.000 A 
ATOM     13  H   UNL     1       2.096   8.588  20.226  0.00  0.00    +0.000 HD
ATOM     14  H   UNL     1       1.057   7.610  21.194  0.00  0.00    +0.000 HD
ENDROOT
BRANCH   7  15
ATOM     15  C   UNL     1       4.354   6.017  17.046  0.00  0.00    +0.000 C 
BRANCH  15  16
ATOM     16  C   UNL     1       5.888   5.955  17.338  0.00  0.00    +0.000 C 
ATOM     17  C   UNL     1       6.191   5.286  18.681  0.00  0.00    +0.000 C 
ATOM     18  C   UNL     1       7.409   5.750  19.431  0.00  0.00    +0.000 C 
ATOM     19  O   UNL     1       7.781   5.192  20.458  0.00  0.00    +0.000 OA
ATOM     20  N   UNL     1       8.093   6.823  18.952  0.00  0.00    +0.000 N 
ATOM     21  C   UNL     1       7.748   7.660  17.931  0.00  0.00    +0.000 C 
ATOM     22  O   UNL     1       8.388   8.695  17.745  0.00  0.00    +0.000 OA
ATOM     23  C   UNL     1       6.594   7.282  17.048  0.00  0.00    +0.000 C 
ATOM     24  H   UNL     1       8.869   7.128  19.518  0.00  0.00    +0.000 HD
ENDBRANCH  15  16
ENDBRANCH   7  15
TORSDOF 2
ENDMDL
MODEL 3
REMARK VINA RESULT:      -9.1      0.647      1.875
REMARK  Name = 
REMARK  3 active torsions:
REMARK  status: ('A' for Active; 'I' for Inactive)
REMARK    1  A    between atoms: C_1  and  C_2
REMARK    2  A    between atoms: C_7  and  C_8
REMARK    3  A    between atoms: C_8  and  C_9
REMARK                            x       y       z     vdW  Elec       q    Type
REMARK                         _______ _______ _______ _____ _____    ______ ____
ROOT
ATOM      1  C   UNL     1       2.513   2.688  21.338  0.00  0.00    +0.000 C 
ATOM      2  C   UNL     1       1.495   3.141  20.282  0.00  0.00    +0.000 C 
ATOM      3  C   UNL     1       1.441   2.135  19.124  0.00  0.00    +0.000 C 
ATOM      4  C   UNL     1       2.617   2.337  18.178  0.00  0.00    +0.000 C 
ATOM      5  C   UNL     1       2.545   3.736  17.566  0.00  0.00    +0.000 C 
ATOM      6  C   UNL     1       2.424   4.825  18.599  0.00  0.00    +0.000 A 
ATOM      7  C   UNL     1       2.803   6.153  18.383  0.00  0.00    +0.000 A 
ATOM      8  N   UNL     1       2.567   7.114  19.304  0.00  0.00    +0.000 NA
ATOM      9  C   UNL     1       1.970   6.757  20.442  0.00  0.00    +0.000 A 
ATOM     10  N   UNL     1       1.692   7.752  21.355  0.00  0.00    +0.000 N 
ATOM     11  N   UNL     1       1.586   5.520  20.746  0.00  0.00    +0.000 NA
ATOM     12  C   UNL     1       1.831   4.555  19.834  0.00  0.00    +0.000 A 
ATOM     13  H   UNL     1       1.600   8.639  20.881  0.00  0.00    +0.000 HD
ATOM     14  H   UNL     1       0.920   7.461  21.941  0.00  0.00    +0.000 HD
ENDROOT
BRANCH   7  15
ATOM     15  C   UNL     1       3.458   6.628  17.096  0.00  0.00    +0.000 C 
BRANCH  15  16
ATOM     16  C   UNL     1       5.020   6.634  17.025  0.00  0.00    +0.000 C 
ATOM     17  C   UNL     1       5.535   6.180  15.657  0.00  0.00    +0.000 C 
ATOM     18  C   UNL     1       6.854   5.459  15.615  0.00  0.00    +0.000 C 
ATOM     19  O   UNL     1       7.387   5.160  14.551  0.00  0.00    +0.000 OA
ATOM     20  N   UNL     1       7.448   5.128  16.792  0.00  0.00    +0.000 N 
ATOM     21  C   UNL     1       6.942   5.232  18.055  0.00  0.00    +0.000 C 
ATOM     22  O   UNL     1       7.539   4.715  18.998  0.00  0.00    +0.000 OA
ATOM     23  C   UNL     1       5.665   5.995  18.258  0.00  0.00    +0.000 C 
ATOM     24  H   UNL     1       8.303   4.600  16.710  0.00  0.00    +0.000 HD
ENDBRANCH  15  16
ENDBRANCH   7  15
TORSDOF 2
ENDMDL
MODEL 4
REMARK VINA RESULT:      -9.0      1.145      1.150
REMARK  Name = 
REMARK  3 active torsions:
REMARK  status: ('A' for Active; 'I' for Inactive)
REMARK    1  A    between atoms: C_1  and  C_2
REMARK    2  A    between atoms: C_7  and  C_8
REMARK    3  A    between atoms: C_8  and  C_9
REMARK                            x       y       z     vdW  Elec       q    Type
REMARK                         _______ _______ _______ _____ _____    ______ ____
ROOT
ATOM      1  C   UNL     1       1.813   2.755  21.632  0.00  0.00    +0.000 C 
ATOM      2  C   UNL     1       0.914   3.286  20.507  0.00  0.00    +0.000 C 
ATOM      3  C   UNL     1       0.767   2.236  19.398  0.00  0.00    +0.000 C 
ATOM      4  C   UNL     1       1.999   2.222  18.502  0.00  0.00    +0.000 C 
ATOM      5  C   UNL     1       2.151   3.582  17.821  0.00  0.00    +0.000 C 
ATOM      6  C   UNL     1       2.140   4.732  18.794  0.00  0.00    +0.000 A 
ATOM      7  C   UNL     1       2.711   5.981  18.534  0.00  0.00    +0.000 A 
ATOM      8  N   UNL     1       2.574   7.014  19.395  0.00  0.00    +0.000 NA
ATOM      9  C   UNL     1       1.885   6.805  20.518  0.00  0.00    +0.000 A 
ATOM     10  N   UNL     1       1.712   7.877  21.368  0.00  0.00    +0.000 N 
ATOM     11  N   UNL     1       1.319   5.652  20.861  0.00  0.00    +0.000 NA
ATOM     12  C   UNL     1       1.464   4.614  20.010  0.00  0.00    +0.000 A 
ATOM     13  H   UNL     1       1.766   8.741  20.848  0.00  0.00    +0.000 HD
ATOM     14  H   UNL     1       0.882   7.728  21.928  0.00  0.00    +0.000 HD
ENDROOT
BRANCH   7  15
ATOM     15  C   UNL     1       3.481   6.291  17.259  0.00  0.00    +0.000 C 
BRANCH  15  16
ATOM     16  C   UNL     1       4.957   5.788  17.152  0.00  0.00    +0.000 C 
ATOM     17  C   UNL     1       5.966   6.901  17.447  0.00  0.00    +0.000 C 
ATOM     18  C   UNL     1       7.290   6.846  16.737  0.00  0.00    +0.000 C 
ATOM     19  O   UNL     1       8.192   7.636  16.998  0.00  0.00    +0.000 OA
ATOM     20  N   UNL     1       7.469   5.901  15.776  0.00  0.00    +0.000 N 
ATOM     21  C   UNL     1       6.546   5.051  15.241  0.00  0.00    +0.000 C 
ATOM     22  O   UNL     1       6.831   4.383  14.248  0.00  0.00    +0.000 OA
ATOM     23  C   UNL     1       5.200   4.945  15.898  0.00  0.00    +0.000 C 
ATOM     24  H   UNL     1       8.353   5.939  15.293  0.00  0.00    +0.000 HD
ENDBRANCH  15  16
ENDBRANCH   7  15
TORSDOF 2
ENDMDL
MODEL 5
REMARK VINA RESULT:      -9.0      1.904      2.250
REMARK  Name = 
REMARK  3 active torsions:
REMARK  status: ('A' for Active; 'I' for Inactive)
REMARK    1  A    between atoms: C_1  and  C_2
REMARK    2  A    between atoms: C_7  and  C_8
REMARK    3  A    between atoms: C_8  and  C_9
REMARK                            x       y       z     vdW  Elec       q    Type
REMARK                         _______ _______ _______ _____ _____    ______ ____
ROOT
ATOM      1  C   UNL     1       1.659   3.850  20.971  0.00  0.00    +0.000 C 
ATOM      2  C   UNL     1       1.318   3.754  19.477  0.00  0.00    +0.000 C 
ATOM      3  C   UNL     1       1.437   2.302  18.993  0.00  0.00    +0.000 C 
ATOM      4  C   UNL     1       2.895   1.932  18.755  0.00  0.00    +0.000 C 
ATOM      5  C   UNL     1       3.477   2.824  17.658  0.00  0.00    +0.000 C 
ATOM      6  C   UNL     1       3.276   4.293  17.927  0.00  0.00    +0.000 A 
ATOM      7  C   UNL     1       4.074   5.303  17.382  0.00  0.00    +0.000 A 
ATOM      8  N   UNL     1       3.781   6.609  17.563  0.00  0.00    +0.000 NA
ATOM      9  C   UNL     1       2.709   6.915  18.296  0.00  0.00    +0.000 A 
ATOM     10  N   UNL     1       2.392   8.250  18.436  0.00  0.00    +0.000 N 
ATOM     11  N   UNL     1       1.898   6.028  18.866  0.00  0.00    +0.000 NA
ATOM     12  C   UNL     1       2.194   4.722  18.698  0.00  0.00    +0.000 A 
ATOM     13  H   UNL     1       2.754   8.774  17.653  0.00  0.00    +0.000 HD
ATOM     14  H   UNL     1       1.404   8.339  18.632  0.00  0.00    +0.000 HD
ENDROOT
BRANCH   7  15
ATOM     15  C   UNL     1       5.291   5.020  16.515  0.00  0.00    +0.000 C 
BRANCH  15  16
ATOM     16  C   UNL     1       6.699   5.398  17.079  0.00  0.00    +0.000 C 
ATOM     17  C   UNL     1       6.922   4.841  18.487  0.00  0.00    +0.000 C 
ATOM     18  C   UNL     1       7.800   5.633  19.418  0.00  0.00    +0.000 C 
ATOM     19  O   UNL     1       8.116   5.202  20.522  0.00  0.00    +0.000 OA
ATOM     20  N   UNL     1       8.232   6.857  19.013  0.00  0.00    +0.000 N 
ATOM     21  C   UNL     1       7.862   7.563  17.906  0.00  0.00    +0.000 C 
ATOM     22  O   UNL     1       8.209   8.737  17.783  0.00  0.00    +0.000 OA
ATOM     23  C   UNL     1       7.046   6.872  16.851  0.00  0.00    +0.000 C 
ATOM     24  H   UNL     1       8.772   7.370  19.693  0.00  0.00    +0.000 HD
ENDBRANCH  15  16
ENDBRANCH   7  15
TORSDOF 2
ENDMDL
MODEL 6
REMARK VINA RESULT:      -8.4      2.562      3.538
REMARK  Name = 
REMARK  3 active torsions:
REMARK  status: ('A' for Active; 'I' for Inactive)
REMARK    1  A    between atoms: C_1  and  C_2
REMARK    2  A    between atoms: C_7  and  C_8
REMARK    3  A    between atoms: C_8  and  C_9
REMARK                            x       y       z     vdW  Elec       q    Type
REMARK                         _______ _______ _______ _____ _____    ______ ____
ROOT
ATOM      1  C   UNL     1       0.395   3.701  20.006  0.00  0.00    +0.000 C 
ATOM      2  C   UNL     1       1.798   4.078  20.502  0.00  0.00    +0.000 C 
ATOM      3  C   UNL     1       1.841   5.555  20.915  0.00  0.00    +0.000 C 
ATOM      4  C   UNL     1       1.956   6.454  19.691  0.00  0.00    +0.000 C 
ATOM      5  C   UNL     1       3.261   6.152  18.955  0.00  0.00    +0.000 C 
ATOM      6  C   UNL     1       3.430   4.690  18.634  0.00  0.00    +0.000 A 
ATOM      7  C   UNL     1       4.241   4.205  17.603  0.00  0.00    +0.000 A 
ATOM      8  N   UNL     1       4.447   2.881  17.430  0.00  0.00    +0.000 NA
ATOM      9  C   UNL     1       3.839   2.037  18.266  0.00  0.00    +0.000 A 
ATOM     10  N   UNL     1       4.092   0.691  18.110  0.00  0.00    +0.000 N 
ATOM     11  N   UNL     1       3.039   2.400  19.265  0.00  0.00    +0.000 NA
ATOM     12  C   UNL     1       2.821   3.722  19.435  0.00  0.00    +0.000 A 
ATOM     13  H   UNL     1       4.992   0.558  17.672  0.00  0.00    +0.000 HD
ATOM     14  H   UNL     1       3.934   0.218  18.990  0.00  0.00    +0.000 HD
ENDROOT
BRANCH   7  15
ATOM     15  C   UNL     1       4.985   5.113  16.637  0.00  0.00    +0.000 C 
BRANCH  15  16
ATOM     16  C   UNL     1       6.450   5.524  16.995  0.00  0.00    +0.000 C 
ATOM     17  C   UNL     1       6.925   4.878  18.300  0.00  0.00    +0.000 C 
ATOM     18  C   UNL     1       7.911   5.646  19.137  0.00  0.00    +0.000 C 
ATOM     19  O   UNL     1       8.423   5.153  20.138  0.00  0.00    +0.000 OA
ATOM     20  N   UNL     1       8.220   6.918  18.768  0.00  0.00    +0.000 N 
ATOM     21  C   UNL     1       7.644   7.681  17.796  0.00  0.00    +0.000 C 
ATOM     22  O   UNL     1       7.918   8.878  17.714  0.00  0.00    +0.000 OA
ATOM     23  C   UNL     1       6.694   7.026  16.834  0.00  0.00    +0.000 C 
ATOM     24  H   UNL     1       8.844   7.407  19.391  0.00  0.00    +0.000 HD
ENDBRANCH  15  16
ENDBRANCH   7  15
TORSDOF 2
ENDMDL
MODEL 7
REMARK VINA RESULT:      -8.4      2.079      2.960
REMARK  Name = 
REMARK  3 active torsions:
REMARK  status: ('A' for Active; 'I' for Inactive)
REMARK    1  A    between atoms: C_1  and  C_2
REMARK    2  A    between atoms: C_7  and  C_8
REMARK    3  A    between atoms: C_8  and  C_9
REMARK                            x       y       z     vdW  Elec       q    Type
REMARK                         _______ _______ _______ _____ _____    ______ ____
ROOT
ATOM      1  C   UNL     1       1.652   4.239  20.879  0.00  0.00    +0.000 C 
ATOM      2  C   UNL     1       1.294   4.032  19.400  0.00  0.00    +0.000 C 
ATOM      3  C   UNL     1       1.115   2.538  19.096  0.00  0.00    +0.000 C 
ATOM      4  C   UNL     1       2.466   1.855  18.937  0.00  0.00    +0.000 C 
ATOM      5  C   UNL     1       3.215   2.471  17.755  0.00  0.00    +0.000 C 
ATOM      6  C   UNL     1       3.317   3.971  17.841  0.00  0.00    +0.000 A 
ATOM      7  C   UNL     1       4.302   4.725  17.197  0.00  0.00    +0.000 A 
ATOM      8  N   UNL     1       4.281   6.076  17.213  0.00  0.00    +0.000 NA
ATOM      9  C   UNL     1       3.294   6.679  17.879  0.00  0.00    +0.000 A 
ATOM     10  N   UNL     1       3.255   8.057  17.852  0.00  0.00    +0.000 N 
ATOM     11  N   UNL     1       2.322   6.051  18.534  0.00  0.00    +0.000 NA
ATOM     12  C   UNL     1       2.346   4.701  18.530  0.00  0.00    +0.000 A 
ATOM     13  H   UNL     1       3.715   8.398  17.019  0.00  0.00    +0.000 HD
ATOM     14  H   UNL     1       2.307   8.368  18.013  0.00  0.00    +0.000 HD
ENDROOT
BRANCH   7  15
ATOM     15  C   UNL     1       5.434   4.099  16.397  0.00  0.00    +0.000 C 
BRANCH  15  16
ATOM     16  C   UNL     1       5.641   4.574  14.922  0.00  0.00    +0.000 C 
ATOM     17  C   UNL     1       5.341   3.463  13.913  0.00  0.00    +0.000 C 
ATOM     18  C   UNL     1       6.119   3.463  12.626  0.00  0.00    +0.000 C 
ATOM     19  O   UNL     1       5.863   2.674  11.722  0.00  0.00    +0.000 OA
ATOM     20  N   UNL     1       7.135   4.356  12.485  0.00  0.00    +0.000 N 
ATOM     21  C   UNL     1       7.665   5.191  13.424  0.00  0.00    +0.000 C 
ATOM     22  O   UNL     1       8.704   5.804  13.182  0.00  0.00    +0.000 OA
ATOM     23  C   UNL     1       6.947   5.350  14.734  0.00  0.00    +0.000 C 
ATOM     24  H   UNL     1       7.659   4.281  11.627  0.00  0.00    +0.000 HD
ENDBRANCH  15  16
ENDBRANCH   7  15
TORSDOF 2
ENDMDL
MODEL 8
REMARK VINA RESULT:      -8.2      3.688      5.444
REMARK  Name = 
REMARK  3 active torsions:
REMARK  status: ('A' for Active; 'I' for Inactive)
REMARK    1  A    between atoms: C_1  and  C_2
REMARK    2  A    between atoms: C_7  and  C_8
REMARK    3  A    between atoms: C_8  and  C_9
REMARK                            x       y       z     vdW  Elec       q    Type
REMARK                         _______ _______ _______ _____ _____    ______ ____
ROOT
ATOM      1  C   UNL     1       3.888   1.185  18.372  0.00  0.00    +0.000 C 
ATOM      2  C   UNL     1       3.329   2.119  19.455  0.00  0.00    +0.000 C 
ATOM      3  C   UNL     1       1.807   1.959  19.568  0.00  0.00    +0.000 C 
ATOM      4  C   UNL     1       1.102   2.717  18.451  0.00  0.00    +0.000 C 
ATOM      5  C   UNL     1       1.410   4.210  18.572  0.00  0.00    +0.000 C 
ATOM      6  C   UNL     1       2.886   4.501  18.644  0.00  0.00    +0.000 A 
ATOM      7  C   UNL     1       3.459   5.727  18.292  0.00  0.00    +0.000 A 
ATOM      8  N   UNL     1       4.773   5.973  18.483  0.00  0.00    +0.000 NA
ATOM      9  C   UNL     1       5.523   5.002  19.009  0.00  0.00    +0.000 A 
ATOM     10  N   UNL     1       6.853   5.280  19.243  0.00  0.00    +0.000 N 
ATOM     11  N   UNL     1       5.075   3.801  19.362  0.00  0.00    +0.000 NA
ATOM     12  C   UNL     1       3.764   3.546  19.161  0.00  0.00    +0.000 A 
ATOM     13  H   UNL     1       6.980   6.274  19.371  0.00  0.00    +0.000 HD
ATOM     14  H   UNL     1       7.196   4.674  19.976  0.00  0.00    +0.000 HD
ENDROOT
BRANCH   7  15
ATOM     15  C   UNL     1       2.654   6.882  17.718  0.00  0.00    +0.000 C 
BRANCH  15  16
ATOM     16  C   UNL     1       2.416   8.133  18.625  0.00  0.00    +0.000 C 
ATOM     17  C   UNL     1       2.005   7.742  20.047  0.00  0.00    +0.000 C 
ATOM     18  C   UNL     1       1.089   8.677  20.788  0.00  0.00    +0.000 C 
ATOM     19  O   UNL     1       0.801   8.492  21.966  0.00  0.00    +0.000 OA
ATOM     20  N   UNL     1       0.566   9.738  20.117  0.00  0.00    +0.000 N 
ATOM     21  C   UNL     1       0.640  10.015  18.783  0.00  0.00    +0.000 C 
ATOM     22  O   UNL     1      -0.045  10.920  18.307  0.00  0.00    +0.000 OA
ATOM     23  C   UNL     1       1.577   9.210  17.931  0.00  0.00    +0.000 C 
ATOM     24  H   UNL     1      -0.083  10.303  20.641  0.00  0.00    +0.000 HD
ENDBRANCH  15  16
ENDBRANCH   7  15
TORSDOF 2
ENDMDL
MODEL 9
REMARK VINA RESULT:      -8.1      3.779      6.360
REMARK  Name = 
REMARK  3 active torsions:
REMARK  status: ('A' for Active; 'I' for Inactive)
REMARK    1  A    between atoms: C_1  and  C_2
REMARK    2  A    between atoms: C_7  and  C_8
REMARK    3  A    between atoms: C_8  and  C_9
REMARK                            x       y       z     vdW  Elec       q    Type
REMARK                         _______ _______ _______ _____ _____    ______ ____
ROOT
ATOM      1  C   UNL     1       7.905   5.475  19.566  0.00  0.00    +0.000 C 
ATOM      2  C   UNL     1       7.221   5.069  18.252  0.00  0.00    +0.000 C 
ATOM      3  C   UNL     1       7.545   6.081  17.145  0.00  0.00    +0.000 C 
ATOM      4  C   UNL     1       6.687   7.331  17.288  0.00  0.00    +0.000 C 
ATOM      5  C   UNL     1       5.212   6.958  17.142  0.00  0.00    +0.000 C 
ATOM      6  C   UNL     1       4.793   5.844  18.065  0.00  0.00    +0.000 A 
ATOM      7  C   UNL     1       3.476   5.627  18.481  0.00  0.00    +0.000 A 
ATOM      8  N   UNL     1       3.136   4.546  19.217  0.00  0.00    +0.000 NA
ATOM      9  C   UNL     1       4.102   3.689  19.554  0.00  0.00    +0.000 A 
ATOM     10  N   UNL     1       3.738   2.566  20.266  0.00  0.00    +0.000 N 
ATOM     11  N   UNL     1       5.383   3.816  19.220  0.00  0.00    +0.000 NA
ATOM     12  C   UNL     1       5.729   4.901  18.495  0.00  0.00    +0.000 A 
ATOM     13  H   UNL     1       2.771   2.340  20.082  0.00  0.00    +0.000 HD
ATOM     14  H   UNL     1       4.420   1.836  20.109  0.00  0.00    +0.000 HD
ENDROOT
BRANCH   7  15
ATOM     15  C   UNL     1       2.326   6.548  18.105  0.00  0.00    +0.000 C 
BRANCH  15  16
ATOM     16  C   UNL     1       2.216   7.923  18.841  0.00  0.00    +0.000 C 
ATOM     17  C   UNL     1       1.871   7.756  20.323  0.00  0.00    +0.000 C 
ATOM     18  C   UNL     1       1.057   8.840  20.974  0.00  0.00    +0.000 C 
ATOM     19  O   UNL     1       0.831   8.835  22.180  0.00  0.00    +0.000 OA
ATOM     20  N   UNL     1       0.556   9.832  20.191  0.00  0.00    +0.000 N 
ATOM     21  C   UNL     1       0.565   9.922  18.829  0.00  0.00    +0.000 C 
ATOM     22  O   UNL     1      -0.095  10.797  18.269  0.00  0.00    +0.000 OA
ATOM     23  C   UNL     1       1.400   8.948  18.049  0.00  0.00    +0.000 C 
ATOM     24  H   UNL     1      -0.026  10.504  20.665  0.00  0.00    +0.000 HD
ENDBRANCH  15  16
ENDBRANCH   7  15
TORSDOF 2
ENDMDL
