MODEL 1
REMARK VINA RESULT:      -8.7      0.000      0.000
REMARK  Name = 
REMARK  4 active torsions:
REMARK  status: ('A' for Active; 'I' for Inactive)
REMARK    1  A    between atoms: C_1  and  N_2
REMARK    2  A    between atoms: C_7  and  C_8
REMARK    3  A    between atoms: C_23  and  C_24
REMARK    4  A    between atoms: C_24  and  O_25
REMARK                            x       y       z     vdW  Elec       q    Type
REMARK                         _______ _______ _______ _____ _____    ______ ____
ROOT
ATOM      1  C   UNL     1       4.435   1.382  20.425  0.00  0.00    +0.000 C 
ATOM      2  N   UNL     1       3.785   2.673  20.343  0.00  0.00    +0.000 N 
ATOM      3  C   UNL     1       2.698   2.960  21.122  0.00  0.00    +0.000 A 
ATOM      4  N   UNL     1       2.098   4.103  21.139  0.00  0.00    +0.000 NA
ATOM      5  C   UNL     1       2.553   5.087  20.243  0.00  0.00    +0.000 A 
ATOM      6  C   UNL     1       1.867   6.288  20.203  0.00  0.00    +0.000 A 
ATOM      7  C   UNL     1       2.254   7.277  19.308  0.00  0.00    +0.000 A 
ATOM      8  N   UNL     1       3.242   7.051  18.404  0.00  0.00    +0.000 NA
ATOM      9  C   UNL     1       3.925   5.865  18.403  0.00  0.00    +0.000 A 
ATOM     10  N   UNL     1       4.854   5.684  17.392  0.00  0.00    +0.000 N 
ATOM     11  C   UNL     1       5.292   6.820  16.581  0.00  0.00    +0.000 C 
ATOM     12  C   UNL     1       5.525   6.236  15.187  0.00  0.00    +0.000 C 
ATOM     13  C   UNL     1       5.891   4.785  15.466  0.00  0.00    +0.000 C 
ATOM     14  C   UNL     1       4.995   4.428  16.653  0.00  0.00    +0.000 C 
ATOM     15  C   UNL     1       3.634   4.900  19.380  0.00  0.00    +0.000 A 
ATOM     16  C   UNL     1       4.435   3.691  19.657  0.00  0.00    +0.000 A 
ATOM     17  O   UNL     1       5.633   3.626  19.390  0.00  0.00    +0.000 OA
ENDROOT
BRANCH   7  18
ATOM     18  C   UNL     1       1.477   8.540  19.210  0.00  0.00    +0.000 A 
ATOM     19  C   UNL     1       1.488   9.291  17.997  0.00  0.00    +0.000 A 
ATOM     20  C   UNL     1       1.241  10.663  17.978  0.00  0.00    +0.000 A 
ATOM     21  C   UNL     1       0.935  11.242  19.183  0.00  0.00    +0.000 A 
ATOM     22  C   UNL     1       0.646  10.493  20.325  0.00  0.00    +0.000 A 
ATOM     23  C   UNL     1       0.915   9.140  20.357  0.00  0.00    +0.000 A 
ATOM     24  C   UNL     1       0.342  11.451  21.440  0.00  0.00    +0.000 C 
ATOM     25  C   UNL     1       1.104  12.680  20.942  0.00  0.00    +0.000 C 
ATOM     26  O   UNL     1       1.595  13.569  21.615  0.00  0.00    +0.000 OA
ATOM     27  N   UNL     1       1.168  12.562  19.550  0.00  0.00    +0.000 N 
ATOM     28  H   UNL     1       1.712  13.207  18.995  0.00  0.00    +0.000 HD
ENDBRANCH   7  18
BRANCH  13  29
ATOM     29  C   UNL     1       5.688   3.847  14.287  0.00  0.00    +0.000 C 
BRANCH  29  30
ATOM     30  O   UNL     1       6.654   4.094  13.275  0.00  0.00    +0.000 OA
ATOM     31  H   UNL     1       6.309   3.728  12.442  0.00  0.00    +0.000 HD
ENDBRANCH  29  30
ENDBRANCH  13  29
TORSDOF 3
ENDMDL
MODEL 2
REMARK VINA RESULT:      -8.6      1.805      2.231
REMARK  Name = 
REMARK  4 active torsions:
REMARK  status: ('A' for Active; 'I' for Inactive)
REMARK    1  A    between atoms: C_1  and  N_2
REMARK    2  A    between atoms: C_7  and  C_8
REMARK    3  A    between atoms: C_23  and  C_24
REMARK    4  A    between atoms: C_24  and  O_25
REMARK                            x       y       z     vdW  Elec       q    Type
REMARK                         _______ _______ _______ _____ _____    ______ ____
ROOT
ATOM      1  C   UNL     1       4.401   1.472  20.180  0.00  0.00    +0.000 C 
ATOM      2  N   UNL     1       3.752   2.766  20.201  0.00  0.00    +0.000 N 
ATOM      3  C   UNL     1       2.696   3.005  21.036  0.00  0.00    +0.000 A 
ATOM      4  N   UNL     1       2.100   4.146  21.144  0.00  0.00    +0.000 NA
ATOM      5  C   UNL     1       2.524   5.182  20.293  0.00  0.00    +0.000 A 
ATOM      6  C   UNL     1       1.841   6.383  20.352  0.00  0.00    +0.000 A 
ATOM      7  C   UNL     1       2.196   7.425  19.504  0.00  0.00    +0.000 A 
ATOM      8  N   UNL     1       3.149   7.253  18.551  0.00  0.00    +0.000 NA
ATOM      9  C   UNL     1       3.828   6.069  18.453  0.00  0.00    +0.000 A 
ATOM     10  N   UNL     1       4.718   5.949  17.398  0.00  0.00    +0.000 N 
ATOM     11  C   UNL     1       5.128   7.131  16.641  0.00  0.00    +0.000 C 
ATOM     12  C   UNL     1       5.307   6.632  15.207  0.00  0.00    +0.000 C 
ATOM     13  C   UNL     1       5.680   5.167  15.384  0.00  0.00    +0.000 C 
ATOM     14  C   UNL     1       4.827   4.739  16.580  0.00  0.00    +0.000 C 
ATOM     15  C   UNL     1       3.571   5.047  19.380  0.00  0.00    +0.000 A 
ATOM     16  C   UNL     1       4.379   3.823  19.554  0.00  0.00    +0.000 A 
ATOM     17  O   UNL     1       5.566   3.773  19.238  0.00  0.00    +0.000 OA
ENDROOT
BRANCH   7  18
ATOM     18  C   UNL     1       1.420   8.691  19.511  0.00  0.00    +0.000 A 
ATOM     19  C   UNL     1       0.986   9.254  20.748  0.00  0.00    +0.000 A 
ATOM     20  C   UNL     1      -0.125  10.093  20.826  0.00  0.00    +0.000 A 
ATOM     21  C   UNL     1      -0.746  10.392  19.640  0.00  0.00    +0.000 A 
ATOM     22  C   UNL     1      -0.183  10.086  18.399  0.00  0.00    +0.000 A 
ATOM     23  C   UNL     1       0.899   9.233  18.317  0.00  0.00    +0.000 A 
ATOM     24  C   UNL     1      -1.124  10.570  17.335  0.00  0.00    +0.000 C 
ATOM     25  C   UNL     1      -2.435  10.558  18.121  0.00  0.00    +0.000 C 
ATOM     26  O   UNL     1      -3.560  10.403  17.680  0.00  0.00    +0.000 OA
ATOM     27  N   UNL     1      -2.086  10.716  19.465  0.00  0.00    +0.000 N 
ATOM     28  H   UNL     1      -2.777  10.640  20.198  0.00  0.00    +0.000 HD
ENDBRANCH   7  18
BRANCH  13  29
ATOM     29  C   UNL     1       5.429   4.301  14.159  0.00  0.00    +0.000 C 
BRANCH  29  30
ATOM     30  O   UNL     1       6.433   3.303  14.036  0.00  0.00    +0.000 OA
ATOM     31  H   UNL     1       6.260   2.811  13.214  0.00  0.00    +0.000 HD
ENDBRANCH  29  30
ENDBRANCH  13  29
TORSDOF 3
ENDMDL
MODEL 3
REMARK VINA RESULT:      -8.3      3.116      8.402
REMARK  Name = 
REMARK  4 active torsions:
REMARK  status: ('A' for Active; 'I' for Inactive)
REMARK    1  A    between atoms: C_1  and  N_2
REMARK    2  A    between atoms: C_7  and  C_8
REMARK    3  A    between atoms: C_23  and  C_24
REMARK    4  A    between atoms: C_24  and  O_25
REMARK                            x       y       z     vdW  Elec       q    Type
REMARK                         _______ _______ _______ _____ _____    ______ ____
ROOT
ATOM      1  C   UNL     1      -2.024  13.514  23.221  0.00  0.00    +0.000 C 
ATOM      2  N   UNL     1      -1.398  12.298  22.745  0.00  0.00    +0.000 N 
ATOM      3  C   UNL     1      -1.543  11.123  23.430  0.00  0.00    +0.000 A 
ATOM      4  N   UNL     1      -1.056   9.991  23.041  0.00  0.00    +0.000 NA
ATOM      5  C   UNL     1      -0.267   9.991  21.877  0.00  0.00    +0.000 A 
ATOM      6  C   UNL     1       0.319   8.796  21.497  0.00  0.00    +0.000 A 
ATOM      7  C   UNL     1       1.138   8.752  20.377  0.00  0.00    +0.000 A 
ATOM      8  N   UNL     1       1.449   9.886  19.695  0.00  0.00    +0.000 NA
ATOM      9  C   UNL     1       0.902  11.087  20.060  0.00  0.00    +0.000 A 
ATOM     10  N   UNL     1       1.342  12.204  19.368  0.00  0.00    +0.000 N 
ATOM     11  C   UNL     1       2.096  12.052  18.125  0.00  0.00    +0.000 C 
ATOM     12  C   UNL     1       3.091  13.213  18.128  0.00  0.00    +0.000 C 
ATOM     13  C   UNL     1       2.384  14.285  18.946  0.00  0.00    +0.000 C 
ATOM     14  C   UNL     1       1.664  13.473  20.025  0.00  0.00    +0.000 C 
ATOM     15  C   UNL     1      -0.025  11.133  21.112  0.00  0.00    +0.000 A 
ATOM     16  C   UNL     1      -0.871  12.292  21.460  0.00  0.00    +0.000 A 
ATOM     17  O   UNL     1      -1.176  13.150  20.634  0.00  0.00    +0.000 OA
ENDROOT
BRANCH   7  18
ATOM     18  C   UNL     1       1.828   7.490  20.005  0.00  0.00    +0.000 A 
ATOM     19  C   UNL     1       2.557   7.409  18.782  0.00  0.00    +0.000 A 
ATOM     20  C   UNL     1       2.777   6.194  18.135  0.00  0.00    +0.000 A 
ATOM     21  C   UNL     1       2.300   5.074  18.766  0.00  0.00    +0.000 A 
ATOM     22  C   UNL     1       1.835   5.093  20.082  0.00  0.00    +0.000 A 
ATOM     23  C   UNL     1       1.590   6.294  20.716  0.00  0.00    +0.000 A 
ATOM     24  C   UNL     1       1.413   3.698  20.442  0.00  0.00    +0.000 C 
ATOM     25  C   UNL     1       1.117   3.148  19.047  0.00  0.00    +0.000 C 
ATOM     26  O   UNL     1       0.326   2.269  18.752  0.00  0.00    +0.000 OA
ATOM     27  N   UNL     1       1.904   3.887  18.159  0.00  0.00    +0.000 N 
ATOM     28  H   UNL     1       1.810   3.777  17.159  0.00  0.00    +0.000 HD
ENDBRANCH   7  18
BRANCH  13  29
ATOM     29  C   UNL     1       3.308  15.337  19.537  0.00  0.00    +0.000 C 
BRANCH  29  30
ATOM     30  O   UNL     1       4.664  14.927  19.441  0.00  0.00    +0.000 OA
ATOM     31  H   UNL     1       5.068  15.031  20.320  0.00  0.00    +0.000 HD
ENDBRANCH  29  30
ENDBRANCH  13  29
TORSDOF 3
ENDMDL
MODEL 4
REMARK VINA RESULT:      -8.2      1.966      4.464
REMARK  Name = 
REMARK  4 active torsions:
REMARK  status: ('A' for Active; 'I' for Inactive)
REMARK    1  A    between atoms: C_1  and  N_2
REMARK    2  A    between atoms: C_7  and  C_8
REMARK    3  A    between atoms: C_23  and  C_24
REMARK    4  A    between atoms: C_24  and  O_25
REMARK                            x       y       z     vdW  Elec       q    Type
REMARK                         _______ _______ _______ _____ _____    ______ ____
ROOT
ATOM      1  C   UNL     1       6.150   3.745  15.271  0.00  0.00    +0.000 C 
ATOM      2  N   UNL     1       5.394   4.807  15.902  0.00  0.00    +0.000 N 
ATOM      3  C   UNL     1       5.568   6.109  15.523  0.00  0.00    +0.000 A 
ATOM      4  N   UNL     1       4.896   7.101  16.004  0.00  0.00    +0.000 NA
ATOM      5  C   UNL     1       3.982   6.825  17.036  0.00  0.00    +0.000 A 
ATOM      6  C   UNL     1       3.314   7.893  17.608  0.00  0.00    +0.000 A 
ATOM      7  C   UNL     1       2.429   7.676  18.656  0.00  0.00    +0.000 A 
ATOM      8  N   UNL     1       2.275   6.438  19.193  0.00  0.00    +0.000 NA
ATOM      9  C   UNL     1       2.938   5.364  18.663  0.00  0.00    +0.000 A 
ATOM     10  N   UNL     1       2.793   4.156  19.326  0.00  0.00    +0.000 N 
ATOM     11  C   UNL     1       1.744   3.988  20.332  0.00  0.00    +0.000 C 
ATOM     12  C   UNL     1       2.354   3.055  21.379  0.00  0.00    +0.000 C 
ATOM     13  C   UNL     1       3.355   2.231  20.580  0.00  0.00    +0.000 C 
ATOM     14  C   UNL     1       3.911   3.245  19.579  0.00  0.00    +0.000 C 
ATOM     15  C   UNL     1       3.741   5.540  17.525  0.00  0.00    +0.000 A 
ATOM     16  C   UNL     1       4.318   4.456  16.706  0.00  0.00    +0.000 A 
ATOM     17  O   UNL     1       3.816   3.335  16.659  0.00  0.00    +0.000 OA
ENDROOT
BRANCH   7  18
ATOM     18  C   UNL     1       1.764   8.826  19.322  0.00  0.00    +0.000 A 
ATOM     19  C   UNL     1       1.241   8.681  20.641  0.00  0.00    +0.000 A 
ATOM     20  C   UNL     1       0.202   9.481  21.113  0.00  0.00    +0.000 A 
ATOM     21  C   UNL     1      -0.253  10.453  20.259  0.00  0.00    +0.000 A 
ATOM     22  C   UNL     1       0.419  10.797  19.085  0.00  0.00    +0.000 A 
ATOM     23  C   UNL     1       1.429   9.991  18.600  0.00  0.00    +0.000 A 
ATOM     24  C   UNL     1      -0.351  11.900  18.419  0.00  0.00    +0.000 C 
ATOM     25  C   UNL     1      -1.739  11.636  19.002  0.00  0.00    +0.000 C 
ATOM     26  O   UNL     1      -2.816  11.894  18.493  0.00  0.00    +0.000 OA
ATOM     27  N   UNL     1      -1.534  10.993  20.226  0.00  0.00    +0.000 N 
ATOM     28  H   UNL     1      -2.308  10.624  20.760  0.00  0.00    +0.000 HD
ENDBRANCH   7  18
BRANCH  13  29
ATOM     29  C   UNL     1       4.449   1.588  21.417  0.00  0.00    +0.000 C 
BRANCH  29  30
ATOM     30  O   UNL     1       5.516   1.142  20.591  0.00  0.00    +0.000 OA
ATOM     31  H   UNL     1       6.092   1.906  20.415  0.00  0.00    +0.000 HD
ENDBRANCH  29  30
ENDBRANCH  13  29
TORSDOF 3
ENDMDL
MODEL 5
REMARK VINA RESULT:      -8.1      2.378      8.144
REMARK  Name = 
REMARK  4 active torsions:
REMARK  status: ('A' for Active; 'I' for Inactive)
REMARK    1  A    between atoms: C_1  and  N_2
REMARK    2  A    between atoms: C_7  and  C_8
REMARK    3  A    between atoms: C_23  and  C_24
REMARK    4  A    between atoms: C_24  and  O_25
REMARK                            x       y       z     vdW  Elec       q    Type
REMARK                         _______ _______ _______ _____ _____    ______ ____
ROOT
ATOM      1  C   UNL     1      -1.679  12.713  23.391  0.00  0.00    +0.000 C 
ATOM      2  N   UNL     1      -1.026  11.618  22.704  0.00  0.00    +0.000 N 
ATOM      3  C   UNL     1      -1.078  10.348  23.207  0.00  0.00    +0.000 A 
ATOM      4  N   UNL     1      -0.562   9.316  22.626  0.00  0.00    +0.000 NA
ATOM      5  C   UNL     1       0.159   9.533  21.438  0.00  0.00    +0.000 A 
ATOM      6  C   UNL     1       0.776   8.443  20.852  0.00  0.00    +0.000 A 
ATOM      7  C   UNL     1       1.532   8.613  19.699  0.00  0.00    +0.000 A 
ATOM      8  N   UNL     1       1.751   9.851  19.185  0.00  0.00    +0.000 NA
ATOM      9  C   UNL     1       1.172  10.952  19.755  0.00  0.00    +0.000 A 
ATOM     10  N   UNL     1       1.520  12.183  19.223  0.00  0.00    +0.000 N 
ATOM     11  C   UNL     1       2.209  12.261  17.935  0.00  0.00    +0.000 C 
ATOM     12  C   UNL     1       3.148  13.461  18.068  0.00  0.00    +0.000 C 
ATOM     13  C   UNL     1       2.439  14.357  19.074  0.00  0.00    +0.000 C 
ATOM     14  C   UNL     1       1.820  13.354  20.050  0.00  0.00    +0.000 C 
ATOM     15  C   UNL     1       0.304  10.789  20.847  0.00  0.00    +0.000 A 
ATOM     16  C   UNL     1      -0.573  11.835  21.409  0.00  0.00    +0.000 A 
ATOM     17  O   UNL     1      -0.963  12.789  20.741  0.00  0.00    +0.000 OA
ENDROOT
BRANCH   7  18
ATOM     18  C   UNL     1       2.257   7.460  19.105  0.00  0.00    +0.000 A 
ATOM     19  C   UNL     1       2.432   6.262  19.860  0.00  0.00    +0.000 A 
ATOM     20  C   UNL     1       3.483   5.381  19.611  0.00  0.00    +0.000 A 
ATOM     21  C   UNL     1       4.310   5.702  18.564  0.00  0.00    +0.000 A 
ATOM     22  C   UNL     1       4.002   6.705  17.643  0.00  0.00    +0.000 A 
ATOM     23  C   UNL     1       2.980   7.596  17.900  0.00  0.00    +0.000 A 
ATOM     24  C   UNL     1       5.114   6.763  16.637  0.00  0.00    +0.000 C 
ATOM     25  C   UNL     1       6.251   6.175  17.471  0.00  0.00    +0.000 C 
ATOM     26  O   UNL     1       7.444   6.398  17.358  0.00  0.00    +0.000 OA
ATOM     27  N   UNL     1       5.649   5.355  18.431  0.00  0.00    +0.000 N 
ATOM     28  H   UNL     1       6.190   4.929  19.169  0.00  0.00    +0.000 HD
ENDBRANCH   7  18
BRANCH  13  29
ATOM     29  C   UNL     1       3.346  15.356  19.774  0.00  0.00    +0.000 C 
BRANCH  29  30
ATOM     30  O   UNL     1       4.678  14.867  19.840  0.00  0.00    +0.000 OA
ATOM     31  H   UNL     1       4.660  13.926  19.593  0.00  0.00    +0.000 HD
ENDBRANCH  29  30
ENDBRANCH  13  29
TORSDOF 3
ENDMDL
MODEL 6
REMARK VINA RESULT:      -8.1      1.435      1.600
REMARK  Name = 
REMARK  4 active torsions:
REMARK  status: ('A' for Active; 'I' for Inactive)
REMARK    1  A    between atoms: C_1  and  N_2
REMARK    2  A    between atoms: C_7  and  C_8
REMARK    3  A    between atoms: C_23  and  C_24
REMARK    4  A    between atoms: C_24  and  O_25
REMARK                            x       y       z     vdW  Elec       q    Type
REMARK                         _______ _______ _______ _____ _____    ______ ____
ROOT
ATOM      1  C   UNL     1       3.917   2.187  20.634  0.00  0.00    +0.000 C 
ATOM      2  N   UNL     1       3.380   3.498  20.337  0.00  0.00    +0.000 N 
ATOM      3  C   UNL     1       2.307   3.988  21.030  0.00  0.00    +0.000 A 
ATOM      4  N   UNL     1       1.805   5.165  20.855  0.00  0.00    +0.000 NA
ATOM      5  C   UNL     1       2.357   5.959  19.834  0.00  0.00    +0.000 A 
ATOM      6  C   UNL     1       1.775   7.190  19.591  0.00  0.00    +0.000 A 
ATOM      7  C   UNL     1       2.258   7.995  18.568  0.00  0.00    +0.000 A 
ATOM      8  N   UNL     1       3.239   7.554  17.738  0.00  0.00    +0.000 NA
ATOM      9  C   UNL     1       3.820   6.331  17.939  0.00  0.00    +0.000 A 
ATOM     10  N   UNL     1       4.748   5.922  16.995  0.00  0.00    +0.000 N 
ATOM     11  C   UNL     1       5.293   6.880  16.033  0.00  0.00    +0.000 C 
ATOM     12  C   UNL     1       5.501   6.071  14.752  0.00  0.00    +0.000 C 
ATOM     13  C   UNL     1       5.739   4.656  15.260  0.00  0.00    +0.000 C 
ATOM     14  C   UNL     1       4.795   4.559  16.460  0.00  0.00    +0.000 C 
ATOM     15  C   UNL     1       3.432   5.555  19.042  0.00  0.00    +0.000 A 
ATOM     16  C   UNL     1       4.125   4.342  19.524  0.00  0.00    +0.000 A 
ATOM     17  O   UNL     1       5.317   4.141  19.305  0.00  0.00    +0.000 OA
ENDROOT
BRANCH   7  18
ATOM     18  C   UNL     1       1.592   9.286  18.255  0.00  0.00    +0.000 A 
ATOM     19  C   UNL     1       2.333  10.504  18.313  0.00  0.00    +0.000 A 
ATOM     20  C   UNL     1       1.715  11.732  18.542  0.00  0.00    +0.000 A 
ATOM     21  C   UNL     1       0.348  11.713  18.655  0.00  0.00    +0.000 A 
ATOM     22  C   UNL     1      -0.417  10.592  18.327  0.00  0.00    +0.000 A 
ATOM     23  C   UNL     1       0.189   9.369  18.128  0.00  0.00    +0.000 A 
ATOM     24  C   UNL     1      -1.860  10.938  18.554  0.00  0.00    +0.000 C 
ATOM     25  C   UNL     1      -1.701  12.052  19.589  0.00  0.00    +0.000 C 
ATOM     26  O   UNL     1      -2.494  12.375  20.456  0.00  0.00    +0.000 OA
ATOM     27  N   UNL     1      -0.435  12.606  19.376  0.00  0.00    +0.000 N 
ATOM     28  H   UNL     1      -0.055  13.300  20.004  0.00  0.00    +0.000 HD
ENDBRANCH   7  18
BRANCH  13  29
ATOM     29  C   UNL     1       5.478   3.566  14.232  0.00  0.00    +0.000 C 
BRANCH  29  30
ATOM     30  O   UNL     1       6.582   3.434  13.349  0.00  0.00    +0.000 OA
ATOM     31  H   UNL     1       6.900   2.516  13.409  0.00  0.00    +0.000 HD
ENDBRANCH  29  30
ENDBRANCH  13  29
TORSDOF 3
ENDMDL
MODEL 7
REMARK VINA RESULT:      -7.7      3.242      8.866
REMARK  Name = 
REMARK  4 active torsions:
REMARK  status: ('A' for Active; 'I' for Inactive)
REMARK    1  A    between atoms: C_1  and  N_2
REMARK    2  A    between atoms: C_7  and  C_8
REMARK    3  A    between atoms: C_23  and  C_24
REMARK    4  A    between atoms: C_24  and  O_25
REMARK                            x       y       z     vdW  Elec       q    Type
REMARK                         _______ _______ _______ _____ _____    ______ ____
ROOT
ATOM      1  C   UNL     1      -2.545  14.159  23.260  0.00  0.00    +0.000 C 
ATOM      2  N   UNL     1      -1.844  12.993  22.765  0.00  0.00    +0.000 N 
ATOM      3  C   UNL     1      -1.922  11.798  23.425  0.00  0.00    +0.000 A 
ATOM      4  N   UNL     1      -1.366  10.706  23.017  0.00  0.00    +0.000 NA
ATOM      5  C   UNL     1      -0.571  10.776  21.859  0.00  0.00    +0.000 A 
ATOM      6  C   UNL     1       0.088   9.627  21.460  0.00  0.00    +0.000 A 
ATOM      7  C   UNL     1       0.916   9.655  20.345  0.00  0.00    +0.000 A 
ATOM      8  N   UNL     1       1.162  10.819  19.689  0.00  0.00    +0.000 NA
ATOM      9  C   UNL     1       0.542  11.977  20.073  0.00  0.00    +0.000 A 
ATOM     10  N   UNL     1       0.918  13.133  19.407  0.00  0.00    +0.000 N 
ATOM     11  C   UNL     1       1.688  13.052  18.167  0.00  0.00    +0.000 C 
ATOM     12  C   UNL     1       2.611  14.270  18.200  0.00  0.00    +0.000 C 
ATOM     13  C   UNL     1       1.835  15.280  19.035  0.00  0.00    +0.000 C 
ATOM     14  C   UNL     1       1.159  14.405  20.091  0.00  0.00    +0.000 C 
ATOM     15  C   UNL     1      -0.393  11.946  21.119  0.00  0.00    +0.000 A 
ATOM     16  C   UNL     1      -1.309  13.045  21.484  0.00  0.00    +0.000 A 
ATOM     17  O   UNL     1      -1.660  13.899  20.673  0.00  0.00    +0.000 OA
ENDROOT
BRANCH   7  18
ATOM     18  C   UNL     1       1.683   8.444  19.954  0.00  0.00    +0.000 A 
ATOM     19  C   UNL     1       2.177   8.313  18.622  0.00  0.00    +0.000 A 
ATOM     20  C   UNL     1       2.429   7.067  18.050  0.00  0.00    +0.000 A 
ATOM     21  C   UNL     1       2.226   5.976  18.855  0.00  0.00    +0.000 A 
ATOM     22  C   UNL     1       2.015   6.086  20.231  0.00  0.00    +0.000 A 
ATOM     23  C   UNL     1       1.737   7.314  20.797  0.00  0.00    +0.000 A 
ATOM     24  C   UNL     1       1.851   4.700  20.784  0.00  0.00    +0.000 C 
ATOM     25  C   UNL     1       1.375   3.972  19.527  0.00  0.00    +0.000 C 
ATOM     26  O   UNL     1       0.665   2.984  19.468  0.00  0.00    +0.000 OA
ATOM     27  N   UNL     1       1.882   4.694  18.442  0.00  0.00    +0.000 N 
ATOM     28  H   UNL     1       1.620   4.466  17.493  0.00  0.00    +0.000 HD
ENDBRANCH   7  18
BRANCH  13  29
ATOM     29  C   UNL     1       2.690  16.374  19.654  0.00  0.00    +0.000 C 
BRANCH  29  30
ATOM     30  O   UNL     1       3.460  17.034  18.659  0.00  0.00    +0.000 OA
ATOM     31  H   UNL     1       3.008  17.868  18.440  0.00  0.00    +0.000 HD
ENDBRANCH  29  30
ENDBRANCH  13  29
TORSDOF 3
ENDMDL
MODEL 8
REMARK VINA RESULT:      -7.4      1.104      1.112
REMARK  Name = 
REMARK  4 active torsions:
REMARK  status: ('A' for Active; 'I' for Inactive)
REMARK    1  A    between atoms: C_1  and  N_2
REMARK    2  A    between atoms: C_7  and  C_8
REMARK    3  A    between atoms: C_23  and  C_24
REMARK    4  A    between atoms: C_24  and  O_25
REMARK                            x       y       z     vdW  Elec       q    Type
REMARK                         _______ _______ _______ _____ _____    ______ ____
ROOT
ATOM      1  C   UNL     1       3.691   1.073  19.178  0.00  0.00    +0.000 C 
ATOM      2  N   UNL     1       3.171   2.425  19.156  0.00  0.00    +0.000 N 
ATOM      3  C   UNL     1       1.877   2.682  19.517  0.00  0.00    +0.000 A 
ATOM      4  N   UNL     1       1.360   3.864  19.569  0.00  0.00    +0.000 NA
ATOM      5  C   UNL     1       2.163   4.943  19.157  0.00  0.00    +0.000 A 
ATOM      6  C   UNL     1       1.591   6.202  19.139  0.00  0.00    +0.000 A 
ATOM      7  C   UNL     1       2.332   7.293  18.703  0.00  0.00    +0.000 A 
ATOM      8  N   UNL     1       3.586   7.131  18.206  0.00  0.00    +0.000 NA
ATOM      9  C   UNL     1       4.172   5.894  18.190  0.00  0.00    +0.000 A 
ATOM     10  N   UNL     1       5.415   5.804  17.586  0.00  0.00    +0.000 N 
ATOM     11  C   UNL     1       6.175   7.014  17.277  0.00  0.00    +0.000 C 
ATOM     12  C   UNL     1       6.912   6.692  15.977  0.00  0.00    +0.000 C 
ATOM     13  C   UNL     1       7.088   5.180  16.035  0.00  0.00    +0.000 C 
ATOM     14  C   UNL     1       5.787   4.709  16.687  0.00  0.00    +0.000 C 
ATOM     15  C   UNL     1       3.488   4.798  18.741  0.00  0.00    +0.000 A 
ATOM     16  C   UNL     1       4.073   3.470  19.013  0.00  0.00    +0.000 A 
ATOM     17  O   UNL     1       5.277   3.315  19.205  0.00  0.00    +0.000 OA
ENDROOT
BRANCH   7  18
ATOM     18  C   UNL     1       1.701   8.635  18.613  0.00  0.00    +0.000 A 
ATOM     19  C   UNL     1       2.304   9.654  17.817  0.00  0.00    +0.000 A 
ATOM     20  C   UNL     1       2.096  11.008  18.073  0.00  0.00    +0.000 A 
ATOM     21  C   UNL     1       1.237  11.308  19.100  0.00  0.00    +0.000 A 
ATOM     22  C   UNL     1       0.426  10.346  19.706  0.00  0.00    +0.000 A 
ATOM     23  C   UNL     1       0.647   9.004  19.476  0.00  0.00    +0.000 A 
ATOM     24  C   UNL     1      -0.387  11.032  20.766  0.00  0.00    +0.000 C 
ATOM     25  C   UNL     1       0.519  12.228  21.056  0.00  0.00    +0.000 C 
ATOM     26  O   UNL     1       0.615  12.846  22.101  0.00  0.00    +0.000 OA
ATOM     27  N   UNL     1       1.258  12.451  19.890  0.00  0.00    +0.000 N 
ATOM     28  H   UNL     1       2.003  13.132  19.865  0.00  0.00    +0.000 HD
ENDBRANCH   7  18
BRANCH  13  29
ATOM     29  C   UNL     1       7.327   4.523  14.685  0.00  0.00    +0.000 C 
BRANCH  29  30
ATOM     30  O   UNL     1       7.821   5.468  13.746  0.00  0.00    +0.000 OA
ATOM     31  H   UNL     1       7.544   6.352  14.043  0.00  0.00    +0.000 HD
ENDBRANCH  29  30
ENDBRANCH  13  29
TORSDOF 3
ENDMDL
MODEL 9
REMARK VINA RESULT:      -7.4      1.769      4.215
REMARK  Name = 
REMARK  4 active torsions:
REMARK  status: ('A' for Active; 'I' for Inactive)
REMARK    1  A    between atoms: C_1  and  N_2
REMARK    2  A    between atoms: C_7  and  C_8
REMARK    3  A    between atoms: C_23  and  C_24
REMARK    4  A    between atoms: C_24  and  O_25
REMARK                            x       y       z     vdW  Elec       q    Type
REMARK                         _______ _______ _______ _____ _____    ______ ____
ROOT
ATOM      1  C   UNL     1       7.123   4.000  16.317  0.00  0.00    +0.000 C 
ATOM      2  N   UNL     1       6.194   5.074  16.598  0.00  0.00    +0.000 N 
ATOM      3  C   UNL     1       6.493   6.365  16.257  0.00  0.00    +0.000 A 
ATOM      4  N   UNL     1       5.695   7.365  16.432  0.00  0.00    +0.000 NA
ATOM      5  C   UNL     1       4.473   7.114  17.081  0.00  0.00    +0.000 A 
ATOM      6  C   UNL     1       3.648   8.194  17.338  0.00  0.00    +0.000 A 
ATOM      7  C   UNL     1       2.447   8.003  18.011  0.00  0.00    +0.000 A 
ATOM      8  N   UNL     1       2.111   6.783  18.503  0.00  0.00    +0.000 NA
ATOM      9  C   UNL     1       2.917   5.699  18.284  0.00  0.00    +0.000 A 
ATOM     10  N   UNL     1       2.544   4.513  18.896  0.00  0.00    +0.000 N 
ATOM     11  C   UNL     1       1.206   4.368  19.469  0.00  0.00    +0.000 C 
ATOM     12  C   UNL     1       1.402   3.480  20.698  0.00  0.00    +0.000 C 
ATOM     13  C   UNL     1       2.621   2.641  20.338  0.00  0.00    +0.000 C 
ATOM     14  C   UNL     1       3.498   3.625  19.563  0.00  0.00    +0.000 C 
ATOM     15  C   UNL     1       4.072   5.845  17.500  0.00  0.00    +0.000 A 
ATOM     16  C   UNL     1       4.902   4.739  16.980  0.00  0.00    +0.000 A 
ATOM     17  O   UNL     1       4.447   3.612  16.799  0.00  0.00    +0.000 OA
ENDROOT
BRANCH   7  18
ATOM     18  C   UNL     1       1.591   9.168  18.354  0.00  0.00    +0.000 A 
ATOM     19  C   UNL     1       2.012  10.488  18.013  0.00  0.00    +0.000 A 
ATOM     20  C   UNL     1       1.567  11.607  18.714  0.00  0.00    +0.000 A 
ATOM     21  C   UNL     1       0.659  11.375  19.716  0.00  0.00    +0.000 A 
ATOM     22  C   UNL     1       0.025  10.143  19.885  0.00  0.00    +0.000 A 
ATOM     23  C   UNL     1       0.481   9.027  19.214  0.00  0.00    +0.000 A 
ATOM     24  C   UNL     1      -0.905  10.261  21.057  0.00  0.00    +0.000 C 
ATOM     25  C   UNL     1      -0.227  11.403  21.814  0.00  0.00    +0.000 C 
ATOM     26  O   UNL     1      -0.250  11.612  23.014  0.00  0.00    +0.000 OA
ATOM     27  N   UNL     1       0.472  12.146  20.857  0.00  0.00    +0.000 N 
ATOM     28  H   UNL     1       1.086  12.901  21.127  0.00  0.00    +0.000 HD
ENDBRANCH   7  18
BRANCH  13  29
ATOM     29  C   UNL     1       3.345   2.040  21.532  0.00  0.00    +0.000 C 
BRANCH  29  30
ATOM     30  O   UNL     1       4.708   1.790  21.220  0.00  0.00    +0.000 OA
ATOM     31  H   UNL     1       4.741   1.405  20.327  0.00  0.00    +0.000 HD
ENDBRANCH  29  30
ENDBRANCH  13  29
TORSDOF 3
ENDMDL
