MODEL 1
REMARK VINA RESULT:      -7.0      0.000      0.000
REMARK  Name = 
REMARK  4 active torsions:
REMARK  status: ('A' for Active; 'I' for Inactive)
REMARK    1  A    between atoms: S_2  and  N_4
REMARK    2  A    between atoms: S_2  and  C_11
REMARK    3  A    between atoms: N_4  and  C_5
REMARK    4  A    between atoms: C_5  and  C_6
REMARK                            x       y       z     vdW  Elec       q    Type
REMARK                         _______ _______ _______ _____ _____    ______ ____
ROOT
ATOM      1  O   UNL     1       4.469   5.737  19.610  0.00  0.00    +0.000 OA
ATOM      2  S   UNL     1       5.631   4.957  19.249  0.00  0.00    +0.000 S 
ATOM      3  O   UNL     1       6.905   5.119  19.916  0.00  0.00    +0.000 OA
ENDROOT
BRANCH   2   4
ATOM      4  C   UNL     1       5.891   5.167  17.505  0.00  0.00    +0.000 A 
ATOM      5  C   UNL     1       6.803   4.352  16.823  0.00  0.00    +0.000 A 
ATOM      6  C   UNL     1       6.971   4.511  15.445  0.00  0.00    +0.000 A 
ATOM      7  C   UNL     1       6.231   5.477  14.762  0.00  0.00    +0.000 A 
ATOM      8  C   UNL     1       5.330   6.279  15.458  0.00  0.00    +0.000 A 
ATOM      9  F   UNL     1       4.618   7.198  14.794  0.00  0.00    +0.000 F 
ATOM     10  C   UNL     1       5.152   6.139  16.827  0.00  0.00    +0.000 A 
ENDBRANCH   2   4
BRANCH   2  11
ATOM     11  N   UNL     1       5.195   3.334  19.361  0.00  0.00    +0.000 NA
ATOM     12  H   UNL     1       5.224   2.982  20.318  0.00  0.00    +0.000 HD
BRANCH  11  13
ATOM     13  C   UNL     1       4.036   2.900  18.563  0.00  0.00    +0.000 C 
BRANCH  13  14
ATOM     14  C   UNL     1       2.840   2.581  19.470  0.00  0.00    +0.000 C 
ATOM     15  C   UNL     1       1.745   3.622  19.297  0.00  0.00    +0.000 C 
ATOM     16  C   UNL     1       0.909   3.450  20.546  0.00  0.00    +0.000 C 
ATOM     17  C   UNL     1       1.893   2.962  21.601  0.00  0.00    +0.000 C 
ATOM     18  N   UNL     1       3.156   2.668  20.909  0.00  0.00    +0.000 NA
ATOM     19  H   UNL     1       3.522   1.774  21.238  0.00  0.00    +0.000 HD
ENDBRANCH  13  14
ENDBRANCH  11  13
ENDBRANCH   2  11
TORSDOF 4
ENDMDL
MODEL 2
REMARK VINA RESULT:      -7.0      2.719      5.831
REMARK  Name = 
REMARK  4 active torsions:
REMARK  status: ('A' for Active; 'I' for Inactive)
REMARK    1  A    between atoms: S_2  and  N_4
REMARK    2  A    between atoms: S_2  and  C_11
REMARK    3  A    between atoms: N_4  and  C_5
REMARK    4  A    between atoms: C_5  and  C_6
REMARK                            x       y       z     vdW  Elec       q    Type
REMARK                         _______ _______ _______ _____ _____    ______ ____
ROOT
ATOM      1  O   UNL     1       5.836   4.848  19.882  0.00  0.00    +0.000 OA
ATOM      2  S   UNL     1       5.256   4.988  18.566  0.00  0.00    +0.000 S 
ATOM      3  O   UNL     1       5.015   6.281  17.964  0.00  0.00    +0.000 OA
ENDROOT
BRANCH   2   4
ATOM      4  C   UNL     1       3.729   4.082  18.560  0.00  0.00    +0.000 A 
ATOM      5  C   UNL     1       3.537   3.026  17.660  0.00  0.00    +0.000 A 
ATOM      6  C   UNL     1       2.342   2.304  17.690  0.00  0.00    +0.000 A 
ATOM      7  C   UNL     1       1.351   2.641  18.613  0.00  0.00    +0.000 A 
ATOM      8  C   UNL     1       1.559   3.695  19.499  0.00  0.00    +0.000 A 
ATOM      9  F   UNL     1       0.607   4.007  20.387  0.00  0.00    +0.000 F 
ATOM     10  C   UNL     1       2.738   4.426  19.481  0.00  0.00    +0.000 A 
ENDBRANCH   2   4
BRANCH   2  11
ATOM     11  N   UNL     1       6.214   4.098  17.504  0.00  0.00    +0.000 NA
ATOM     12  H   UNL     1       5.691   3.373  17.013  0.00  0.00    +0.000 HD
BRANCH  11  13
ATOM     13  C   UNL     1       7.173   4.852  16.680  0.00  0.00    +0.000 C 
BRANCH  13  14
ATOM     14  C   UNL     1       6.653   5.006  15.244  0.00  0.00    +0.000 C 
ATOM     15  C   UNL     1       6.037   3.704  14.757  0.00  0.00    +0.000 C 
ATOM     16  C   UNL     1       6.031   3.870  13.254  0.00  0.00    +0.000 C 
ATOM     17  C   UNL     1       7.223   4.773  12.963  0.00  0.00    +0.000 C 
ATOM     18  N   UNL     1       7.723   5.256  14.258  0.00  0.00    +0.000 NA
ATOM     19  H   UNL     1       7.910   6.258  14.196  0.00  0.00    +0.000 HD
ENDBRANCH  13  14
ENDBRANCH  11  13
ENDBRANCH   2  11
TORSDOF 4
ENDMDL
MODEL 3
REMARK VINA RESULT:      -6.7      3.050      6.054
REMARK  Name = 
REMARK  4 active torsions:
REMARK  status: ('A' for Active; 'I' for Inactive)
REMARK    1  A    between atoms: S_2  and  N_4
REMARK    2  A    between atoms: S_2  and  C_11
REMARK    3  A    between atoms: N_4  and  C_5
REMARK    4  A    between atoms: C_5  and  C_6
REMARK                            x       y       z     vdW  Elec       q    Type
REMARK                         _______ _______ _______ _____ _____    ______ ____
ROOT
ATOM      1  O   UNL     1       4.744   5.596  19.649  0.00  0.00    +0.000 OA
ATOM      2  S   UNL     1       3.418   5.954  19.198  0.00  0.00    +0.000 S 
ATOM      3  O   UNL     1       2.712   7.106  19.717  0.00  0.00    +0.000 OA
ENDROOT
BRANCH   2   4
ATOM      4  C   UNL     1       2.381   4.528  19.412  0.00  0.00    +0.000 A 
ATOM      5  C   UNL     1       1.883   3.843  18.297  0.00  0.00    +0.000 A 
ATOM      6  C   UNL     1       1.094   2.706  18.484  0.00  0.00    +0.000 A 
ATOM      7  C   UNL     1       0.810   2.263  19.776  0.00  0.00    +0.000 A 
ATOM      8  C   UNL     1       1.313   2.959  20.873  0.00  0.00    +0.000 A 
ATOM      9  F   UNL     1       1.043   2.523  22.110  0.00  0.00    +0.000 F 
ATOM     10  C   UNL     1       2.095   4.093  20.707  0.00  0.00    +0.000 A 
ENDBRANCH   2   4
BRANCH   2  11
ATOM     11  N   UNL     1       3.488   6.107  17.522  0.00  0.00    +0.000 NA
ATOM     12  H   UNL     1       2.611   6.436  17.118  0.00  0.00    +0.000 HD
BRANCH  11  13
ATOM     13  C   UNL     1       4.708   6.709  16.958  0.00  0.00    +0.000 C 
BRANCH  13  14
ATOM     14  C   UNL     1       5.229   5.878  15.777  0.00  0.00    +0.000 C 
ATOM     15  C   UNL     1       5.044   4.393  16.045  0.00  0.00    +0.000 C 
ATOM     16  C   UNL     1       6.002   3.747  15.070  0.00  0.00    +0.000 C 
ATOM     17  C   UNL     1       7.120   4.767  14.900  0.00  0.00    +0.000 C 
ATOM     18  N   UNL     1       6.686   5.999  15.573  0.00  0.00    +0.000 NA
ATOM     19  H   UNL     1       6.887   6.801  14.975  0.00  0.00    +0.000 HD
ENDBRANCH  13  14
ENDBRANCH  11  13
ENDBRANCH   2  11
TORSDOF 4
ENDMDL
MODEL 4
REMARK VINA RESULT:      -6.6      3.031      6.051
REMARK  Name = 
REMARK  4 active torsions:
REMARK  status: ('A' for Active; 'I' for Inactive)
REMARK    1  A    between atoms: S_2  and  N_4
REMARK    2  A    between atoms: S_2  and  C_11
REMARK    3  A    between atoms: N_4  and  C_5
REMARK    4  A    between atoms: C_5  and  C_6
REMARK                            x       y       z     vdW  Elec       q    Type
REMARK                         _______ _______ _______ _____ _____    ______ ____
ROOT
ATOM      1  O   UNL     1       3.534   5.644  17.403  0.00  0.00    +0.000 OA
ATOM      2  S   UNL     1       3.397   4.206  17.425  0.00  0.00    +0.000 S 
ATOM      3  O   UNL     1       2.602   3.493  16.449  0.00  0.00    +0.000 OA
ENDROOT
BRANCH   2   4
ATOM      4  C   UNL     1       2.823   3.752  19.043  0.00  0.00    +0.000 A 
ATOM      5  C   UNL     1       1.571   4.186  19.496  0.00  0.00    +0.000 A 
ATOM      6  C   UNL     1       1.123   3.794  20.760  0.00  0.00    +0.000 A 
ATOM      7  C   UNL     1       1.924   2.976  21.557  0.00  0.00    +0.000 A 
ATOM      8  C   UNL     1       3.167   2.556  21.090  0.00  0.00    +0.000 A 
ATOM      9  F   UNL     1       3.926   1.765  21.858  0.00  0.00    +0.000 F 
ATOM     10  C   UNL     1       3.632   2.939  19.840  0.00  0.00    +0.000 A 
ENDBRANCH   2   4
BRANCH   2  11
ATOM     11  N   UNL     1       4.952   3.558  17.394  0.00  0.00    +0.000 NA
ATOM     12  H   UNL     1       4.973   2.569  17.642  0.00  0.00    +0.000 HD
BRANCH  11  13
ATOM     13  C   UNL     1       5.811   3.944  16.262  0.00  0.00    +0.000 C 
BRANCH  13  14
ATOM     14  C   UNL     1       6.876   4.955  16.708  0.00  0.00    +0.000 C 
ATOM     15  C   UNL     1       7.059   4.909  18.216  0.00  0.00    +0.000 C 
ATOM     16  C   UNL     1       7.733   6.228  18.520  0.00  0.00    +0.000 C 
ATOM     17  C   UNL     1       7.228   7.174  17.439  0.00  0.00    +0.000 C 
ATOM     18  N   UNL     1       6.491   6.359  16.463  0.00  0.00    +0.000 NA
ATOM     19  H   UNL     1       6.762   6.633  15.519  0.00  0.00    +0.000 HD
ENDBRANCH  13  14
ENDBRANCH  11  13
ENDBRANCH   2  11
TORSDOF 4
ENDMDL
MODEL 5
REMARK VINA RESULT:      -6.6      2.751      3.457
REMARK  Name = 
REMARK  4 active torsions:
REMARK  status: ('A' for Active; 'I' for Inactive)
REMARK    1  A    between atoms: S_2  and  N_4
REMARK    2  A    between atoms: S_2  and  C_11
REMARK    3  A    between atoms: N_4  and  C_5
REMARK    4  A    between atoms: C_5  and  C_6
REMARK                            x       y       z     vdW  Elec       q    Type
REMARK                         _______ _______ _______ _____ _____    ______ ____
ROOT
ATOM      1  O   UNL     1       7.134   6.676  16.357  0.00  0.00    +0.000 OA
ATOM      2  S   UNL     1       6.497   5.391  16.182  0.00  0.00    +0.000 S 
ATOM      3  O   UNL     1       6.816   4.253  17.018  0.00  0.00    +0.000 OA
ENDROOT
BRANCH   2   4
ATOM      4  C   UNL     1       6.725   4.912  14.487  0.00  0.00    +0.000 A 
ATOM      5  C   UNL     1       7.704   5.533  13.703  0.00  0.00    +0.000 A 
ATOM      6  C   UNL     1       7.889   5.122  12.380  0.00  0.00    +0.000 A 
ATOM      7  C   UNL     1       7.099   4.099  11.854  0.00  0.00    +0.000 A 
ATOM      8  C   UNL     1       6.129   3.494  12.650  0.00  0.00    +0.000 A 
ATOM      9  F   UNL     1       5.381   2.509  12.140  0.00  0.00    +0.000 F 
ATOM     10  C   UNL     1       5.927   3.892  13.964  0.00  0.00    +0.000 A 
ENDBRANCH   2   4
BRANCH   2  11
ATOM     11  N   UNL     1       4.835   5.644  16.271  0.00  0.00    +0.000 NA
ATOM     12  H   UNL     1       4.350   5.389  15.410  0.00  0.00    +0.000 HD
BRANCH  11  13
ATOM     13  C   UNL     1       4.164   5.238  17.517  0.00  0.00    +0.000 C 
BRANCH  13  14
ATOM     14  C   UNL     1       3.501   3.864  17.355  0.00  0.00    +0.000 C 
ATOM     15  C   UNL     1       2.184   3.813  18.113  0.00  0.00    +0.000 C 
ATOM     16  C   UNL     1       1.926   2.330  18.254  0.00  0.00    +0.000 C 
ATOM     17  C   UNL     1       3.314   1.702  18.291  0.00  0.00    +0.000 C 
ATOM     18  N   UNL     1       4.276   2.764  17.963  0.00  0.00    +0.000 NA
ATOM     19  H   UNL     1       4.958   2.408  17.293  0.00  0.00    +0.000 HD
ENDBRANCH  13  14
ENDBRANCH  11  13
ENDBRANCH   2  11
TORSDOF 4
ENDMDL
MODEL 6
REMARK VINA RESULT:      -6.6      3.009      6.242
REMARK  Name = 
REMARK  4 active torsions:
REMARK  status: ('A' for Active; 'I' for Inactive)
REMARK    1  A    between atoms: S_2  and  N_4
REMARK    2  A    between atoms: S_2  and  C_11
REMARK    3  A    between atoms: N_4  and  C_5
REMARK    4  A    between atoms: C_5  and  C_6
REMARK                            x       y       z     vdW  Elec       q    Type
REMARK                         _______ _______ _______ _____ _____    ______ ____
ROOT
ATOM      1  O   UNL     1       6.153   4.237  19.358  0.00  0.00    +0.000 OA
ATOM      2  S   UNL     1       5.314   4.820  18.336  0.00  0.00    +0.000 S 
ATOM      3  O   UNL     1       5.219   6.251  18.141  0.00  0.00    +0.000 OA
ENDROOT
BRANCH   2   4
ATOM      4  C   UNL     1       3.672   4.184  18.570  0.00  0.00    +0.000 A 
ATOM      5  C   UNL     1       2.693   4.379  17.588  0.00  0.00    +0.000 A 
ATOM      6  C   UNL     1       1.415   3.845  17.775  0.00  0.00    +0.000 A 
ATOM      7  C   UNL     1       1.127   3.125  18.935  0.00  0.00    +0.000 A 
ATOM      8  C   UNL     1       2.114   2.943  19.901  0.00  0.00    +0.000 A 
ATOM      9  F   UNL     1       1.832   2.243  21.006  0.00  0.00    +0.000 F 
ATOM     10  C   UNL     1       3.387   3.469  19.735  0.00  0.00    +0.000 A 
ENDBRANCH   2   4
BRANCH   2  11
ATOM     11  N   UNL     1       5.768   4.130  16.868  0.00  0.00    +0.000 NA
ATOM     12  H   UNL     1       4.972   3.932  16.262  0.00  0.00    +0.000 HD
BRANCH  11  13
ATOM     13  C   UNL     1       6.944   4.707  16.197  0.00  0.00    +0.000 C 
BRANCH  13  14
ATOM     14  C   UNL     1       6.651   4.968  14.713  0.00  0.00    +0.000 C 
ATOM     15  C   UNL     1       6.271   3.676  14.008  0.00  0.00    +0.000 C 
ATOM     16  C   UNL     1       6.490   4.005  12.548  0.00  0.00    +0.000 C 
ATOM     17  C   UNL     1       7.605   5.042  12.553  0.00  0.00    +0.000 C 
ATOM     18  N   UNL     1       7.831   5.426  13.954  0.00  0.00    +0.000 NA
ATOM     19  H   UNL     1       7.912   6.440  14.018  0.00  0.00    +0.000 HD
ENDBRANCH  13  14
ENDBRANCH  11  13
ENDBRANCH   2  11
TORSDOF 4
ENDMDL
MODEL 7
REMARK VINA RESULT:      -6.6      2.028      2.444
REMARK  Name = 
REMARK  4 active torsions:
REMARK  status: ('A' for Active; 'I' for Inactive)
REMARK    1  A    between atoms: S_2  and  N_4
REMARK    2  A    between atoms: S_2  and  C_11
REMARK    3  A    between atoms: N_4  and  C_5
REMARK    4  A    between atoms: C_5  and  C_6
REMARK                            x       y       z     vdW  Elec       q    Type
REMARK                         _______ _______ _______ _____ _____    ______ ____
ROOT
ATOM      1  O   UNL     1       2.932   7.240  18.102  0.00  0.00    +0.000 OA
ATOM      2  S   UNL     1       3.332   5.904  18.480  0.00  0.00    +0.000 S 
ATOM      3  O   UNL     1       3.600   5.540  19.855  0.00  0.00    +0.000 OA
ENDROOT
BRANCH   2   4
ATOM      4  C   UNL     1       4.757   5.480  17.509  0.00  0.00    +0.000 A 
ATOM      5  C   UNL     1       4.731   5.626  16.116  0.00  0.00    +0.000 A 
ATOM      6  C   UNL     1       5.872   5.317  15.371  0.00  0.00    +0.000 A 
ATOM      7  C   UNL     1       7.023   4.868  16.019  0.00  0.00    +0.000 A 
ATOM      8  C   UNL     1       7.029   4.727  17.404  0.00  0.00    +0.000 A 
ATOM      9  F   UNL     1       8.140   4.303  18.018  0.00  0.00    +0.000 F 
ATOM     10  C   UNL     1       5.904   5.025  18.161  0.00  0.00    +0.000 A 
ENDBRANCH   2   4
BRANCH   2  11
ATOM     11  N   UNL     1       2.160   4.849  17.889  0.00  0.00    +0.000 NA
ATOM     12  H   UNL     1       1.644   5.235  17.099  0.00  0.00    +0.000 HD
BRANCH  11  13
ATOM     13  C   UNL     1       2.541   3.432  17.764  0.00  0.00    +0.000 C 
BRANCH  13  14
ATOM     14  C   UNL     1       2.209   2.663  19.050  0.00  0.00    +0.000 C 
ATOM     15  C   UNL     1       1.032   3.305  19.767  0.00  0.00    +0.000 C 
ATOM     16  C   UNL     1       1.150   2.761  21.173  0.00  0.00    +0.000 C 
ATOM     17  C   UNL     1       2.643   2.526  21.369  0.00  0.00    +0.000 C 
ATOM     18  N   UNL     1       3.284   2.720  20.060  0.00  0.00    +0.000 NA
ATOM     19  H   UNL     1       3.953   1.967  19.897  0.00  0.00    +0.000 HD
ENDBRANCH  13  14
ENDBRANCH  11  13
ENDBRANCH   2  11
TORSDOF 4
ENDMDL
MODEL 8
REMARK VINA RESULT:      -6.6      1.951      2.315
REMARK  Name = 
REMARK  4 active torsions:
REMARK  status: ('A' for Active; 'I' for Inactive)
REMARK    1  A    between atoms: S_2  and  N_4
REMARK    2  A    between atoms: S_2  and  C_11
REMARK    3  A    between atoms: N_4  and  C_5
REMARK    4  A    between atoms: C_5  and  C_6
REMARK                            x       y       z     vdW  Elec       q    Type
REMARK                         _______ _______ _______ _____ _____    ______ ____
ROOT
ATOM      1  O   UNL     1       5.757   4.197  19.394  0.00  0.00    +0.000 OA
ATOM      2  S   UNL     1       4.789   3.990  18.341  0.00  0.00    +0.000 S 
ATOM      3  O   UNL     1       4.048   2.754  18.207  0.00  0.00    +0.000 OA
ENDROOT
BRANCH   2   4
ATOM      4  C   UNL     1       5.606   4.314  16.798  0.00  0.00    +0.000 A 
ATOM      5  C   UNL     1       6.919   4.801  16.782  0.00  0.00    +0.000 A 
ATOM      6  C   UNL     1       7.557   5.020  15.559  0.00  0.00    +0.000 A 
ATOM      7  C   UNL     1       6.883   4.753  14.367  0.00  0.00    +0.000 A 
ATOM      8  C   UNL     1       5.577   4.271  14.402  0.00  0.00    +0.000 A 
ATOM      9  F   UNL     1       4.940   4.010  13.255  0.00  0.00    +0.000 F 
ATOM     10  C   UNL     1       4.925   4.051  15.608  0.00  0.00    +0.000 A 
ENDBRANCH   2   4
BRANCH   2  11
ATOM     11  N   UNL     1       3.675   5.250  18.436  0.00  0.00    +0.000 NA
ATOM     12  H   UNL     1       2.930   5.171  17.744  0.00  0.00    +0.000 HD
BRANCH  11  13
ATOM     13  C   UNL     1       3.246   5.660  19.783  0.00  0.00    +0.000 C 
BRANCH  13  14
ATOM     14  C   UNL     1       2.015   4.858  20.229  0.00  0.00    +0.000 C 
ATOM     15  C   UNL     1       2.401   3.822  21.273  0.00  0.00    +0.000 C 
ATOM     16  C   UNL     1       1.243   2.851  21.235  0.00  0.00    +0.000 C 
ATOM     17  C   UNL     1       0.729   2.922  19.803  0.00  0.00    +0.000 C 
ATOM     18  N   UNL     1       1.427   4.040  19.150  0.00  0.00    +0.000 NA
ATOM     19  H   UNL     1       0.755   4.595  18.620  0.00  0.00    +0.000 HD
ENDBRANCH  13  14
ENDBRANCH  11  13
ENDBRANCH   2  11
TORSDOF 4
ENDMDL
MODEL 9
REMARK VINA RESULT:      -6.6      1.574      1.905
REMARK  Name = 
REMARK  4 active torsions:
REMARK  status: ('A' for Active; 'I' for Inactive)
REMARK    1  A    between atoms: S_2  and  N_4
REMARK    2  A    between atoms: S_2  and  C_11
REMARK    3  A    between atoms: N_4  and  C_5
REMARK    4  A    between atoms: C_5  and  C_6
REMARK                            x       y       z     vdW  Elec       q    Type
REMARK                         _______ _______ _______ _____ _____    ______ ____
ROOT
ATOM      1  O   UNL     1       3.090   7.183  17.756  0.00  0.00    +0.000 OA
ATOM      2  S   UNL     1       3.533   5.917  18.293  0.00  0.00    +0.000 S 
ATOM      3  O   UNL     1       3.776   5.722  19.706  0.00  0.00    +0.000 OA
ENDROOT
BRANCH   2   4
ATOM      4  C   UNL     1       5.003   5.452  17.411  0.00  0.00    +0.000 A 
ATOM      5  C   UNL     1       6.143   5.035  18.108  0.00  0.00    +0.000 A 
ATOM      6  C   UNL     1       7.280   4.643  17.397  0.00  0.00    +0.000 A 
ATOM      7  C   UNL     1       7.269   4.670  16.002  0.00  0.00    +0.000 A 
ATOM      8  C   UNL     1       6.126   5.089  15.326  0.00  0.00    +0.000 A 
ATOM      9  F   UNL     1       6.121   5.105  13.987  0.00  0.00    +0.000 F 
ATOM     10  C   UNL     1       4.989   5.487  16.015  0.00  0.00    +0.000 A 
ENDBRANCH   2   4
BRANCH   2  11
ATOM     11  N   UNL     1       2.424   4.751  17.796  0.00  0.00    +0.000 NA
ATOM     12  H   UNL     1       1.918   5.022  16.953  0.00  0.00    +0.000 HD
BRANCH  11  13
ATOM     13  C   UNL     1       2.866   3.348  17.845  0.00  0.00    +0.000 C 
BRANCH  13  14
ATOM     14  C   UNL     1       2.406   2.678  19.147  0.00  0.00    +0.000 C 
ATOM     15  C   UNL     1       1.133   3.328  19.662  0.00  0.00    +0.000 C 
ATOM     16  C   UNL     1       1.098   2.911  21.115  0.00  0.00    +0.000 C 
ATOM     17  C   UNL     1       2.563   2.755  21.503  0.00  0.00    +0.000 C 
ATOM     18  N   UNL     1       3.350   2.864  20.267  0.00  0.00    +0.000 NA
ATOM     19  H   UNL     1       4.058   2.129  20.250  0.00  0.00    +0.000 HD
ENDBRANCH  13  14
ENDBRANCH  11  13
ENDBRANCH   2  11
TORSDOF 4
ENDMDL
