MODEL 1
REMARK VINA RESULT:      -5.9      0.000      0.000
REMARK  Name = 
REMARK  3 active torsions:
REMARK  status: ('A' for Active; 'I' for Inactive)
REMARK    1  A    between atoms: C_2  and  C_4
REMARK    2  A    between atoms: C_9  and  C_10
REMARK    3  A    between atoms: C_12  and  O_13
REMARK                            x       y       z     vdW  Elec       q    Type
REMARK                         _______ _______ _______ _____ _____    ______ ____
ROOT
ATOM      1  C   UNL     1       5.481   5.894  17.527  0.00  0.00    +0.000 A 
ATOM      2  C   UNL     1       4.275   6.608  17.482  0.00  0.00    +0.000 A 
ATOM      3  C   UNL     1       3.100   6.056  17.992  0.00  0.00    +0.000 A 
ATOM      4  C   UNL     1       3.114   4.784  18.573  0.00  0.00    +0.000 A 
ATOM      5 BR   UNL     1       1.449   4.134  19.217  0.00  0.00    +0.000 Br
ATOM      6  C   UNL     1       4.316   4.061  18.651  0.00  0.00    +0.000 A 
ATOM      7  C   UNL     1       5.501   4.619  18.118  0.00  0.00    +0.000 A 
ENDROOT
BRANCH   1   9
ATOM      8  N   UNL     1       7.374   5.868  15.985  0.00  0.00    +0.000 N 
ATOM      9  C   UNL     1       6.671   6.562  16.926  0.00  0.00    +0.000 C 
ATOM     10  O   UNL     1       6.991   7.701  17.239  0.00  0.00    +0.000 OA
ATOM     11  H   UNL     1       8.236   6.270  15.644  0.00  0.00    +0.000 HD
ATOM     12  H   UNL     1       7.217   4.872  15.865  0.00  0.00    +0.000 HD
ENDBRANCH   1   9
BRANCH   6  13
ATOM     13  C   UNL     1       4.362   2.725  19.288  0.00  0.00    +0.000 C 
ATOM     14  O   UNL     1       5.162   2.498  20.195  0.00  0.00    +0.000 OA
ENDBRANCH   6  13
BRANCH   7  15
ATOM     15  O   UNL     1       6.697   3.937  18.172  0.00  0.00    +0.000 OA
ATOM     16  H   UNL     1       7.415   4.523  17.834  0.00  0.00    +0.000 HD
ENDBRANCH   7  15
TORSDOF 3
ENDMDL
MODEL 2
REMARK VINA RESULT:      -5.9      0.978      1.033
REMARK  Name = 
REMARK  3 active torsions:
REMARK  status: ('A' for Active; 'I' for Inactive)
REMARK    1  A    between atoms: C_2  and  C_4
REMARK    2  A    between atoms: C_9  and  C_10
REMARK    3  A    between atoms: C_12  and  O_13
REMARK                            x       y       z     vdW  Elec       q    Type
REMARK                         _______ _______ _______ _____ _____    ______ ____
ROOT
ATOM      1  C   UNL     1       4.621   5.618  17.752  0.00  0.00    +0.000 A 
ATOM      2  C   UNL     1       3.349   6.193  17.882  0.00  0.00    +0.000 A 
ATOM      3  C   UNL     1       2.323   5.512  18.536  0.00  0.00    +0.000 A 
ATOM      4  C   UNL     1       2.556   4.248  19.089  0.00  0.00    +0.000 A 
ATOM      5 BR   UNL     1       1.076   3.415  19.941  0.00  0.00    +0.000 Br
ATOM      6  C   UNL     1       3.830   3.665  18.992  0.00  0.00    +0.000 A 
ATOM      7  C   UNL     1       4.862   4.352  18.314  0.00  0.00    +0.000 A 
ENDROOT
BRANCH   1   9
ATOM      8  N   UNL     1       5.389   6.682  15.693  0.00  0.00    +0.000 N 
ATOM      9  C   UNL     1       5.638   6.415  17.007  0.00  0.00    +0.000 C 
ATOM     10  O   UNL     1       6.644   6.842  17.559  0.00  0.00    +0.000 OA
ATOM     11  H   UNL     1       6.114   7.135  15.155  0.00  0.00    +0.000 HD
ATOM     12  H   UNL     1       4.657   6.179  15.202  0.00  0.00    +0.000 HD
ENDBRANCH   1   9
BRANCH   6  13
ATOM     13  C   UNL     1       4.110   2.342  19.595  0.00  0.00    +0.000 C 
ATOM     14  O   UNL     1       5.043   2.205  20.386  0.00  0.00    +0.000 OA
ENDBRANCH   6  13
BRANCH   7  15
ATOM     15  O   UNL     1       6.123   3.808  18.195  0.00  0.00    +0.000 OA
ATOM     16  H   UNL     1       6.575   4.216  17.418  0.00  0.00    +0.000 HD
ENDBRANCH   7  15
TORSDOF 3
ENDMDL
MODEL 3
REMARK VINA RESULT:      -5.8      1.159      1.159
REMARK  Name = 
REMARK  3 active torsions:
REMARK  status: ('A' for Active; 'I' for Inactive)
REMARK    1  A    between atoms: C_2  and  C_4
REMARK    2  A    between atoms: C_9  and  C_10
REMARK    3  A    between atoms: C_12  and  O_13
REMARK                            x       y       z     vdW  Elec       q    Type
REMARK                         _______ _______ _______ _____ _____    ______ ____
ROOT
ATOM      1  C   UNL     1       4.651   5.873  17.404  0.00  0.00    +0.000 A 
ATOM      2  C   UNL     1       3.601   6.697  17.834  0.00  0.00    +0.000 A 
ATOM      3  C   UNL     1       2.665   6.235  18.759  0.00  0.00    +0.000 A 
ATOM      4  C   UNL     1       2.773   4.944  19.286  0.00  0.00    +0.000 A 
ATOM      5 BR   UNL     1       1.430   4.425  20.526  0.00  0.00    +0.000 Br
ATOM      6  C   UNL     1       3.832   4.110  18.888  0.00  0.00    +0.000 A 
ATOM      7  C   UNL     1       4.768   4.578  17.938  0.00  0.00    +0.000 A 
ENDROOT
BRANCH   1   9
ATOM      8  N   UNL     1       6.898   6.540  16.718  0.00  0.00    +0.000 N 
ATOM      9  C   UNL     1       5.577   6.451  16.389  0.00  0.00    +0.000 C 
ATOM     10  O   UNL     1       5.176   6.806  15.288  0.00  0.00    +0.000 OA
ATOM     11  H   UNL     1       7.516   7.018  16.079  0.00  0.00    +0.000 HD
ATOM     12  H   UNL     1       7.190   6.417  17.683  0.00  0.00    +0.000 HD
ENDBRANCH   1   9
BRANCH   6  13
ATOM     13  C   UNL     1       3.985   2.751  19.454  0.00  0.00    +0.000 C 
ATOM     14  O   UNL     1       5.021   2.435  20.039  0.00  0.00    +0.000 OA
ENDBRANCH   6  13
BRANCH   7  15
ATOM     15  O   UNL     1       5.816   3.786  17.520  0.00  0.00    +0.000 OA
ATOM     16  H   UNL     1       5.817   3.750  16.534  0.00  0.00    +0.000 HD
ENDBRANCH   7  15
TORSDOF 3
ENDMDL
MODEL 4
REMARK VINA RESULT:      -5.8      1.148      1.150
REMARK  Name = 
REMARK  3 active torsions:
REMARK  status: ('A' for Active; 'I' for Inactive)
REMARK    1  A    between atoms: C_2  and  C_4
REMARK    2  A    between atoms: C_9  and  C_10
REMARK    3  A    between atoms: C_12  and  O_13
REMARK                            x       y       z     vdW  Elec       q    Type
REMARK                         _______ _______ _______ _____ _____    ______ ____
ROOT
ATOM      1  C   UNL     1       6.049   6.131  17.784  0.00  0.00    +0.000 A 
ATOM      2  C   UNL     1       4.933   6.916  17.461  0.00  0.00    +0.000 A 
ATOM      3  C   UNL     1       3.645   6.383  17.521  0.00  0.00    +0.000 A 
ATOM      4  C   UNL     1       3.449   5.057  17.923  0.00  0.00    +0.000 A 
ATOM      5 BR   UNL     1       1.652   4.442  17.950  0.00  0.00    +0.000 Br
ATOM      6  C   UNL     1       4.551   4.261  18.276  0.00  0.00    +0.000 A 
ATOM      7  C   UNL     1       5.855   4.802  18.198  0.00  0.00    +0.000 A 
ENDROOT
BRANCH   1   9
ATOM      8  N   UNL     1       8.132   6.916  18.788  0.00  0.00    +0.000 N 
ATOM      9  C   UNL     1       7.382   6.787  17.656  0.00  0.00    +0.000 C 
ATOM     10  O   UNL     1       7.804   7.168  16.572  0.00  0.00    +0.000 OA
ATOM     11  H   UNL     1       8.991   7.444  18.730  0.00  0.00    +0.000 HD
ATOM     12  H   UNL     1       7.708   6.767  19.698  0.00  0.00    +0.000 HD
ENDBRANCH   1   9
BRANCH   6  13
ATOM     13  C   UNL     1       4.367   2.865  18.733  0.00  0.00    +0.000 C 
ATOM     14  O   UNL     1       4.712   2.533  19.868  0.00  0.00    +0.000 OA
ENDBRANCH   6  13
BRANCH   7  15
ATOM     15  O   UNL     1       6.960   4.048  18.530  0.00  0.00    +0.000 OA
ATOM     16  H   UNL     1       6.678   3.113  18.674  0.00  0.00    +0.000 HD
ENDBRANCH   7  15
TORSDOF 3
ENDMDL
MODEL 5
REMARK VINA RESULT:      -5.8      2.393      4.180
REMARK  Name = 
REMARK  3 active torsions:
REMARK  status: ('A' for Active; 'I' for Inactive)
REMARK    1  A    between atoms: C_2  and  C_4
REMARK    2  A    between atoms: C_9  and  C_10
REMARK    3  A    between atoms: C_12  and  O_13
REMARK                            x       y       z     vdW  Elec       q    Type
REMARK                         _______ _______ _______ _____ _____    ______ ____
ROOT
ATOM      1  C   UNL     1       3.781   3.684  18.639  0.00  0.00    +0.000 A 
ATOM      2  C   UNL     1       2.517   4.193  18.969  0.00  0.00    +0.000 A 
ATOM      3  C   UNL     1       2.201   5.529  18.724  0.00  0.00    +0.000 A 
ATOM      4  C   UNL     1       3.140   6.378  18.128  0.00  0.00    +0.000 A 
ATOM      5 BR   UNL     1       2.598   8.179  17.860  0.00  0.00    +0.000 Br
ATOM      6  C   UNL     1       4.404   5.881  17.767  0.00  0.00    +0.000 A 
ATOM      7  C   UNL     1       4.724   4.530  18.032  0.00  0.00    +0.000 A 
ENDROOT
BRANCH   1   9
ATOM      8  N   UNL     1       4.977   1.977  19.912  0.00  0.00    +0.000 N 
ATOM      9  C   UNL     1       4.027   2.251  18.972  0.00  0.00    +0.000 C 
ATOM     10  O   UNL     1       3.382   1.353  18.446  0.00  0.00    +0.000 OA
ATOM     11  H   UNL     1       5.220   1.010  20.073  0.00  0.00    +0.000 HD
ATOM     12  H   UNL     1       5.626   2.701  20.204  0.00  0.00    +0.000 HD
ENDBRANCH   1   9
BRANCH   6  13
ATOM     13  C   UNL     1       5.404   6.751  17.107  0.00  0.00    +0.000 C 
ATOM     14  O   UNL     1       5.740   6.538  15.942  0.00  0.00    +0.000 OA
ENDBRANCH   6  13
BRANCH   7  15
ATOM     15  O   UNL     1       5.956   4.011  17.696  0.00  0.00    +0.000 OA
ATOM     16  H   UNL     1       6.566   4.754  17.472  0.00  0.00    +0.000 HD
ENDBRANCH   7  15
TORSDOF 3
ENDMDL
MODEL 6
REMARK VINA RESULT:      -5.7      2.320      2.760
REMARK  Name = 
REMARK  3 active torsions:
REMARK  status: ('A' for Active; 'I' for Inactive)
REMARK    1  A    between atoms: C_2  and  C_4
REMARK    2  A    between atoms: C_9  and  C_10
REMARK    3  A    between atoms: C_12  and  O_13
REMARK                            x       y       z     vdW  Elec       q    Type
REMARK                         _______ _______ _______ _____ _____    ______ ____
ROOT
ATOM      1  C   UNL     1       6.025   4.502  15.824  0.00  0.00    +0.000 A 
ATOM      2  C   UNL     1       4.766   3.887  15.804  0.00  0.00    +0.000 A 
ATOM      3  C   UNL     1       4.007   3.779  16.970  0.00  0.00    +0.000 A 
ATOM      4  C   UNL     1       4.488   4.301  18.175  0.00  0.00    +0.000 A 
ATOM      5 BR   UNL     1       3.370   4.078  19.695  0.00  0.00    +0.000 Br
ATOM      6  C   UNL     1       5.737   4.943  18.212  0.00  0.00    +0.000 A 
ATOM      7  C   UNL     1       6.509   5.036  17.031  0.00  0.00    +0.000 A 
ENDROOT
BRANCH   1   9
ATOM      8  N   UNL     1       6.422   3.622  13.581  0.00  0.00    +0.000 N 
ATOM      9  C   UNL     1       6.769   4.536  14.532  0.00  0.00    +0.000 C 
ATOM     10  O   UNL     1       7.637   5.372  14.317  0.00  0.00    +0.000 OA
ATOM     11  H   UNL     1       6.983   3.573  12.743  0.00  0.00    +0.000 HD
ATOM     12  H   UNL     1       5.839   2.828  13.828  0.00  0.00    +0.000 HD
ENDBRANCH   1   9
BRANCH   6  13
ATOM     13  C   UNL     1       6.254   5.530  19.469  0.00  0.00    +0.000 C 
ATOM     14  O   UNL     1       7.347   5.179  19.914  0.00  0.00    +0.000 OA
ENDBRANCH   6  13
BRANCH   7  15
ATOM     15  O   UNL     1       7.740   5.654  17.032  0.00  0.00    +0.000 OA
ATOM     16  H   UNL     1       7.765   6.318  16.302  0.00  0.00    +0.000 HD
ENDBRANCH   7  15
TORSDOF 3
ENDMDL
MODEL 7
REMARK VINA RESULT:      -5.7      3.069      4.473
REMARK  Name = 
REMARK  3 active torsions:
REMARK  status: ('A' for Active; 'I' for Inactive)
REMARK    1  A    between atoms: C_2  and  C_4
REMARK    2  A    between atoms: C_9  and  C_10
REMARK    3  A    between atoms: C_12  and  O_13
REMARK                            x       y       z     vdW  Elec       q    Type
REMARK                         _______ _______ _______ _____ _____    ______ ____
ROOT
ATOM      1  C   UNL     1       2.990   3.925  19.582  0.00  0.00    +0.000 A 
ATOM      2  C   UNL     1       2.259   4.960  18.980  0.00  0.00    +0.000 A 
ATOM      3  C   UNL     1       2.849   5.787  18.024  0.00  0.00    +0.000 A 
ATOM      4  C   UNL     1       4.178   5.582  17.639  0.00  0.00    +0.000 A 
ATOM      5 BR   UNL     1       4.873   6.782  16.341  0.00  0.00    +0.000 Br
ATOM      6  C   UNL     1       4.921   4.535  18.211  0.00  0.00    +0.000 A 
ATOM      7  C   UNL     1       4.323   3.711  19.191  0.00  0.00    +0.000 A 
ENDROOT
BRANCH   1   9
ATOM      8  N   UNL     1       0.920   3.020  20.509  0.00  0.00    +0.000 N 
ATOM      9  C   UNL     1       2.276   3.121  20.615  0.00  0.00    +0.000 C 
ATOM     10  O   UNL     1       2.884   2.545  21.508  0.00  0.00    +0.000 OA
ATOM     11  H   UNL     1       0.418   2.561  21.255  0.00  0.00    +0.000 HD
ATOM     12  H   UNL     1       0.412   3.640  19.885  0.00  0.00    +0.000 HD
ENDBRANCH   1   9
BRANCH   6  13
ATOM     13  C   UNL     1       6.319   4.280  17.798  0.00  0.00    +0.000 C 
ATOM     14  O   UNL     1       7.243   4.459  18.591  0.00  0.00    +0.000 OA
ENDBRANCH   6  13
BRANCH   7  15
ATOM     15  O   UNL     1       5.023   2.678  19.777  0.00  0.00    +0.000 OA
ATOM     16  H   UNL     1       4.500   2.329  20.538  0.00  0.00    +0.000 HD
ENDBRANCH   7  15
TORSDOF 3
ENDMDL
MODEL 8
REMARK VINA RESULT:      -5.7      1.891      2.156
REMARK  Name = 
REMARK  3 active torsions:
REMARK  status: ('A' for Active; 'I' for Inactive)
REMARK    1  A    between atoms: C_2  and  C_4
REMARK    2  A    between atoms: C_9  and  C_10
REMARK    3  A    between atoms: C_12  and  O_13
REMARK                            x       y       z     vdW  Elec       q    Type
REMARK                         _______ _______ _______ _____ _____    ______ ____
ROOT
ATOM      1  C   UNL     1       6.066   5.328  17.173  0.00  0.00    +0.000 A 
ATOM      2  C   UNL     1       5.628   6.499  16.540  0.00  0.00    +0.000 A 
ATOM      3  C   UNL     1       4.468   7.147  16.964  0.00  0.00    +0.000 A 
ATOM      4  C   UNL     1       3.733   6.643  18.043  0.00  0.00    +0.000 A 
ATOM      5 BR   UNL     1       2.165   7.605  18.516  0.00  0.00    +0.000 Br
ATOM      6  C   UNL     1       4.168   5.484  18.707  0.00  0.00    +0.000 A 
ATOM      7  C   UNL     1       5.336   4.823  18.263  0.00  0.00    +0.000 A 
ENDROOT
BRANCH   1   9
ATOM      8  N   UNL     1       7.482   4.744  15.271  0.00  0.00    +0.000 N 
ATOM      9  C   UNL     1       7.300   4.696  16.622  0.00  0.00    +0.000 C 
ATOM     10  O   UNL     1       8.134   4.180  17.354  0.00  0.00    +0.000 OA
ATOM     11  H   UNL     1       8.262   4.235  14.879  0.00  0.00    +0.000 HD
ATOM     12  H   UNL     1       6.712   5.005  14.663  0.00  0.00    +0.000 HD
ENDBRANCH   1   9
BRANCH   6  13
ATOM     13  C   UNL     1       3.425   4.948  19.870  0.00  0.00    +0.000 C 
ATOM     14  O   UNL     1       3.005   3.791  19.858  0.00  0.00    +0.000 OA
ENDBRANCH   6  13
BRANCH   7  15
ATOM     15  O   UNL     1       5.789   3.681  18.887  0.00  0.00    +0.000 OA
ATOM     16  H   UNL     1       6.594   3.901  19.413  0.00  0.00    +0.000 HD
ENDBRANCH   7  15
TORSDOF 3
ENDMDL
MODEL 9
REMARK VINA RESULT:      -5.6      2.084      2.212
REMARK  Name = 
REMARK  3 active torsions:
REMARK  status: ('A' for Active; 'I' for Inactive)
REMARK    1  A    between atoms: C_2  and  C_4
REMARK    2  A    between atoms: C_9  and  C_10
REMARK    3  A    between atoms: C_12  and  O_13
REMARK                            x       y       z     vdW  Elec       q    Type
REMARK                         _______ _______ _______ _____ _____    ______ ____
ROOT
ATOM      1  C   UNL     1       5.628   5.148  15.885  0.00  0.00    +0.000 A 
ATOM      2  C   UNL     1       5.345   6.512  16.042  0.00  0.00    +0.000 A 
ATOM      3  C   UNL     1       4.438   6.946  17.009  0.00  0.00    +0.000 A 
ATOM      4  C   UNL     1       3.810   6.022  17.850  0.00  0.00    +0.000 A 
ATOM      5 BR   UNL     1       2.584   6.733  19.116  0.00  0.00    +0.000 Br
ATOM      6  C   UNL     1       4.097   4.653  17.727  0.00  0.00    +0.000 A 
ATOM      7  C   UNL     1       5.005   4.217  16.735  0.00  0.00    +0.000 A 
ENDROOT
BRANCH   1   9
ATOM      8  N   UNL     1       6.322   3.665  14.074  0.00  0.00    +0.000 N 
ATOM      9  C   UNL     1       6.586   4.788  14.801  0.00  0.00    +0.000 C 
ATOM     10  O   UNL     1       7.558   5.489  14.550  0.00  0.00    +0.000 OA
ATOM     11  H   UNL     1       7.014   3.359  13.405  0.00  0.00    +0.000 HD
ATOM     12  H   UNL     1       5.629   2.999  14.401  0.00  0.00    +0.000 HD
ENDBRANCH   1   9
BRANCH   6  13
ATOM     13  C   UNL     1       3.468   3.658  18.626  0.00  0.00    +0.000 C 
ATOM     14  O   UNL     1       4.166   2.899  19.298  0.00  0.00    +0.000 OA
ENDBRANCH   6  13
BRANCH   7  15
ATOM     15  O   UNL     1       5.307   2.881  16.581  0.00  0.00    +0.000 OA
ATOM     16  H   UNL     1       5.231   2.434  17.458  0.00  0.00    +0.000 HD
ENDBRANCH   7  15
TORSDOF 3
ENDMDL
