MODEL 1
REMARK VINA RESULT:      -8.1      0.000      0.000
REMARK  Name = 
REMARK  4 active torsions:
REMARK  status: ('A' for Active; 'I' for Inactive)
REMARK    1  A    between atoms: C_10  and  C_11
REMARK    2  A    between atoms: C_11  and  N_12
REMARK    3  A    between atoms: N_12  and  C_13
REMARK    4  A    between atoms: C_19  and  N_20
REMARK                            x       y       z     vdW  Elec       q    Type
REMARK                         _______ _______ _______ _____ _____    ______ ____
ROOT
ATOM      1  O   UNL     1       2.217   3.392  21.944  0.00  0.00    +0.000 OA
ATOM      2  C   UNL     1       2.347   4.169  21.005  0.00  0.00    +0.000 A 
ATOM      3  O   UNL     1       1.960   5.497  21.117  0.00  0.00    +0.000 OA
ATOM      4  C   UNL     1       2.131   6.406  20.053  0.00  0.00    +0.000 A 
ATOM      5  C   UNL     1       1.690   7.707  20.296  0.00  0.00    +0.000 A 
ATOM      6  C   UNL     1       1.827   8.667  19.302  0.00  0.00    +0.000 A 
ATOM      7  C   UNL     1       2.393   8.315  18.079  0.00  0.00    +0.000 A 
ATOM      8  C   UNL     1       2.822   7.000  17.845  0.00  0.00    +0.000 A 
ATOM      9  C   UNL     1       2.707   6.017  18.837  0.00  0.00    +0.000 A 
ATOM     10  C   UNL     1       3.136   4.611  18.660  0.00  0.00    +0.000 A 
ATOM     11  C   UNL     1       2.922   3.802  19.715  0.00  0.00    +0.000 A 
ENDROOT
BRANCH  11  12
ATOM     12  N   UNL     1       3.226   2.413  19.574  0.00  0.00    +0.000 N 
ATOM     13  O   UNL     1       2.323   1.678  19.157  0.00  0.00    +0.000 OA
ATOM     14  O   UNL     1       4.347   2.050  19.956  0.00  0.00    +0.000 OA
ENDBRANCH  11  12
BRANCH  10  15
ATOM     15  C   UNL     1       3.805   4.178  17.370  0.00  0.00    +0.000 C 
BRANCH  15  16
ATOM     16  N   UNL     1       5.215   3.922  17.643  0.00  0.00    +0.000 N 
ATOM     17  H   UNL     1       5.341   3.308  18.450  0.00  0.00    +0.000 HD
BRANCH  16  18
ATOM     18  C   UNL     1       6.059   5.040  17.798  0.00  0.00    +0.000 A 
ATOM     19  C   UNL     1       6.987   5.038  18.852  0.00  0.00    +0.000 A 
ATOM     20  C   UNL     1       7.869   6.104  19.053  0.00  0.00    +0.000 A 
ATOM     21  C   UNL     1       7.870   7.179  18.174  0.00  0.00    +0.000 A 
ATOM     22  C   UNL     1       7.007   7.170  17.082  0.00  0.00    +0.000 A 
ATOM     23  C   UNL     1       6.120   6.102  16.889  0.00  0.00    +0.000 A 
ENDBRANCH  16  18
ENDBRANCH  15  16
ENDBRANCH  10  15
TORSDOF 4
ENDMDL
MODEL 2
REMARK VINA RESULT:      -8.0      0.246      1.050
REMARK  Name = 
REMARK  4 active torsions:
REMARK  status: ('A' for Active; 'I' for Inactive)
REMARK    1  A    between atoms: C_10  and  C_11
REMARK    2  A    between atoms: C_11  and  N_12
REMARK    3  A    between atoms: N_12  and  C_13
REMARK    4  A    between atoms: C_19  and  N_20
REMARK                            x       y       z     vdW  Elec       q    Type
REMARK                         _______ _______ _______ _____ _____    ______ ____
ROOT
ATOM      1  O   UNL     1       2.364   3.027  21.813  0.00  0.00    +0.000 OA
ATOM      2  C   UNL     1       2.454   3.869  20.928  0.00  0.00    +0.000 A 
ATOM      3  O   UNL     1       2.034   5.175  21.138  0.00  0.00    +0.000 OA
ATOM      4  C   UNL     1       2.160   6.158  20.135  0.00  0.00    +0.000 A 
ATOM      5  C   UNL     1       1.689   7.427  20.475  0.00  0.00    +0.000 A 
ATOM      6  C   UNL     1       1.781   8.456  19.546  0.00  0.00    +0.000 A 
ATOM      7  C   UNL     1       2.332   8.204  18.292  0.00  0.00    +0.000 A 
ATOM      8  C   UNL     1       2.790   6.921  17.961  0.00  0.00    +0.000 A 
ATOM      9  C   UNL     1       2.722   5.869  18.885  0.00  0.00    +0.000 A 
ATOM     10  C   UNL     1       3.184   4.491  18.604  0.00  0.00    +0.000 A 
ATOM     11  C   UNL     1       3.012   3.607  19.605  0.00  0.00    +0.000 A 
ENDROOT
BRANCH  11  12
ATOM     12  N   UNL     1       3.351   2.239  19.363  0.00  0.00    +0.000 N 
ATOM     13  O   UNL     1       2.472   1.520  18.874  0.00  0.00    +0.000 OA
ATOM     14  O   UNL     1       4.472   1.872  19.738  0.00  0.00    +0.000 OA
ENDBRANCH  11  12
BRANCH  10  15
ATOM     15  C   UNL     1       3.838   4.166  17.276  0.00  0.00    +0.000 C 
BRANCH  15  16
ATOM     16  N   UNL     1       5.233   3.817  17.520  0.00  0.00    +0.000 N 
ATOM     17  H   UNL     1       5.329   3.141  18.280  0.00  0.00    +0.000 HD
BRANCH  16  18
ATOM     18  C   UNL     1       6.136   4.875  17.749  0.00  0.00    +0.000 A 
ATOM     19  C   UNL     1       6.167   5.939  16.832  0.00  0.00    +0.000 A 
ATOM     20  C   UNL     1       7.023   7.030  17.007  0.00  0.00    +0.000 A 
ATOM     21  C   UNL     1       7.838   7.101  18.130  0.00  0.00    +0.000 A 
ATOM     22  C   UNL     1       7.773   6.091  19.085  0.00  0.00    +0.000 A 
ATOM     23  C   UNL     1       6.919   4.995  18.902  0.00  0.00    +0.000 A 
ENDBRANCH  16  18
ENDBRANCH  15  16
ENDBRANCH  10  15
TORSDOF 4
ENDMDL
MODEL 3
REMARK VINA RESULT:      -7.9      3.198      6.202
REMARK  Name = 
REMARK  4 active torsions:
REMARK  status: ('A' for Active; 'I' for Inactive)
REMARK    1  A    between atoms: C_10  and  C_11
REMARK    2  A    between atoms: C_11  and  N_12
REMARK    3  A    between atoms: N_12  and  C_13
REMARK    4  A    between atoms: C_19  and  N_20
REMARK                            x       y       z     vdW  Elec       q    Type
REMARK                         _______ _______ _______ _____ _____    ______ ____
ROOT
ATOM      1  O   UNL     1       7.750   6.742  17.745  0.00  0.00    +0.000 OA
ATOM      2  C   UNL     1       7.169   6.043  16.924  0.00  0.00    +0.000 A 
ATOM      3  O   UNL     1       7.659   5.899  15.633  0.00  0.00    +0.000 OA
ATOM      4  C   UNL     1       7.015   5.074  14.689  0.00  0.00    +0.000 A 
ATOM      5  C   UNL     1       7.608   5.027  13.427  0.00  0.00    +0.000 A 
ATOM      6  C   UNL     1       7.039   4.233  12.438  0.00  0.00    +0.000 A 
ATOM      7  C   UNL     1       5.886   3.504  12.720  0.00  0.00    +0.000 A 
ATOM      8  C   UNL     1       5.296   3.570  13.990  0.00  0.00    +0.000 A 
ATOM      9  C   UNL     1       5.857   4.352  15.008  0.00  0.00    +0.000 A 
ATOM     10  C   UNL     1       5.288   4.470  16.370  0.00  0.00    +0.000 A 
ATOM     11  C   UNL     1       5.950   5.291  17.207  0.00  0.00    +0.000 A 
ENDROOT
BRANCH  11  12
ATOM     12  N   UNL     1       5.399   5.521  18.505  0.00  0.00    +0.000 N 
ATOM     13  O   UNL     1       4.407   6.257  18.572  0.00  0.00    +0.000 OA
ATOM     14  O   UNL     1       6.009   5.026  19.462  0.00  0.00    +0.000 OA
ENDBRANCH  11  12
BRANCH  10  15
ATOM     15  C   UNL     1       4.063   3.663  16.753  0.00  0.00    +0.000 C 
BRANCH  15  16
ATOM     16  N   UNL     1       4.330   2.988  18.018  0.00  0.00    +0.000 N 
ATOM     17  H   UNL     1       4.694   2.044  17.877  0.00  0.00    +0.000 HD
BRANCH  16  18
ATOM     18  C   UNL     1       3.277   2.925  18.954  0.00  0.00    +0.000 A 
ATOM     19  C   UNL     1       3.591   2.668  20.299  0.00  0.00    +0.000 A 
ATOM     20  C   UNL     1       2.601   2.611  21.283  0.00  0.00    +0.000 A 
ATOM     21  C   UNL     1       1.275   2.854  20.949  0.00  0.00    +0.000 A 
ATOM     22  C   UNL     1       0.950   3.179  19.635  0.00  0.00    +0.000 A 
ATOM     23  C   UNL     1       1.946   3.227  18.650  0.00  0.00    +0.000 A 
ENDBRANCH  16  18
ENDBRANCH  15  16
ENDBRANCH  10  15
TORSDOF 4
ENDMDL
MODEL 4
REMARK VINA RESULT:      -7.9      3.191      6.289
REMARK  Name = 
REMARK  4 active torsions:
REMARK  status: ('A' for Active; 'I' for Inactive)
REMARK    1  A    between atoms: C_10  and  C_11
REMARK    2  A    between atoms: C_11  and  N_12
REMARK    3  A    between atoms: N_12  and  C_13
REMARK    4  A    between atoms: C_19  and  N_20
REMARK                            x       y       z     vdW  Elec       q    Type
REMARK                         _______ _______ _______ _____ _____    ______ ____
ROOT
ATOM      1  O   UNL     1       7.745   6.736  17.731  0.00  0.00    +0.000 OA
ATOM      2  C   UNL     1       7.155   6.042  16.912  0.00  0.00    +0.000 A 
ATOM      3  O   UNL     1       7.646   5.882  15.624  0.00  0.00    +0.000 OA
ATOM      4  C   UNL     1       6.990   5.063  14.683  0.00  0.00    +0.000 A 
ATOM      5  C   UNL     1       7.586   4.999  13.423  0.00  0.00    +0.000 A 
ATOM      6  C   UNL     1       7.006   4.209  12.437  0.00  0.00    +0.000 A 
ATOM      7  C   UNL     1       5.839   3.503  12.720  0.00  0.00    +0.000 A 
ATOM      8  C   UNL     1       5.246   3.586  13.988  0.00  0.00    +0.000 A 
ATOM      9  C   UNL     1       5.819   4.365  15.003  0.00  0.00    +0.000 A 
ATOM     10  C   UNL     1       5.248   4.501  16.362  0.00  0.00    +0.000 A 
ATOM     11  C   UNL     1       5.922   5.314  17.196  0.00  0.00    +0.000 A 
ENDROOT
BRANCH  11  12
ATOM     12  N   UNL     1       5.371   5.562  18.491  0.00  0.00    +0.000 N 
ATOM     13  O   UNL     1       5.925   5.017  19.452  0.00  0.00    +0.000 OA
ATOM     14  O   UNL     1       4.336   6.241  18.532  0.00  0.00    +0.000 OA
ENDBRANCH  11  12
BRANCH  10  15
ATOM     15  C   UNL     1       4.008   3.717  16.746  0.00  0.00    +0.000 C 
BRANCH  15  16
ATOM     16  N   UNL     1       4.297   2.956  17.955  0.00  0.00    +0.000 N 
ATOM     17  H   UNL     1       4.529   1.983  17.746  0.00  0.00    +0.000 HD
BRANCH  16  18
ATOM     18  C   UNL     1       3.327   2.972  18.979  0.00  0.00    +0.000 A 
ATOM     19  C   UNL     1       1.999   3.276  18.640  0.00  0.00    +0.000 A 
ATOM     20  C   UNL     1       0.983   3.290  19.600  0.00  0.00    +0.000 A 
ATOM     21  C   UNL     1       1.268   2.957  20.917  0.00  0.00    +0.000 A 
ATOM     22  C   UNL     1       2.564   2.584  21.262  0.00  0.00    +0.000 A 
ATOM     23  C   UNL     1       3.581   2.579  20.298  0.00  0.00    +0.000 A 
ENDBRANCH  16  18
ENDBRANCH  15  16
ENDBRANCH  10  15
TORSDOF 4
ENDMDL
MODEL 5
REMARK VINA RESULT:      -7.8      2.900      5.018
REMARK  Name = 
REMARK  4 active torsions:
REMARK  status: ('A' for Active; 'I' for Inactive)
REMARK    1  A    between atoms: C_10  and  C_11
REMARK    2  A    between atoms: C_11  and  N_12
REMARK    3  A    between atoms: N_12  and  C_13
REMARK    4  A    between atoms: C_19  and  N_20
REMARK                            x       y       z     vdW  Elec       q    Type
REMARK                         _______ _______ _______ _____ _____    ______ ____
ROOT
ATOM      1  O   UNL     1       5.761   6.314  14.839  0.00  0.00    +0.000 OA
ATOM      2  C   UNL     1       5.226   6.253  15.939  0.00  0.00    +0.000 A 
ATOM      3  O   UNL     1       4.263   7.178  16.318  0.00  0.00    +0.000 OA
ATOM      4  C   UNL     1       3.621   7.100  17.570  0.00  0.00    +0.000 A 
ATOM      5  C   UNL     1       2.680   8.098  17.827  0.00  0.00    +0.000 A 
ATOM      6  C   UNL     1       1.997   8.092  19.036  0.00  0.00    +0.000 A 
ATOM      7  C   UNL     1       2.265   7.097  19.973  0.00  0.00    +0.000 A 
ATOM      8  C   UNL     1       3.221   6.107  19.705  0.00  0.00    +0.000 A 
ATOM      9  C   UNL     1       3.914   6.083  18.487  0.00  0.00    +0.000 A 
ATOM     10  C   UNL     1       4.937   5.071  18.137  0.00  0.00    +0.000 A 
ATOM     11  C   UNL     1       5.517   5.225  16.933  0.00  0.00    +0.000 A 
ENDROOT
BRANCH  11  12
ATOM     12  N   UNL     1       6.578   4.337  16.575  0.00  0.00    +0.000 N 
ATOM     13  O   UNL     1       7.718   4.645  16.944  0.00  0.00    +0.000 OA
ATOM     14  O   UNL     1       6.276   3.373  15.859  0.00  0.00    +0.000 OA
ENDBRANCH  11  12
BRANCH  10  15
ATOM     15  C   UNL     1       5.238   3.934  19.094  0.00  0.00    +0.000 C 
BRANCH  15  16
ATOM     16  N   UNL     1       4.468   2.766  18.683  0.00  0.00    +0.000 N 
ATOM     17  H   UNL     1       4.494   2.631  17.670  0.00  0.00    +0.000 HD
BRANCH  16  18
ATOM     18  C   UNL     1       3.126   2.690  19.108  0.00  0.00    +0.000 A 
ATOM     19  C   UNL     1       2.854   2.762  20.484  0.00  0.00    +0.000 A 
ATOM     20  C   UNL     1       1.546   2.714  20.975  0.00  0.00    +0.000 A 
ATOM     21  C   UNL     1       0.476   2.635  20.094  0.00  0.00    +0.000 A 
ATOM     22  C   UNL     1       0.719   2.633  18.723  0.00  0.00    +0.000 A 
ATOM     23  C   UNL     1       2.032   2.674  18.236  0.00  0.00    +0.000 A 
ENDBRANCH  16  18
ENDBRANCH  15  16
ENDBRANCH  10  15
TORSDOF 4
ENDMDL
MODEL 6
REMARK VINA RESULT:      -7.6      3.484      4.698
REMARK  Name = 
REMARK  4 active torsions:
REMARK  status: ('A' for Active; 'I' for Inactive)
REMARK    1  A    between atoms: C_10  and  C_11
REMARK    2  A    between atoms: C_11  and  N_12
REMARK    3  A    between atoms: N_12  and  C_13
REMARK    4  A    between atoms: C_19  and  N_20
REMARK                            x       y       z     vdW  Elec       q    Type
REMARK                         _______ _______ _______ _____ _____    ______ ____
ROOT
ATOM      1  O   UNL     1       7.281   5.435  20.040  0.00  0.00    +0.000 OA
ATOM      2  C   UNL     1       6.238   5.194  19.445  0.00  0.00    +0.000 A 
ATOM      3  O   UNL     1       5.073   4.893  20.138  0.00  0.00    +0.000 OA
ATOM      4  C   UNL     1       3.861   4.643  19.464  0.00  0.00    +0.000 A 
ATOM      5  C   UNL     1       2.769   4.343  20.280  0.00  0.00    +0.000 A 
ATOM      6  C   UNL     1       1.535   4.088  19.696  0.00  0.00    +0.000 A 
ATOM      7  C   UNL     1       1.408   4.129  18.310  0.00  0.00    +0.000 A 
ATOM      8  C   UNL     1       2.516   4.421  17.502  0.00  0.00    +0.000 A 
ATOM      9  C   UNL     1       3.769   4.695  18.067  0.00  0.00    +0.000 A 
ATOM     10  C   UNL     1       4.981   5.008  17.277  0.00  0.00    +0.000 A 
ATOM     11  C   UNL     1       6.102   5.216  17.992  0.00  0.00    +0.000 A 
ENDROOT
BRANCH  11  12
ATOM     12  N   UNL     1       7.325   5.430  17.285  0.00  0.00    +0.000 N 
ATOM     13  O   UNL     1       7.565   6.583  16.910  0.00  0.00    +0.000 OA
ATOM     14  O   UNL     1       8.007   4.425  17.040  0.00  0.00    +0.000 OA
ENDBRANCH  11  12
BRANCH  10  15
ATOM     15  C   UNL     1       4.896   5.116  15.767  0.00  0.00    +0.000 C 
BRANCH  15  16
ATOM     16  N   UNL     1       5.495   3.922  15.182  0.00  0.00    +0.000 N 
ATOM     17  H   UNL     1       6.158   3.478  15.820  0.00  0.00    +0.000 HD
BRANCH  16  18
ATOM     18  C   UNL     1       6.113   4.057  13.922  0.00  0.00    +0.000 A 
ATOM     19  C   UNL     1       7.139   5.005  13.777  0.00  0.00    +0.000 A 
ATOM     20  C   UNL     1       7.810   5.177  12.563  0.00  0.00    +0.000 A 
ATOM     21  C   UNL     1       7.495   4.373  11.475  0.00  0.00    +0.000 A 
ATOM     22  C   UNL     1       6.530   3.380  11.617  0.00  0.00    +0.000 A 
ATOM     23  C   UNL     1       5.856   3.216  12.834  0.00  0.00    +0.000 A 
ENDBRANCH  16  18
ENDBRANCH  15  16
ENDBRANCH  10  15
TORSDOF 4
ENDMDL
MODEL 7
REMARK VINA RESULT:      -7.6      3.498      4.736
REMARK  Name = 
REMARK  4 active torsions:
REMARK  status: ('A' for Active; 'I' for Inactive)
REMARK    1  A    between atoms: C_10  and  C_11
REMARK    2  A    between atoms: C_11  and  N_12
REMARK    3  A    between atoms: N_12  and  C_13
REMARK    4  A    between atoms: C_19  and  N_20
REMARK                            x       y       z     vdW  Elec       q    Type
REMARK                         _______ _______ _______ _____ _____    ______ ____
ROOT
ATOM      1  O   UNL     1       7.369   5.469  20.008  0.00  0.00    +0.000 OA
ATOM      2  C   UNL     1       6.313   5.248  19.428  0.00  0.00    +0.000 A 
ATOM      3  O   UNL     1       5.158   4.945  20.136  0.00  0.00    +0.000 OA
ATOM      4  C   UNL     1       3.932   4.716  19.479  0.00  0.00    +0.000 A 
ATOM      5  C   UNL     1       2.852   4.412  20.309  0.00  0.00    +0.000 A 
ATOM      6  C   UNL     1       1.605   4.178  19.743  0.00  0.00    +0.000 A 
ATOM      7  C   UNL     1       1.455   4.243  18.360  0.00  0.00    +0.000 A 
ATOM      8  C   UNL     1       2.551   4.539  17.537  0.00  0.00    +0.000 A 
ATOM      9  C   UNL     1       3.816   4.793  18.085  0.00  0.00    +0.000 A 
ATOM     10  C   UNL     1       5.017   5.109  17.279  0.00  0.00    +0.000 A 
ATOM     11  C   UNL     1       6.152   5.295  17.978  0.00  0.00    +0.000 A 
ENDROOT
BRANCH  11  12
ATOM     12  N   UNL     1       7.365   5.510  17.253  0.00  0.00    +0.000 N 
ATOM     13  O   UNL     1       7.617   6.671  16.910  0.00  0.00    +0.000 OA
ATOM     14  O   UNL     1       8.023   4.502  16.964  0.00  0.00    +0.000 OA
ENDBRANCH  11  12
BRANCH  10  15
ATOM     15  C   UNL     1       4.907   5.244  15.773  0.00  0.00    +0.000 C 
BRANCH  15  16
ATOM     16  N   UNL     1       5.359   3.999  15.162  0.00  0.00    +0.000 N 
ATOM     17  H   UNL     1       5.878   3.417  15.823  0.00  0.00    +0.000 HD
BRANCH  16  18
ATOM     18  C   UNL     1       6.107   4.095  13.971  0.00  0.00    +0.000 A 
ATOM     19  C   UNL     1       5.762   3.262  12.894  0.00  0.00    +0.000 A 
ATOM     20  C   UNL     1       6.446   3.318  11.677  0.00  0.00    +0.000 A 
ATOM     21  C   UNL     1       7.467   4.242  11.496  0.00  0.00    +0.000 A 
ATOM     22  C   UNL     1       7.780   5.124  12.526  0.00  0.00    +0.000 A 
ATOM     23  C   UNL     1       7.095   5.059  13.747  0.00  0.00    +0.000 A 
ENDBRANCH  16  18
ENDBRANCH  15  16
ENDBRANCH  10  15
TORSDOF 4
ENDMDL
MODEL 8
REMARK VINA RESULT:      -7.6      3.304      6.375
REMARK  Name = 
REMARK  4 active torsions:
REMARK  status: ('A' for Active; 'I' for Inactive)
REMARK    1  A    between atoms: C_10  and  C_11
REMARK    2  A    between atoms: C_11  and  N_12
REMARK    3  A    between atoms: N_12  and  C_13
REMARK    4  A    between atoms: C_19  and  N_20
REMARK                            x       y       z     vdW  Elec       q    Type
REMARK                         _______ _______ _______ _____ _____    ______ ____
ROOT
ATOM      1  O   UNL     1       7.903   6.679  17.613  0.00  0.00    +0.000 OA
ATOM      2  C   UNL     1       7.318   5.965  16.808  0.00  0.00    +0.000 A 
ATOM      3  O   UNL     1       7.714   5.912  15.479  0.00  0.00    +0.000 OA
ATOM      4  C   UNL     1       7.066   5.072  14.551  0.00  0.00    +0.000 A 
ATOM      5  C   UNL     1       7.559   5.123  13.247  0.00  0.00    +0.000 A 
ATOM      6  C   UNL     1       6.980   4.322  12.270  0.00  0.00    +0.000 A 
ATOM      7  C   UNL     1       5.916   3.488  12.606  0.00  0.00    +0.000 A 
ATOM      8  C   UNL     1       5.425   3.455  13.919  0.00  0.00    +0.000 A 
ATOM      9  C   UNL     1       6.000   4.244  14.925  0.00  0.00    +0.000 A 
ATOM     10  C   UNL     1       5.533   4.261  16.330  0.00  0.00    +0.000 A 
ATOM     11  C   UNL     1       6.190   5.103  17.149  0.00  0.00    +0.000 A 
ENDROOT
BRANCH  11  12
ATOM     12  N   UNL     1       5.727   5.237  18.495  0.00  0.00    +0.000 N 
ATOM     13  O   UNL     1       6.116   4.393  19.310  0.00  0.00    +0.000 OA
ATOM     14  O   UNL     1       4.912   6.143  18.712  0.00  0.00    +0.000 OA
ENDBRANCH  11  12
BRANCH  10  15
ATOM     15  C   UNL     1       4.412   3.340  16.769  0.00  0.00    +0.000 C 
BRANCH  15  16
ATOM     16  N   UNL     1       3.228   4.147  17.041  0.00  0.00    +0.000 N 
ATOM     17  H   UNL     1       3.458   5.137  17.141  0.00  0.00    +0.000 HD
BRANCH  16  18
ATOM     18  C   UNL     1       2.419   3.765  18.130  0.00  0.00    +0.000 A 
ATOM     19  C   UNL     1       2.077   4.737  19.084  0.00  0.00    +0.000 A 
ATOM     20  C   UNL     1       1.262   4.435  20.178  0.00  0.00    +0.000 A 
ATOM     21  C   UNL     1       0.734   3.158  20.319  0.00  0.00    +0.000 A 
ATOM     22  C   UNL     1       1.003   2.197  19.348  0.00  0.00    +0.000 A 
ATOM     23  C   UNL     1       1.827   2.504  18.256  0.00  0.00    +0.000 A 
ENDBRANCH  16  18
ENDBRANCH  15  16
ENDBRANCH  10  15
TORSDOF 4
ENDMDL
MODEL 9
REMARK VINA RESULT:      -7.6      2.876      5.071
REMARK  Name = 
REMARK  4 active torsions:
REMARK  status: ('A' for Active; 'I' for Inactive)
REMARK    1  A    between atoms: C_10  and  C_11
REMARK    2  A    between atoms: C_11  and  N_12
REMARK    3  A    between atoms: N_12  and  C_13
REMARK    4  A    between atoms: C_19  and  N_20
REMARK                            x       y       z     vdW  Elec       q    Type
REMARK                         _______ _______ _______ _____ _____    ______ ____
ROOT
ATOM      1  O   UNL     1       5.682   6.427  14.849  0.00  0.00    +0.000 OA
ATOM      2  C   UNL     1       5.162   6.359  15.956  0.00  0.00    +0.000 A 
ATOM      3  O   UNL     1       4.184   7.265  16.344  0.00  0.00    +0.000 OA
ATOM      4  C   UNL     1       3.560   7.178  17.604  0.00  0.00    +0.000 A 
ATOM      5  C   UNL     1       2.602   8.158  17.870  0.00  0.00    +0.000 A 
ATOM      6  C   UNL     1       1.934   8.142  19.088  0.00  0.00    +0.000 A 
ATOM      7  C   UNL     1       2.235   7.156  20.025  0.00  0.00    +0.000 A 
ATOM      8  C   UNL     1       3.208   6.185  19.748  0.00  0.00    +0.000 A 
ATOM      9  C   UNL     1       3.886   6.171  18.522  0.00  0.00    +0.000 A 
ATOM     10  C   UNL     1       4.925   5.179  18.163  0.00  0.00    +0.000 A 
ATOM     11  C   UNL     1       5.487   5.341  16.951  0.00  0.00    +0.000 A 
ENDROOT
BRANCH  11  12
ATOM     12  N   UNL     1       6.562   4.474  16.583  0.00  0.00    +0.000 N 
ATOM     13  O   UNL     1       6.268   3.444  15.965  0.00  0.00    +0.000 OA
ATOM     14  O   UNL     1       7.690   4.791  16.982  0.00  0.00    +0.000 OA
ENDBRANCH  11  12
BRANCH  10  15
ATOM     15  C   UNL     1       5.262   4.053  19.120  0.00  0.00    +0.000 C 
BRANCH  15  16
ATOM     16  N   UNL     1       4.470   2.883  18.756  0.00  0.00    +0.000 N 
ATOM     17  H   UNL     1       4.468   2.724  17.747  0.00  0.00    +0.000 HD
BRANCH  16  18
ATOM     18  C   UNL     1       3.139   2.832  19.218  0.00  0.00    +0.000 A 
ATOM     19  C   UNL     1       2.108   2.682  18.275  0.00  0.00    +0.000 A 
ATOM     20  C   UNL     1       0.768   2.603  18.663  0.00  0.00    +0.000 A 
ATOM     21  C   UNL     1       0.432   2.629  20.010  0.00  0.00    +0.000 A 
ATOM     22  C   UNL     1       1.442   2.707  20.964  0.00  0.00    +0.000 A 
ATOM     23  C   UNL     1       2.784   2.793  20.570  0.00  0.00    +0.000 A 
ENDBRANCH  16  18
ENDBRANCH  15  16
ENDBRANCH  10  15
TORSDOF 4
ENDMDL
