MODEL 1
REMARK VINA RESULT:      -6.5      0.000      0.000
REMARK  Name = 
REMARK  3 active torsions:
REMARK  status: ('A' for Active; 'I' for Inactive)
REMARK    1  A    between atoms: C_2  and  O_3
REMARK    2  A    between atoms: C_2  and  C_4
REMARK    3  A    between atoms: C_4  and  N_5
REMARK                            x       y       z     vdW  Elec       q    Type
REMARK                         _______ _______ _______ _____ _____    ______ ____
ROOT
ATOM      1  N   UNL     1       3.161   3.292  19.016  0.00  0.00    +0.000 N 
ATOM      2  C   UNL     1       2.818   4.305  18.173  0.00  0.00    +0.000 C 
ATOM      3  O   UNL     1       1.731   4.529  17.680  0.00  0.00    +0.000 OA
ATOM      4  C   UNL     1       4.037   5.075  17.919  0.00  0.00    +0.000 A 
ATOM      5  C   UNL     1       4.245   6.220  17.176  0.00  0.00    +0.000 A 
ATOM      6  C   UNL     1       5.539   6.755  17.178  0.00  0.00    +0.000 A 
ATOM      7  C   UNL     1       6.582   6.135  17.899  0.00  0.00    +0.000 A 
ATOM      8  C   UNL     1       6.351   4.961  18.622  0.00  0.00    +0.000 A 
ATOM      9  C   UNL     1       5.064   4.462  18.616  0.00  0.00    +0.000 A 
ATOM     10  C   UNL     1       4.493   3.320  19.323  0.00  0.00    +0.000 C 
ATOM     11  O   UNL     1       5.131   2.563  20.035  0.00  0.00    +0.000 OA
ENDROOT
BRANCH   1  12
ATOM     12  C   UNL     1       2.246   2.309  19.574  0.00  0.00    +0.000 C 
BRANCH  12  14
ATOM     13  O   UNL     1       1.752   2.609  21.917  0.00  0.00    +0.000 OA
ATOM     14  C   UNL     1       1.435   2.826  20.745  0.00  0.00    +0.000 C 
BRANCH  14  15
ATOM     15  O   UNL     1       0.421   3.669  20.457  0.00  0.00    +0.000 OA
ATOM     16  H   UNL     1       0.010   4.097  21.227  0.00  0.00    +0.000 HD
ENDBRANCH  14  15
ENDBRANCH  12  14
ENDBRANCH   1  12
TORSDOF 3
ENDMDL
MODEL 2
REMARK VINA RESULT:      -6.5      0.122      2.256
REMARK  Name = 
REMARK  3 active torsions:
REMARK  status: ('A' for Active; 'I' for Inactive)
REMARK    1  A    between atoms: C_2  and  O_3
REMARK    2  A    between atoms: C_2  and  C_4
REMARK    3  A    between atoms: C_4  and  N_5
REMARK                            x       y       z     vdW  Elec       q    Type
REMARK                         _______ _______ _______ _____ _____    ______ ____
ROOT
ATOM      1  N   UNL     1       3.224   3.352  19.064  0.00  0.00    +0.000 N 
ATOM      2  C   UNL     1       4.556   3.374  19.348  0.00  0.00    +0.000 C 
ATOM      3  O   UNL     1       5.178   2.611  20.059  0.00  0.00    +0.000 OA
ATOM      4  C   UNL     1       5.116   4.539  18.662  0.00  0.00    +0.000 A 
ATOM      5  C   UNL     1       6.415   5.001  18.577  0.00  0.00    +0.000 A 
ATOM      6  C   UNL     1       6.640   6.131  17.781  0.00  0.00    +0.000 A 
ATOM      7  C   UNL     1       5.576   6.770  17.110  0.00  0.00    +0.000 A 
ATOM      8  C   UNL     1       4.266   6.298  17.232  0.00  0.00    +0.000 A 
ATOM      9  C   UNL     1       4.073   5.175  18.011  0.00  0.00    +0.000 A 
ATOM     10  C   UNL     1       2.860   4.405  18.269  0.00  0.00    +0.000 C 
ATOM     11  O   UNL     1       1.758   4.693  17.838  0.00  0.00    +0.000 OA
ENDROOT
BRANCH   1  12
ATOM     12  C   UNL     1       2.283   2.333  19.498  0.00  0.00    +0.000 C 
BRANCH  12  14
ATOM     13  O   UNL     1       1.790   2.486  21.856  0.00  0.00    +0.000 OA
ATOM     14  C   UNL     1       1.451   2.741  20.698  0.00  0.00    +0.000 C 
BRANCH  14  15
ATOM     15  O   UNL     1       0.387   3.535  20.457  0.00  0.00    +0.000 OA
ATOM     16  H   UNL     1       0.082   3.545  19.534  0.00  0.00    +0.000 HD
ENDBRANCH  14  15
ENDBRANCH  12  14
ENDBRANCH   1  12
TORSDOF 3
ENDMDL
MODEL 3
REMARK VINA RESULT:      -6.4      2.926      5.088
REMARK  Name = 
REMARK  3 active torsions:
REMARK  status: ('A' for Active; 'I' for Inactive)
REMARK    1  A    between atoms: C_2  and  O_3
REMARK    2  A    between atoms: C_2  and  C_4
REMARK    3  A    between atoms: C_4  and  N_5
REMARK                            x       y       z     vdW  Elec       q    Type
REMARK                         _______ _______ _______ _____ _____    ______ ____
ROOT
ATOM      1  N   UNL     1       5.791   4.502  17.673  0.00  0.00    +0.000 N 
ATOM      2  C   UNL     1       4.740   4.133  16.889  0.00  0.00    +0.000 C 
ATOM      3  O   UNL     1       4.742   3.918  15.694  0.00  0.00    +0.000 OA
ATOM      4  C   UNL     1       3.561   4.085  17.756  0.00  0.00    +0.000 A 
ATOM      5  C   UNL     1       2.254   3.729  17.487  0.00  0.00    +0.000 A 
ATOM      6  C   UNL     1       1.358   3.730  18.562  0.00  0.00    +0.000 A 
ATOM      7  C   UNL     1       1.780   4.094  19.859  0.00  0.00    +0.000 A 
ATOM      8  C   UNL     1       3.102   4.476  20.101  0.00  0.00    +0.000 A 
ATOM      9  C   UNL     1       3.969   4.453  19.026  0.00  0.00    +0.000 A 
ATOM     10  C   UNL     1       5.404   4.715  18.968  0.00  0.00    +0.000 C 
ATOM     11  O   UNL     1       6.079   5.061  19.922  0.00  0.00    +0.000 OA
ENDROOT
BRANCH   1  12
ATOM     12  C   UNL     1       7.171   4.626  17.235  0.00  0.00    +0.000 C 
BRANCH  12  14
ATOM     13  O   UNL     1       7.685   6.897  16.603  0.00  0.00    +0.000 OA
ATOM     14  C   UNL     1       7.400   5.752  16.247  0.00  0.00    +0.000 C 
BRANCH  14  15
ATOM     15  O   UNL     1       7.426   5.417  14.940  0.00  0.00    +0.000 OA
ATOM     16  H   UNL     1       6.577   5.505  14.475  0.00  0.00    +0.000 HD
ENDBRANCH  14  15
ENDBRANCH  12  14
ENDBRANCH   1  12
TORSDOF 3
ENDMDL
MODEL 4
REMARK VINA RESULT:      -6.3      2.491      4.793
REMARK  Name = 
REMARK  3 active torsions:
REMARK  status: ('A' for Active; 'I' for Inactive)
REMARK    1  A    between atoms: C_2  and  O_3
REMARK    2  A    between atoms: C_2  and  C_4
REMARK    3  A    between atoms: C_4  and  N_5
REMARK                            x       y       z     vdW  Elec       q    Type
REMARK                         _______ _______ _______ _____ _____    ______ ____
ROOT
ATOM      1  N   UNL     1       4.387   4.179  17.373  0.00  0.00    +0.000 N 
ATOM      2  C   UNL     1       4.004   5.342  17.971  0.00  0.00    +0.000 C 
ATOM      3  O   UNL     1       4.417   6.463  17.752  0.00  0.00    +0.000 OA
ATOM      4  C   UNL     1       3.010   4.989  18.986  0.00  0.00    +0.000 A 
ATOM      5  C   UNL     1       2.272   5.781  19.844  0.00  0.00    +0.000 A 
ATOM      6  C   UNL     1       1.345   5.135  20.670  0.00  0.00    +0.000 A 
ATOM      7  C   UNL     1       1.189   3.733  20.630  0.00  0.00    +0.000 A 
ATOM      8  C   UNL     1       1.966   2.950  19.771  0.00  0.00    +0.000 A 
ATOM      9  C   UNL     1       2.863   3.613  18.957  0.00  0.00    +0.000 A 
ATOM     10  C   UNL     1       3.747   3.099  17.915  0.00  0.00    +0.000 C 
ATOM     11  O   UNL     1       3.858   1.920  17.628  0.00  0.00    +0.000 OA
ENDROOT
BRANCH   1  12
ATOM     12  C   UNL     1       5.324   4.065  16.268  0.00  0.00    +0.000 C 
BRANCH  12  14
ATOM     13  O   UNL     1       7.561   4.889  15.887  0.00  0.00    +0.000 OA
ATOM     14  C   UNL     1       6.762   4.348  16.655  0.00  0.00    +0.000 C 
BRANCH  14  15
ATOM     15  O   UNL     1       7.101   4.117  17.941  0.00  0.00    +0.000 OA
ATOM     16  H   UNL     1       6.822   3.254  18.291  0.00  0.00    +0.000 HD
ENDBRANCH  14  15
ENDBRANCH  12  14
ENDBRANCH   1  12
TORSDOF 3
ENDMDL
MODEL 5
REMARK VINA RESULT:      -6.3      2.604      4.929
REMARK  Name = 
REMARK  3 active torsions:
REMARK  status: ('A' for Active; 'I' for Inactive)
REMARK    1  A    between atoms: C_2  and  O_3
REMARK    2  A    between atoms: C_2  and  C_4
REMARK    3  A    between atoms: C_4  and  N_5
REMARK                            x       y       z     vdW  Elec       q    Type
REMARK                         _______ _______ _______ _____ _____    ______ ____
ROOT
ATOM      1  N   UNL     1       4.415   4.377  17.185  0.00  0.00    +0.000 N 
ATOM      2  C   UNL     1       3.738   3.399  17.849  0.00  0.00    +0.000 C 
ATOM      3  O   UNL     1       3.774   2.201  17.650  0.00  0.00    +0.000 OA
ATOM      4  C   UNL     1       2.897   4.067  18.844  0.00  0.00    +0.000 A 
ATOM      5  C   UNL     1       2.050   3.551  19.804  0.00  0.00    +0.000 A 
ATOM      6  C   UNL     1       1.422   4.466  20.658  0.00  0.00    +0.000 A 
ATOM      7  C   UNL     1       1.642   5.854  20.526  0.00  0.00    +0.000 A 
ATOM      8  C   UNL     1       2.485   6.352  19.528  0.00  0.00    +0.000 A 
ATOM      9  C   UNL     1       3.102   5.429  18.709  0.00  0.00    +0.000 A 
ATOM     10  C   UNL     1       4.082   5.621  17.644  0.00  0.00    +0.000 C 
ATOM     11  O   UNL     1       4.488   6.708  17.271  0.00  0.00    +0.000 OA
ENDROOT
BRANCH   1  12
ATOM     12  C   UNL     1       5.405   4.161  16.142  0.00  0.00    +0.000 C 
BRANCH  12  14
ATOM     13  O   UNL     1       7.634   5.049  15.882  0.00  0.00    +0.000 OA
ATOM     14  C   UNL     1       6.828   4.435  16.585  0.00  0.00    +0.000 C 
BRANCH  14  15
ATOM     15  O   UNL     1       7.142   4.108  17.856  0.00  0.00    +0.000 OA
ATOM     16  H   UNL     1       8.071   4.252  18.100  0.00  0.00    +0.000 HD
ENDBRANCH  14  15
ENDBRANCH  12  14
ENDBRANCH   1  12
TORSDOF 3
ENDMDL
MODEL 6
REMARK VINA RESULT:      -6.3      1.366      1.631
REMARK  Name = 
REMARK  3 active torsions:
REMARK  status: ('A' for Active; 'I' for Inactive)
REMARK    1  A    between atoms: C_2  and  O_3
REMARK    2  A    between atoms: C_2  and  C_4
REMARK    3  A    between atoms: C_4  and  N_5
REMARK                            x       y       z     vdW  Elec       q    Type
REMARK                         _______ _______ _______ _____ _____    ______ ____
ROOT
ATOM      1  N   UNL     1       3.289   4.045  19.035  0.00  0.00    +0.000 N 
ATOM      2  C   UNL     1       3.126   5.163  18.274  0.00  0.00    +0.000 C 
ATOM      3  O   UNL     1       2.085   5.655  17.888  0.00  0.00    +0.000 OA
ATOM      4  C   UNL     1       4.466   5.656  17.952  0.00  0.00    +0.000 A 
ATOM      5  C   UNL     1       4.875   6.773  17.250  0.00  0.00    +0.000 A 
ATOM      6  C   UNL     1       6.253   7.004  17.165  0.00  0.00    +0.000 A 
ATOM      7  C   UNL     1       7.176   6.121  17.764  0.00  0.00    +0.000 A 
ATOM      8  C   UNL     1       6.739   4.983  18.447  0.00  0.00    +0.000 A 
ATOM      9  C   UNL     1       5.375   4.785  18.528  0.00  0.00    +0.000 A 
ATOM     10  C   UNL     1       4.612   3.755  19.227  0.00  0.00    +0.000 C 
ATOM     11  O   UNL     1       5.111   2.830  19.844  0.00  0.00    +0.000 OA
ENDROOT
BRANCH   1  12
ATOM     12  C   UNL     1       2.218   3.257  19.622  0.00  0.00    +0.000 C 
BRANCH  12  14
ATOM     13  O   UNL     1       0.310   2.269  18.523  0.00  0.00    +0.000 OA
ATOM     14  C   UNL     1       1.536   2.326  18.639  0.00  0.00    +0.000 C 
BRANCH  14  15
ATOM     15  O   UNL     1       2.336   1.660  17.779  0.00  0.00    +0.000 OA
ATOM     16  H   UNL     1       1.939   0.868  17.379  0.00  0.00    +0.000 HD
ENDBRANCH  14  15
ENDBRANCH  12  14
ENDBRANCH   1  12
TORSDOF 3
ENDMDL
MODEL 7
REMARK VINA RESULT:      -6.3      1.620      1.922
REMARK  Name = 
REMARK  3 active torsions:
REMARK  status: ('A' for Active; 'I' for Inactive)
REMARK    1  A    between atoms: C_2  and  O_3
REMARK    2  A    between atoms: C_2  and  C_4
REMARK    3  A    between atoms: C_4  and  N_5
REMARK                            x       y       z     vdW  Elec       q    Type
REMARK                         _______ _______ _______ _____ _____    ______ ____
ROOT
ATOM      1  N   UNL     1       2.676   3.671  18.941  0.00  0.00    +0.000 N 
ATOM      2  C   UNL     1       2.768   5.030  18.908  0.00  0.00    +0.000 C 
ATOM      3  O   UNL     1       2.194   5.832  19.616  0.00  0.00    +0.000 OA
ATOM      4  C   UNL     1       3.671   5.367  17.806  0.00  0.00    +0.000 A 
ATOM      5  C   UNL     1       4.142   6.587  17.364  0.00  0.00    +0.000 A 
ATOM      6  C   UNL     1       5.057   6.572  16.304  0.00  0.00    +0.000 A 
ATOM      7  C   UNL     1       5.463   5.357  15.712  0.00  0.00    +0.000 A 
ATOM      8  C   UNL     1       4.952   4.136  16.161  0.00  0.00    +0.000 A 
ATOM      9  C   UNL     1       4.062   4.178  17.216  0.00  0.00    +0.000 A 
ATOM     10  C   UNL     1       3.423   3.091  17.953  0.00  0.00    +0.000 C 
ATOM     11  O   UNL     1       3.560   1.909  17.691  0.00  0.00    +0.000 OA
ENDROOT
BRANCH   1  12
ATOM     12  C   UNL     1       1.922   2.898  19.913  0.00  0.00    +0.000 C 
BRANCH  12  14
ATOM     13  O   UNL     1       2.022   3.101  22.316  0.00  0.00    +0.000 OA
ATOM     14  C   UNL     1       2.595   2.797  21.268  0.00  0.00    +0.000 C 
BRANCH  14  15
ATOM     15  O   UNL     1       3.811   2.212  21.299  0.00  0.00    +0.000 OA
ATOM     16  H   UNL     1       4.420   2.492  20.595  0.00  0.00    +0.000 HD
ENDBRANCH  14  15
ENDBRANCH  12  14
ENDBRANCH   1  12
TORSDOF 3
ENDMDL
MODEL 8
REMARK VINA RESULT:      -6.3      1.664      2.332
REMARK  Name = 
REMARK  3 active torsions:
REMARK  status: ('A' for Active; 'I' for Inactive)
REMARK    1  A    between atoms: C_2  and  O_3
REMARK    2  A    between atoms: C_2  and  C_4
REMARK    3  A    between atoms: C_4  and  N_5
REMARK                            x       y       z     vdW  Elec       q    Type
REMARK                         _______ _______ _______ _____ _____    ______ ____
ROOT
ATOM      1  N   UNL     1       2.459   3.839  19.078  0.00  0.00    +0.000 N 
ATOM      2  C   UNL     1       3.212   3.176  18.156  0.00  0.00    +0.000 C 
ATOM      3  O   UNL     1       3.294   1.976  17.986  0.00  0.00    +0.000 OA
ATOM      4  C   UNL     1       3.964   4.190  17.415  0.00  0.00    +0.000 A 
ATOM      5  C   UNL     1       4.836   4.071  16.351  0.00  0.00    +0.000 A 
ATOM      6  C   UNL     1       5.356   5.256  15.817  0.00  0.00    +0.000 A 
ATOM      7  C   UNL     1       5.008   6.512  16.359  0.00  0.00    +0.000 A 
ATOM      8  C   UNL     1       4.143   6.604  17.453  0.00  0.00    +0.000 A 
ATOM      9  C   UNL     1       3.633   5.422  17.952  0.00  0.00    +0.000 A 
ATOM     10  C   UNL     1       2.662   5.190  19.017  0.00  0.00    +0.000 C 
ATOM     11  O   UNL     1       2.163   6.070  19.696  0.00  0.00    +0.000 OA
ENDROOT
BRANCH   1  12
ATOM     12  C   UNL     1       1.517   3.226  20.000  0.00  0.00    +0.000 C 
BRANCH  12  14
ATOM     13  O   UNL     1       1.485   2.523  22.308  0.00  0.00    +0.000 OA
ATOM     14  C   UNL     1       2.147   2.755  21.295  0.00  0.00    +0.000 C 
BRANCH  14  15
ATOM     15  O   UNL     1       3.462   2.452  21.254  0.00  0.00    +0.000 OA
ATOM     16  H   UNL     1       3.974   2.738  22.029  0.00  0.00    +0.000 HD
ENDBRANCH  14  15
ENDBRANCH  12  14
ENDBRANCH   1  12
TORSDOF 3
ENDMDL
MODEL 9
REMARK VINA RESULT:      -6.3      2.791      5.045
REMARK  Name = 
REMARK  3 active torsions:
REMARK  status: ('A' for Active; 'I' for Inactive)
REMARK    1  A    between atoms: C_2  and  O_3
REMARK    2  A    between atoms: C_2  and  C_4
REMARK    3  A    between atoms: C_4  and  N_5
REMARK                            x       y       z     vdW  Elec       q    Type
REMARK                         _______ _______ _______ _____ _____    ______ ____
ROOT
ATOM      1  N   UNL     1       5.972   4.722  17.652  0.00  0.00    +0.000 N 
ATOM      2  C   UNL     1       5.011   4.306  16.780  0.00  0.00    +0.000 C 
ATOM      3  O   UNL     1       5.053   4.315  15.566  0.00  0.00    +0.000 OA
ATOM      4  C   UNL     1       3.865   3.878  17.585  0.00  0.00    +0.000 A 
ATOM      5  C   UNL     1       2.652   3.333  17.213  0.00  0.00    +0.000 A 
ATOM      6  C   UNL     1       1.775   2.968  18.242  0.00  0.00    +0.000 A 
ATOM      7  C   UNL     1       2.120   3.166  19.595  0.00  0.00    +0.000 A 
ATOM      8  C   UNL     1       3.344   3.743  19.945  0.00  0.00    +0.000 A 
ATOM      9  C   UNL     1       4.196   4.081  18.913  0.00  0.00    +0.000 A 
ATOM     10  C   UNL     1       5.553   4.619  18.950  0.00  0.00    +0.000 C 
ATOM     11  O   UNL     1       6.150   4.910  19.972  0.00  0.00    +0.000 OA
ENDROOT
BRANCH   1  12
ATOM     12  C   UNL     1       7.301   5.184  17.288  0.00  0.00    +0.000 C 
BRANCH  12  14
ATOM     13  O   UNL     1       7.146   7.577  17.010  0.00  0.00    +0.000 OA
ATOM     14  C   UNL     1       7.572   6.626  17.670  0.00  0.00    +0.000 C 
BRANCH  14  15
ATOM     15  O   UNL     1       8.180   6.835  18.857  0.00  0.00    +0.000 OA
ATOM     16  H   UNL     1       7.578   6.952  19.611  0.00  0.00    +0.000 HD
ENDBRANCH  14  15
ENDBRANCH  12  14
ENDBRANCH   1  12
TORSDOF 3
ENDMDL
