MODEL 1
REMARK VINA RESULT:      -8.5      0.000      0.000
REMARK  Name = 
REMARK  4 active torsions:
REMARK  status: ('A' for Active; 'I' for Inactive)
REMARK    1  A    between atoms: C_4  and  C_5
REMARK    2  A    between atoms: C_5  and  N_6
REMARK    3  A    between atoms: N_10  and  C_11
REMARK    4  A    between atoms: C_20  and  C_21
REMARK                            x       y       z     vdW  Elec       q    Type
REMARK                         _______ _______ _______ _____ _____    ______ ____
ROOT
ATOM      1  N   UNL     1       1.715   6.297  20.652  0.00  0.00    +0.000 N 
ATOM      2  C   UNL     1       2.259   6.878  19.523  0.00  0.00    +0.000 A 
ATOM      3  N   UNL     1       3.109   6.288  18.727  0.00  0.00    +0.000 NA
ATOM      4  C   UNL     1       3.595   6.969  17.624  0.00  0.00    +0.000 A 
ATOM      5  N   UNL     1       4.491   6.390  16.774  0.00  0.00    +0.000 N 
ATOM      6  N   UNL     1       3.256   8.189  17.302  0.00  0.00    +0.000 NA
ATOM      7  C   UNL     1       2.385   8.816  18.116  0.00  0.00    +0.000 A 
ATOM      8  N   UNL     1       1.898  10.031  18.070  0.00  0.00    +0.000 NA
ATOM      9  C   UNL     1       1.137  10.122  19.215  0.00  0.00    +0.000 A 
ATOM     10  N   UNL     1       1.075   8.991  19.946  0.00  0.00    +0.000 NA
ATOM     11  N   UNL     1       1.883   8.189  19.213  0.00  0.00    +0.000 N 
ATOM     12  H   UNL     1       0.938   6.773  21.108  0.00  0.00    +0.000 HD
ATOM     13  H   UNL     1       4.659   6.976  15.964  0.00  0.00    +0.000 HD
ENDROOT
BRANCH   5  14
ATOM     14  C   UNL     1       4.690   4.967  16.582  0.00  0.00    +0.000 C 
ATOM     15  C   UNL     1       5.060   4.651  15.128  0.00  0.00    +0.000 C 
ATOM     16  C   UNL     1       6.476   5.084  14.747  0.00  0.00    +0.000 C 
ATOM     17  C   UNL     1       7.524   4.542  15.711  0.00  0.00    +0.000 C 
ATOM     18  C   UNL     1       7.198   4.886  17.159  0.00  0.00    +0.000 C 
ATOM     19  C   UNL     1       5.778   4.465  17.549  0.00  0.00    +0.000 C 
ENDBRANCH   5  14
BRANCH   9  20
ATOM     20  C   UNL     1       0.501  11.426  19.577  0.00  0.00    +0.000 A 
ATOM     21  C   UNL     1      -0.344  12.134  18.736  0.00  0.00    +0.000 A 
ATOM     22  C   UNL     1      -0.695  13.328  19.407  0.00  0.00    +0.000 A 
ATOM     23  C   UNL     1      -0.044  13.281  20.617  0.00  0.00    +0.000 A 
ATOM     24  O   UNL     1       0.670  12.130  20.739  0.00  0.00    +0.000 OA
ENDBRANCH   9  20
BRANCH   1  25
ATOM     25  C   UNL     1       2.240   5.117  21.300  0.00  0.00    +0.000 C 
BRANCH  25  29
ATOM     26  C   UNL     1       2.020   1.718  18.615  0.00  0.00    +0.000 A 
ATOM     27  C   UNL     1       0.873   2.435  18.948  0.00  0.00    +0.000 A 
ATOM     28  C   UNL     1       0.957   3.507  19.837  0.00  0.00    +0.000 A 
ATOM     29  C   UNL     1       2.183   3.886  20.412  0.00  0.00    +0.000 A 
ATOM     30  C   UNL     1       3.329   3.158  20.052  0.00  0.00    +0.000 A 
ATOM     31  C   UNL     1       3.245   2.078  19.169  0.00  0.00    +0.000 A 
ENDBRANCH  25  29
ENDBRANCH   1  25
TORSDOF 4
ENDMDL
MODEL 2
REMARK VINA RESULT:      -8.5      0.829      1.108
REMARK  Name = 
REMARK  4 active torsions:
REMARK  status: ('A' for Active; 'I' for Inactive)
REMARK    1  A    between atoms: C_4  and  C_5
REMARK    2  A    between atoms: C_5  and  N_6
REMARK    3  A    between atoms: N_10  and  C_11
REMARK    4  A    between atoms: C_20  and  C_21
REMARK                            x       y       z     vdW  Elec       q    Type
REMARK                         _______ _______ _______ _____ _____    ______ ____
ROOT
ATOM      1  N   UNL     1       1.754   5.883  20.363  0.00  0.00    +0.000 N 
ATOM      2  C   UNL     1       2.479   6.489  19.356  0.00  0.00    +0.000 A 
ATOM      3  N   UNL     1       3.532   5.966  18.789  0.00  0.00    +0.000 NA
ATOM      4  C   UNL     1       4.188   6.667  17.791  0.00  0.00    +0.000 A 
ATOM      5  N   UNL     1       5.296   6.159  17.180  0.00  0.00    +0.000 N 
ATOM      6  N   UNL     1       3.821   7.843  17.353  0.00  0.00    +0.000 NA
ATOM      7  C   UNL     1       2.742   8.401  17.931  0.00  0.00    +0.000 A 
ATOM      8  N   UNL     1       2.171   9.564  17.731  0.00  0.00    +0.000 NA
ATOM      9  C   UNL     1       1.172   9.606  18.679  0.00  0.00    +0.000 A 
ATOM     10  N   UNL     1       1.051   8.490  19.425  0.00  0.00    +0.000 NA
ATOM     11  N   UNL     1       2.068   7.753  18.918  0.00  0.00    +0.000 N 
ATOM     12  H   UNL     1       0.857   6.293  20.619  0.00  0.00    +0.000 HD
ATOM     13  H   UNL     1       5.586   6.741  16.403  0.00  0.00    +0.000 HD
ENDROOT
BRANCH   5  14
ATOM     14  C   UNL     1       5.657   4.758  17.094  0.00  0.00    +0.000 C 
ATOM     15  C   UNL     1       4.768   4.017  16.087  0.00  0.00    +0.000 C 
ATOM     16  C   UNL     1       5.066   4.369  14.630  0.00  0.00    +0.000 C 
ATOM     17  C   UNL     1       6.543   4.203  14.287  0.00  0.00    +0.000 C 
ATOM     18  C   UNL     1       7.440   4.970  15.250  0.00  0.00    +0.000 C 
ATOM     19  C   UNL     1       7.143   4.632  16.714  0.00  0.00    +0.000 C 
ENDBRANCH   5  14
BRANCH   9  20
ATOM     20  C   UNL     1       0.360  10.851  18.841  0.00  0.00    +0.000 A 
ATOM     21  C   UNL     1      -1.026  10.869  18.889  0.00  0.00    +0.000 A 
ATOM     22  C   UNL     1      -1.421  12.222  18.994  0.00  0.00    +0.000 A 
ATOM     23  C   UNL     1      -0.256  12.952  19.003  0.00  0.00    +0.000 A 
ATOM     24  O   UNL     1       0.828  12.134  18.925  0.00  0.00    +0.000 OA
ENDBRANCH   9  20
BRANCH   1  25
ATOM     25  C   UNL     1       2.225   4.772  21.157  0.00  0.00    +0.000 C 
BRANCH  25  29
ATOM     26  C   UNL     1       3.185   1.408  18.595  0.00  0.00    +0.000 A 
ATOM     27  C   UNL     1       1.909   1.964  18.587  0.00  0.00    +0.000 A 
ATOM     28  C   UNL     1       1.608   3.026  19.440  0.00  0.00    +0.000 A 
ATOM     29  C   UNL     1       2.571   3.555  20.316  0.00  0.00    +0.000 A 
ATOM     30  C   UNL     1       3.857   2.989  20.298  0.00  0.00    +0.000 A 
ATOM     31  C   UNL     1       4.157   1.919  19.450  0.00  0.00    +0.000 A 
ENDBRANCH  25  29
ENDBRANCH   1  25
TORSDOF 4
ENDMDL
MODEL 3
REMARK VINA RESULT:      -7.9      1.291      1.504
REMARK  Name = 
REMARK  4 active torsions:
REMARK  status: ('A' for Active; 'I' for Inactive)
REMARK    1  A    between atoms: C_4  and  C_5
REMARK    2  A    between atoms: C_5  and  N_6
REMARK    3  A    between atoms: N_10  and  C_11
REMARK    4  A    between atoms: C_20  and  C_21
REMARK                            x       y       z     vdW  Elec       q    Type
REMARK                         _______ _______ _______ _____ _____    ______ ____
ROOT
ATOM      1  N   UNL     1       1.760   5.158  21.224  0.00  0.00    +0.000 N 
ATOM      2  C   UNL     1       2.187   5.962  20.186  0.00  0.00    +0.000 A 
ATOM      3  N   UNL     1       3.044   5.593  19.273  0.00  0.00    +0.000 NA
ATOM      4  C   UNL     1       3.407   6.487  18.279  0.00  0.00    +0.000 A 
ATOM      5  N   UNL     1       4.304   6.142  17.313  0.00  0.00    +0.000 N 
ATOM      6  N   UNL     1       2.941   7.703  18.175  0.00  0.00    +0.000 NA
ATOM      7  C   UNL     1       2.062   8.103  19.113  0.00  0.00    +0.000 A 
ATOM      8  N   UNL     1       1.464   9.257  19.286  0.00  0.00    +0.000 NA
ATOM      9  C   UNL     1       0.761   9.088  20.459  0.00  0.00    +0.000 A 
ATOM     10  N   UNL     1       0.841   7.854  20.995  0.00  0.00    +0.000 NA
ATOM     11  N   UNL     1       1.678   7.263  20.110  0.00  0.00    +0.000 N 
ATOM     12  H   UNL     1       0.968   5.476  21.781  0.00  0.00    +0.000 HD
ATOM     13  H   UNL     1       4.375   6.864  16.604  0.00  0.00    +0.000 HD
ENDROOT
BRANCH   5  14
ATOM     14  C   UNL     1       4.622   4.795  16.882  0.00  0.00    +0.000 C 
ATOM     15  C   UNL     1       4.858   4.739  15.367  0.00  0.00    +0.000 C 
ATOM     16  C   UNL     1       6.173   5.383  14.927  0.00  0.00    +0.000 C 
ATOM     17  C   UNL     1       7.370   4.830  15.692  0.00  0.00    +0.000 C 
ATOM     18  C   UNL     1       7.173   4.919  17.200  0.00  0.00    +0.000 C 
ATOM     19  C   UNL     1       5.854   4.286  17.651  0.00  0.00    +0.000 C 
ENDBRANCH   5  14
BRANCH   9  20
ATOM     20  C   UNL     1       0.029  10.248  21.054  0.00  0.00    +0.000 A 
ATOM     21  C   UNL     1      -0.144  10.436  22.417  0.00  0.00    +0.000 A 
ATOM     22  C   UNL     1      -0.925  11.603  22.580  0.00  0.00    +0.000 A 
ATOM     23  C   UNL     1      -1.185  12.059  21.310  0.00  0.00    +0.000 A 
ATOM     24  O   UNL     1      -0.603  11.257  20.378  0.00  0.00    +0.000 OA
ENDBRANCH   9  20
BRANCH   1  25
ATOM     25  C   UNL     1       2.423   3.947  21.650  0.00  0.00    +0.000 C 
BRANCH  25  29
ATOM     26  C   UNL     1       3.200   1.391  18.233  0.00  0.00    +0.000 A 
ATOM     27  C   UNL     1       1.917   1.871  18.483  0.00  0.00    +0.000 A 
ATOM     28  C   UNL     1       1.679   2.667  19.604  0.00  0.00    +0.000 A 
ATOM     29  C   UNL     1       2.712   3.001  20.497  0.00  0.00    +0.000 A 
ATOM     30  C   UNL     1       4.002   2.518  20.218  0.00  0.00    +0.000 A 
ATOM     31  C   UNL     1       4.240   1.713  19.101  0.00  0.00    +0.000 A 
ENDBRANCH  25  29
ENDBRANCH   1  25
TORSDOF 4
ENDMDL
MODEL 4
REMARK VINA RESULT:      -7.8      1.227      1.693
REMARK  Name = 
REMARK  4 active torsions:
REMARK  status: ('A' for Active; 'I' for Inactive)
REMARK    1  A    between atoms: C_4  and  C_5
REMARK    2  A    between atoms: C_5  and  N_6
REMARK    3  A    between atoms: N_10  and  C_11
REMARK    4  A    between atoms: C_20  and  C_21
REMARK                            x       y       z     vdW  Elec       q    Type
REMARK                         _______ _______ _______ _____ _____    ______ ____
ROOT
ATOM      1  N   UNL     1       1.673   5.730  21.088  0.00  0.00    +0.000 N 
ATOM      2  C   UNL     1       2.083   6.588  20.087  0.00  0.00    +0.000 A 
ATOM      3  N   UNL     1       2.934   6.273  19.149  0.00  0.00    +0.000 NA
ATOM      4  C   UNL     1       3.279   7.217  18.196  0.00  0.00    +0.000 A 
ATOM      5  N   UNL     1       4.170   6.929  17.205  0.00  0.00    +0.000 N 
ATOM      6  N   UNL     1       2.800   8.433  18.156  0.00  0.00    +0.000 NA
ATOM      7  C   UNL     1       1.927   8.778  19.120  0.00  0.00    +0.000 A 
ATOM      8  N   UNL     1       1.320   9.915  19.355  0.00  0.00    +0.000 NA
ATOM      9  C   UNL     1       0.630   9.683  20.524  0.00  0.00    +0.000 A 
ATOM     10  N   UNL     1       0.726   8.425  20.999  0.00  0.00    +0.000 NA
ATOM     11  N   UNL     1       1.561   7.886  20.079  0.00  0.00    +0.000 N 
ATOM     12  H   UNL     1       0.884   6.013  21.667  0.00  0.00    +0.000 HD
ATOM     13  H   UNL     1       4.227   7.685  16.532  0.00  0.00    +0.000 HD
ENDROOT
BRANCH   5  14
ATOM     14  C   UNL     1       4.496   5.608  16.706  0.00  0.00    +0.000 C 
ATOM     15  C   UNL     1       5.579   5.675  15.623  0.00  0.00    +0.000 C 
ATOM     16  C   UNL     1       6.968   6.011  16.165  0.00  0.00    +0.000 C 
ATOM     17  C   UNL     1       7.384   5.083  17.301  0.00  0.00    +0.000 C 
ATOM     18  C   UNL     1       6.340   5.037  18.409  0.00  0.00    +0.000 C 
ATOM     19  C   UNL     1       4.942   4.712  17.876  0.00  0.00    +0.000 C 
ENDBRANCH   5  14
BRANCH   9  20
ATOM     20  C   UNL     1      -0.107  10.805  21.182  0.00  0.00    +0.000 A 
ATOM     21  C   UNL     1      -0.605  10.751  22.476  0.00  0.00    +0.000 A 
ATOM     22  C   UNL     1      -1.277  11.971  22.715  0.00  0.00    +0.000 A 
ATOM     23  C   UNL     1      -1.153  12.700  21.555  0.00  0.00    +0.000 A 
ATOM     24  O   UNL     1      -0.436  12.012  20.626  0.00  0.00    +0.000 OA
ENDBRANCH   9  20
BRANCH   1  25
ATOM     25  C   UNL     1       2.352   4.507  21.448  0.00  0.00    +0.000 C 
BRANCH  25  29
ATOM     26  C   UNL     1       2.375   1.445  18.375  0.00  0.00    +0.000 A 
ATOM     27  C   UNL     1       3.512   1.692  19.141  0.00  0.00    +0.000 A 
ATOM     28  C   UNL     1       3.497   2.701  20.104  0.00  0.00    +0.000 A 
ATOM     29  C   UNL     1       2.350   3.484  20.324  0.00  0.00    +0.000 A 
ATOM     30  C   UNL     1       1.210   3.209  19.551  0.00  0.00    +0.000 A 
ATOM     31  C   UNL     1       1.226   2.205  18.580  0.00  0.00    +0.000 A 
ENDBRANCH  25  29
ENDBRANCH   1  25
TORSDOF 4
ENDMDL
MODEL 5
REMARK VINA RESULT:      -7.3      1.329      4.568
REMARK  Name = 
REMARK  4 active torsions:
REMARK  status: ('A' for Active; 'I' for Inactive)
REMARK    1  A    between atoms: C_4  and  C_5
REMARK    2  A    between atoms: C_5  and  N_6
REMARK    3  A    between atoms: N_10  and  C_11
REMARK    4  A    between atoms: C_20  and  C_21
REMARK                            x       y       z     vdW  Elec       q    Type
REMARK                         _______ _______ _______ _____ _____    ______ ____
ROOT
ATOM      1  N   UNL     1       3.702   7.982  17.145  0.00  0.00    +0.000 N 
ATOM      2  C   UNL     1       2.938   7.816  18.283  0.00  0.00    +0.000 A 
ATOM      3  N   UNL     1       2.840   6.697  18.948  0.00  0.00    +0.000 NA
ATOM      4  C   UNL     1       2.037   6.643  20.075  0.00  0.00    +0.000 A 
ATOM      5  N   UNL     1       1.902   5.491  20.792  0.00  0.00    +0.000 N 
ATOM      6  N   UNL     1       1.355   7.654  20.544  0.00  0.00    +0.000 NA
ATOM      7  C   UNL     1       1.438   8.814  19.866  0.00  0.00    +0.000 A 
ATOM      8  N   UNL     1       0.850   9.967  20.072  0.00  0.00    +0.000 NA
ATOM      9  C   UNL     1       1.253  10.736  19.002  0.00  0.00    +0.000 A 
ATOM     10  N   UNL     1       2.123  10.133  18.167  0.00  0.00    +0.000 NA
ATOM     11  N   UNL     1       2.210   8.915  18.752  0.00  0.00    +0.000 N 
ATOM     12  H   UNL     1       3.846   8.929  16.799  0.00  0.00    +0.000 HD
ATOM     13  H   UNL     1       1.373   5.649  21.643  0.00  0.00    +0.000 HD
ENDROOT
BRANCH   5  14
ATOM     14  C   UNL     1       2.843   4.389  20.824  0.00  0.00    +0.000 C 
ATOM     15  C   UNL     1       2.269   3.191  21.590  0.00  0.00    +0.000 C 
ATOM     16  C   UNL     1       1.157   2.458  20.840  0.00  0.00    +0.000 C 
ATOM     17  C   UNL     1       1.580   2.058  19.431  0.00  0.00    +0.000 C 
ATOM     18  C   UNL     1       2.112   3.244  18.637  0.00  0.00    +0.000 C 
ATOM     19  C   UNL     1       3.219   3.992  19.385  0.00  0.00    +0.000 C 
ENDBRANCH   5  14
BRANCH   9  20
ATOM     20  C   UNL     1       0.686  12.108  18.823  0.00  0.00    +0.000 A 
ATOM     21  C   UNL     1       1.457  13.256  18.719  0.00  0.00    +0.000 A 
ATOM     22  C   UNL     1       0.565  14.348  18.614  0.00  0.00    +0.000 A 
ATOM     23  C   UNL     1      -0.697  13.805  18.662  0.00  0.00    +0.000 A 
ATOM     24  O   UNL     1      -0.638  12.451  18.773  0.00  0.00    +0.000 OA
ENDBRANCH   9  20
BRANCH   1  25
ATOM     25  C   UNL     1       4.223   6.899  16.342  0.00  0.00    +0.000 C 
BRANCH  25  29
ATOM     26  C   UNL     1       7.811   5.274  18.158  0.00  0.00    +0.000 A 
ATOM     27  C   UNL     1       7.605   6.650  18.101  0.00  0.00    +0.000 A 
ATOM     28  C   UNL     1       6.460   7.157  17.486  0.00  0.00    +0.000 A 
ATOM     29  C   UNL     1       5.498   6.305  16.917  0.00  0.00    +0.000 A 
ATOM     30  C   UNL     1       5.719   4.919  16.997  0.00  0.00    +0.000 A 
ATOM     31  C   UNL     1       6.870   4.411  17.605  0.00  0.00    +0.000 A 
ENDBRANCH  25  29
ENDBRANCH   1  25
TORSDOF 4
ENDMDL
MODEL 6
REMARK VINA RESULT:      -7.2      3.609      7.066
REMARK  Name = 
REMARK  4 active torsions:
REMARK  status: ('A' for Active; 'I' for Inactive)
REMARK    1  A    between atoms: C_4  and  C_5
REMARK    2  A    between atoms: C_5  and  N_6
REMARK    3  A    between atoms: N_10  and  C_11
REMARK    4  A    between atoms: C_20  and  C_21
REMARK                            x       y       z     vdW  Elec       q    Type
REMARK                         _______ _______ _______ _____ _____    ______ ____
ROOT
ATOM      1  N   UNL     1       0.970  10.372  20.971  0.00  0.00    +0.000 N 
ATOM      2  C   UNL     1       0.465  11.396  20.194  0.00  0.00    +0.000 A 
ATOM      3  N   UNL     1      -0.564  11.279  19.400  0.00  0.00    +0.000 NA
ATOM      4  C   UNL     1      -0.981  12.373  18.660  0.00  0.00    +0.000 A 
ATOM      5  N   UNL     1      -2.046  12.289  17.813  0.00  0.00    +0.000 N 
ATOM      6  N   UNL     1      -0.415  13.550  18.701  0.00  0.00    +0.000 NA
ATOM      7  C   UNL     1       0.652  13.688  19.510  0.00  0.00    +0.000 A 
ATOM      8  N   UNL     1       1.432  14.718  19.726  0.00  0.00    +0.000 NA
ATOM      9  C   UNL     1       2.398  14.224  20.577  0.00  0.00    +0.000 A 
ATOM     10  N   UNL     1       2.219  12.943  20.955  0.00  0.00    +0.000 NA
ATOM     11  N   UNL     1       1.102  12.641  20.252  0.00  0.00    +0.000 N 
ATOM     12  H   UNL     1       1.664  10.607  21.679  0.00  0.00    +0.000 HD
ATOM     13  H   UNL     1      -2.288  13.199  17.436  0.00  0.00    +0.000 HD
ENDROOT
BRANCH   5  14
ATOM     14  C   UNL     1      -3.127  11.327  17.892  0.00  0.00    +0.000 C 
ATOM     15  C   UNL     1      -4.152  11.551  16.774  0.00  0.00    +0.000 C 
ATOM     16  C   UNL     1      -3.649  11.144  15.389  0.00  0.00    +0.000 C 
ATOM     17  C   UNL     1      -3.115   9.716  15.367  0.00  0.00    +0.000 C 
ATOM     18  C   UNL     1      -2.061   9.486  16.443  0.00  0.00    +0.000 C 
ATOM     19  C   UNL     1      -2.551   9.901  17.833  0.00  0.00    +0.000 C 
ENDBRANCH   5  14
BRANCH   9  20
ATOM     20  C   UNL     1       3.552  15.092  20.967  0.00  0.00    +0.000 A 
ATOM     21  C   UNL     1       4.692  14.623  21.602  0.00  0.00    +0.000 A 
ATOM     22  C   UNL     1       5.520  15.741  21.849  0.00  0.00    +0.000 A 
ATOM     23  C   UNL     1       4.840  16.828  21.353  0.00  0.00    +0.000 A 
ATOM     24  O   UNL     1       3.655  16.447  20.804  0.00  0.00    +0.000 OA
ENDBRANCH   9  20
BRANCH   1  25
ATOM     25  C   UNL     1       0.669   8.973  20.779  0.00  0.00    +0.000 C 
BRANCH  25  29
ATOM     26  C   UNL     1       3.244   6.897  17.974  0.00  0.00    +0.000 A 
ATOM     27  C   UNL     1       2.986   6.359  19.232  0.00  0.00    +0.000 A 
ATOM     28  C   UNL     1       2.180   7.055  20.133  0.00  0.00    +0.000 A 
ATOM     29  C   UNL     1       1.616   8.298  19.800  0.00  0.00    +0.000 A 
ATOM     30  C   UNL     1       1.878   8.816  18.521  0.00  0.00    +0.000 A 
ATOM     31  C   UNL     1       2.692   8.125  17.620  0.00  0.00    +0.000 A 
ENDBRANCH  25  29
ENDBRANCH   1  25
TORSDOF 4
ENDMDL
MODEL 7
REMARK VINA RESULT:      -7.2      8.103      9.843
REMARK  Name = 
REMARK  4 active torsions:
REMARK  status: ('A' for Active; 'I' for Inactive)
REMARK    1  A    between atoms: C_4  and  C_5
REMARK    2  A    between atoms: C_5  and  N_6
REMARK    3  A    between atoms: N_10  and  C_11
REMARK    4  A    between atoms: C_20  and  C_21
REMARK                            x       y       z     vdW  Elec       q    Type
REMARK                         _______ _______ _______ _____ _____    ______ ____
ROOT
ATOM      1  N   UNL     1       5.691  14.872  22.229  0.00  0.00    +0.000 N 
ATOM      2  C   UNL     1       6.721  13.952  22.262  0.00  0.00    +0.000 A 
ATOM      3  N   UNL     1       7.700  13.911  21.400  0.00  0.00    +0.000 NA
ATOM      4  C   UNL     1       8.678  12.939  21.526  0.00  0.00    +0.000 A 
ATOM      5  N   UNL     1       9.712  12.858  20.641  0.00  0.00    +0.000 N 
ATOM      6  N   UNL     1       8.703  12.037  22.471  0.00  0.00    +0.000 NA
ATOM      7  C   UNL     1       7.697  12.059  23.365  0.00  0.00    +0.000 A 
ATOM      8  N   UNL     1       7.441  11.273  24.382  0.00  0.00    +0.000 NA
ATOM      9  C   UNL     1       6.234  11.738  24.858  0.00  0.00    +0.000 A 
ATOM     10  N   UNL     1       5.753  12.824  24.221  0.00  0.00    +0.000 NA
ATOM     11  N   UNL     1       6.712  12.992  23.280  0.00  0.00    +0.000 N 
ATOM     12  H   UNL     1       5.073  14.927  23.037  0.00  0.00    +0.000 HD
ATOM     13  H   UNL     1      10.394  12.168  20.936  0.00  0.00    +0.000 HD
ENDROOT
BRANCH   5  14
ATOM     14  C   UNL     1      10.216  13.936  19.814  0.00  0.00    +0.000 C 
ATOM     15  C   UNL     1      11.737  13.841  19.645  0.00  0.00    +0.000 C 
ATOM     16  C   UNL     1      12.183  12.695  18.737  0.00  0.00    +0.000 C 
ATOM     17  C   UNL     1      11.480  12.723  17.385  0.00  0.00    +0.000 C 
ATOM     18  C   UNL     1       9.964  12.772  17.532  0.00  0.00    +0.000 C 
ATOM     19  C   UNL     1       9.507  13.911  18.448  0.00  0.00    +0.000 C 
ENDBRANCH   5  14
BRANCH   9  20
ATOM     20  C   UNL     1       5.548  11.007  25.967  0.00  0.00    +0.000 A 
ATOM     21  C   UNL     1       6.111  10.792  27.216  0.00  0.00    +0.000 A 
ATOM     22  C   UNL     1       5.186  10.027  27.963  0.00  0.00    +0.000 A 
ATOM     23  C   UNL     1       4.114   9.816  27.129  0.00  0.00    +0.000 A 
ATOM     24  O   UNL     1       4.314  10.415  25.924  0.00  0.00    +0.000 OA
ENDBRANCH   9  20
BRANCH   1  25
ATOM     25  C   UNL     1       5.357  15.688  21.084  0.00  0.00    +0.000 C 
BRANCH  25  29
ATOM     26  C   UNL     1       2.566  13.713  18.416  0.00  0.00    +0.000 A 
ATOM     27  C   UNL     1       3.562  14.545  17.912  0.00  0.00    +0.000 A 
ATOM     28  C   UNL     1       4.432  15.197  18.787  0.00  0.00    +0.000 A 
ATOM     29  C   UNL     1       4.328  15.032  20.178  0.00  0.00    +0.000 A 
ATOM     30  C   UNL     1       3.325  14.177  20.666  0.00  0.00    +0.000 A 
ATOM     31  C   UNL     1       2.447  13.531  19.791  0.00  0.00    +0.000 A 
ENDBRANCH  25  29
ENDBRANCH   1  25
TORSDOF 4
ENDMDL
MODEL 8
REMARK VINA RESULT:      -7.1      6.455     10.605
REMARK  Name = 
REMARK  4 active torsions:
REMARK  status: ('A' for Active; 'I' for Inactive)
REMARK    1  A    between atoms: C_4  and  C_5
REMARK    2  A    between atoms: C_5  and  N_6
REMARK    3  A    between atoms: N_10  and  C_11
REMARK    4  A    between atoms: C_20  and  C_21
REMARK                            x       y       z     vdW  Elec       q    Type
REMARK                         _______ _______ _______ _____ _____    ______ ____
ROOT
ATOM      1  N   UNL     1      -1.139  12.478  19.267  0.00  0.00    +0.000 N 
ATOM      2  C   UNL     1      -2.512  12.332  19.309  0.00  0.00    +0.000 A 
ATOM      3  N   UNL     1      -3.248  12.590  20.355  0.00  0.00    +0.000 NA
ATOM      4  C   UNL     1      -4.619  12.401  20.287  0.00  0.00    +0.000 A 
ATOM      5  N   UNL     1      -5.421  12.651  21.361  0.00  0.00    +0.000 N 
ATOM      6  N   UNL     1      -5.253  11.980  19.225  0.00  0.00    +0.000 NA
ATOM      7  C   UNL     1      -4.508  11.702  18.139  0.00  0.00    +0.000 A 
ATOM      8  N   UNL     1      -4.854  11.237  16.963  0.00  0.00    +0.000 NA
ATOM      9  C   UNL     1      -3.652  11.075  16.309  0.00  0.00    +0.000 A 
ATOM     10  N   UNL     1      -2.570  11.480  17.003  0.00  0.00    +0.000 NA
ATOM     11  N   UNL     1      -3.159  11.868  18.159  0.00  0.00    +0.000 N 
ATOM     12  H   UNL     1      -0.679  12.414  18.360  0.00  0.00    +0.000 HD
ATOM     13  H   UNL     1      -6.401  12.570  21.113  0.00  0.00    +0.000 HD
ENDROOT
BRANCH   5  14
ATOM     14  C   UNL     1      -5.116  13.536  22.468  0.00  0.00    +0.000 C 
ATOM     15  C   UNL     1      -5.881  14.859  22.347  0.00  0.00    +0.000 C 
ATOM     16  C   UNL     1      -7.378  14.731  22.626  0.00  0.00    +0.000 C 
ATOM     17  C   UNL     1      -7.659  14.053  23.963  0.00  0.00    +0.000 C 
ATOM     18  C   UNL     1      -6.944  12.714  24.084  0.00  0.00    +0.000 C 
ATOM     19  C   UNL     1      -5.444  12.829  23.796  0.00  0.00    +0.000 C 
ENDBRANCH   5  14
BRANCH   9  20
ATOM     20  C   UNL     1      -3.629  10.444  14.954  0.00  0.00    +0.000 A 
ATOM     21  C   UNL     1      -2.507   9.848  14.397  0.00  0.00    +0.000 A 
ATOM     22  C   UNL     1      -2.864   9.420  13.098  0.00  0.00    +0.000 A 
ATOM     23  C   UNL     1      -4.181   9.780  12.935  0.00  0.00    +0.000 A 
ATOM     24  O   UNL     1      -4.659  10.387  14.054  0.00  0.00    +0.000 OA
ENDBRANCH   9  20
BRANCH   1  25
ATOM     25  C   UNL     1      -0.292  12.604  20.430  0.00  0.00    +0.000 C 
BRANCH  25  29
ATOM     26  C   UNL     1      -0.204   8.916  22.711  0.00  0.00    +0.000 A 
ATOM     27  C   UNL     1      -0.695  10.090  23.277  0.00  0.00    +0.000 A 
ATOM     28  C   UNL     1      -0.688  11.274  22.540  0.00  0.00    +0.000 A 
ATOM     29  C   UNL     1      -0.192  11.313  21.225  0.00  0.00    +0.000 A 
ATOM     30  C   UNL     1       0.286  10.116  20.668  0.00  0.00    +0.000 A 
ATOM     31  C   UNL     1       0.288   8.931  21.408  0.00  0.00    +0.000 A 
ENDBRANCH  25  29
ENDBRANCH   1  25
TORSDOF 4
ENDMDL
MODEL 9
REMARK VINA RESULT:      -7.0      3.861      7.813
REMARK  Name = 
REMARK  4 active torsions:
REMARK  status: ('A' for Active; 'I' for Inactive)
REMARK    1  A    between atoms: C_4  and  C_5
REMARK    2  A    between atoms: C_5  and  N_6
REMARK    3  A    between atoms: N_10  and  C_11
REMARK    4  A    between atoms: C_20  and  C_21
REMARK                            x       y       z     vdW  Elec       q    Type
REMARK                         _______ _______ _______ _____ _____    ______ ____
ROOT
ATOM      1  N   UNL     1       1.875  10.304  18.388  0.00  0.00    +0.000 N 
ATOM      2  C   UNL     1       1.070  11.422  18.480  0.00  0.00    +0.000 A 
ATOM      3  N   UNL     1      -0.234  11.396  18.447  0.00  0.00    +0.000 NA
ATOM      4  C   UNL     1      -0.943  12.582  18.541  0.00  0.00    +0.000 A 
ATOM      5  N   UNL     1      -2.306  12.597  18.501  0.00  0.00    +0.000 N 
ATOM      6  N   UNL     1      -0.393  13.760  18.672  0.00  0.00    +0.000 NA
ATOM      7  C   UNL     1       0.952  13.808  18.702  0.00  0.00    +0.000 A 
ATOM      8  N   UNL     1       1.768  14.829  18.786  0.00  0.00    +0.000 NA
ATOM      9  C   UNL     1       3.018  14.259  18.676  0.00  0.00    +0.000 A 
ATOM     10  N   UNL     1       3.022  12.914  18.591  0.00  0.00    +0.000 NA
ATOM     11  N   UNL     1       1.690  12.670  18.608  0.00  0.00    +0.000 N 
ATOM     12  H   UNL     1       2.867  10.411  18.594  0.00  0.00    +0.000 HD
ATOM     13  H   UNL     1      -2.668  13.524  18.693  0.00  0.00    +0.000 HD
ENDROOT
BRANCH   5  14
ATOM     14  C   UNL     1      -3.182  11.491  18.832  0.00  0.00    +0.000 C 
ATOM     15  C   UNL     1      -4.441  11.979  19.559  0.00  0.00    +0.000 C 
ATOM     16  C   UNL     1      -5.423  12.723  18.654  0.00  0.00    +0.000 C 
ATOM     17  C   UNL     1      -5.783  11.918  17.409  0.00  0.00    +0.000 C 
ATOM     18  C   UNL     1      -4.545  11.462  16.648  0.00  0.00    +0.000 C 
ATOM     19  C   UNL     1      -3.550  10.725  17.548  0.00  0.00    +0.000 C 
ENDBRANCH   5  14
BRANCH   9  20
ATOM     20  C   UNL     1       4.227  15.137  18.613  0.00  0.00    +0.000 A 
ATOM     21  C   UNL     1       5.427  14.760  18.029  0.00  0.00    +0.000 A 
ATOM     22  C   UNL     1       6.333  15.828  18.214  0.00  0.00    +0.000 A 
ATOM     23  C   UNL     1       5.638  16.795  18.901  0.00  0.00    +0.000 A 
ATOM     24  O   UNL     1       4.359  16.395  19.136  0.00  0.00    +0.000 OA
ENDBRANCH   9  20
BRANCH   1  25
ATOM     25  C   UNL     1       1.434   9.013  17.913  0.00  0.00    +0.000 C 
BRANCH  25  29
ATOM     26  C   UNL     1       4.069   5.703  18.870  0.00  0.00    +0.000 A 
ATOM     27  C   UNL     1       3.015   6.039  19.716  0.00  0.00    +0.000 A 
ATOM     28  C   UNL     1       2.196   7.126  19.409  0.00  0.00    +0.000 A 
ATOM     29  C   UNL     1       2.409   7.899  18.254  0.00  0.00    +0.000 A 
ATOM     30  C   UNL     1       3.469   7.534  17.407  0.00  0.00    +0.000 A 
ATOM     31  C   UNL     1       4.296   6.452  17.718  0.00  0.00    +0.000 A 
ENDBRANCH  25  29
ENDBRANCH   1  25
TORSDOF 4
ENDMDL
