MODEL 1
REMARK VINA RESULT:      -7.4      0.000      0.000
REMARK  Name = 
REMARK  1 active torsions:
REMARK  status: ('A' for Active; 'I' for Inactive)
REMARK    1  A    between atoms: C_14  and  O_15
REMARK                            x       y       z     vdW  Elec       q    Type
REMARK                         _______ _______ _______ _____ _____    ______ ____
ROOT
ATOM      1  O   UNL     1       2.296   3.155  16.381  0.00  0.00    +0.000 OA
ATOM      2  N   UNL     1       3.033   3.458  17.373  0.00  0.00    +0.000 N 
ATOM      3  C   UNL     1       2.519   3.380  18.695  0.00  0.00    +0.000 A 
ATOM      4  C   UNL     1       3.341   3.738  19.769  0.00  0.00    +0.000 A 
ATOM      5  N   UNL     1       4.606   4.156  19.613  0.00  0.00    +0.000 NA
ATOM      6  C   UNL     1       5.060   4.197  18.357  0.00  0.00    +0.000 A 
ATOM      7  C   UNL     1       4.335   3.878  17.212  0.00  0.00    +0.000 A 
ATOM      8  C   UNL     1       5.191   4.124  16.044  0.00  0.00    +0.000 A 
ATOM      9  C   UNL     1       5.022   4.023  14.673  0.00  0.00    +0.000 A 
ATOM     10  C   UNL     1       6.094   4.381  13.828  0.00  0.00    +0.000 A 
ATOM     11  C   UNL     1       7.324   4.836  14.336  0.00  0.00    +0.000 A 
ATOM     12  C   UNL     1       7.508   4.948  15.702  0.00  0.00    +0.000 A 
ATOM     13  C   UNL     1       6.446   4.597  16.523  0.00  0.00    +0.000 A 
ATOM     14  C   UNL     1       6.444   4.689  18.026  0.00  0.00    +0.000 C 
ATOM     15  C   UNL     1       2.909   3.752  21.192  0.00  0.00    +0.000 C 
ATOM     16  C   UNL     1       1.536   3.220  21.526  0.00  0.00    +0.000 C 
ATOM     17  C   UNL     1       0.602   2.858  20.380  0.00  0.00    +0.000 C 
ATOM     18  C   UNL     1       1.101   2.940  18.924  0.00  0.00    +0.000 C 
ENDROOT
BRANCH  14  19
ATOM     19  O   UNL     1       6.637   6.041  18.408  0.00  0.00    +0.000 OA
ATOM     20  H   UNL     1       7.597   6.174  18.488  0.00  0.00    +0.000 HD
ENDBRANCH  14  19
TORSDOF 1
ENDMDL
MODEL 2
REMARK VINA RESULT:      -7.4      1.026      6.226
REMARK  Name = 
REMARK  1 active torsions:
REMARK  status: ('A' for Active; 'I' for Inactive)
REMARK    1  A    between atoms: C_14  and  O_15
REMARK                            x       y       z     vdW  Elec       q    Type
REMARK                         _______ _______ _______ _____ _____    ______ ____
ROOT
ATOM      1  O   UNL     1       6.122   4.440  19.372  0.00  0.00    +0.000 OA
ATOM      2  N   UNL     1       5.378   4.223  18.363  0.00  0.00    +0.000 N 
ATOM      3  C   UNL     1       5.878   4.430  17.050  0.00  0.00    +0.000 A 
ATOM      4  C   UNL     1       5.035   4.204  15.956  0.00  0.00    +0.000 A 
ATOM      5  N   UNL     1       3.763   3.797  16.084  0.00  0.00    +0.000 NA
ATOM      6  C   UNL     1       3.336   3.594  17.334  0.00  0.00    +0.000 A 
ATOM      7  C   UNL     1       4.075   3.795  18.496  0.00  0.00    +0.000 A 
ATOM      8  C   UNL     1       3.205   3.518  19.647  0.00  0.00    +0.000 A 
ATOM      9  C   UNL     1       3.361   3.572  21.022  0.00  0.00    +0.000 A 
ATOM     10  C   UNL     1       2.260   3.248  21.844  0.00  0.00    +0.000 A 
ATOM     11  C   UNL     1       1.015   2.874  21.308  0.00  0.00    +0.000 A 
ATOM     12  C   UNL     1       0.841   2.820  19.937  0.00  0.00    +0.000 A 
ATOM     13  C   UNL     1       1.928   3.145  19.140  0.00  0.00    +0.000 A 
ATOM     14  C   UNL     1       1.919   3.181  17.634  0.00  0.00    +0.000 C 
ATOM     15  C   UNL     1       5.417   4.434  14.537  0.00  0.00    +0.000 C 
ATOM     16  C   UNL     1       6.848   4.810  14.235  0.00  0.00    +0.000 C 
ATOM     17  C   UNL     1       7.781   5.100  15.402  0.00  0.00    +0.000 C 
ATOM     18  C   UNL     1       7.287   4.907  16.849  0.00  0.00    +0.000 C 
ENDROOT
BRANCH  14  19
ATOM     19  O   UNL     1       0.977   4.147  17.200  0.00  0.00    +0.000 OA
ATOM     20  H   UNL     1       0.140   3.942  17.651  0.00  0.00    +0.000 HD
ENDBRANCH  14  19
TORSDOF 1
ENDMDL
MODEL 3
REMARK VINA RESULT:      -7.2      2.655      5.523
REMARK  Name = 
REMARK  1 active torsions:
REMARK  status: ('A' for Active; 'I' for Inactive)
REMARK    1  A    between atoms: C_14  and  O_15
REMARK                            x       y       z     vdW  Elec       q    Type
REMARK                         _______ _______ _______ _____ _____    ______ ____
ROOT
ATOM      1  O   UNL     1       3.611   6.496  16.992  0.00  0.00    +0.000 OA
ATOM      2  N   UNL     1       4.379   5.903  17.815  0.00  0.00    +0.000 N 
ATOM      3  C   UNL     1       5.705   6.369  18.019  0.00  0.00    +0.000 A 
ATOM      4  C   UNL     1       6.538   5.688  18.914  0.00  0.00    +0.000 A 
ATOM      5  N   UNL     1       6.143   4.604  19.599  0.00  0.00    +0.000 NA
ATOM      6  C   UNL     1       4.884   4.208  19.396  0.00  0.00    +0.000 A 
ATOM      7  C   UNL     1       3.969   4.796  18.526  0.00  0.00    +0.000 A 
ATOM      8  C   UNL     1       2.730   4.008  18.561  0.00  0.00    +0.000 A 
ATOM      9  C   UNL     1       1.510   4.079  17.909  0.00  0.00    +0.000 A 
ATOM     10  C   UNL     1       0.532   3.101  18.189  0.00  0.00    +0.000 A 
ATOM     11  C   UNL     1       0.760   2.060  19.108  0.00  0.00    +0.000 A 
ATOM     12  C   UNL     1       1.974   1.972  19.764  0.00  0.00    +0.000 A 
ATOM     13  C   UNL     1       2.930   2.936  19.478  0.00  0.00    +0.000 A 
ATOM     14  C   UNL     1       4.317   2.981  20.061  0.00  0.00    +0.000 C 
ATOM     15  C   UNL     1       7.959   6.040  19.176  0.00  0.00    +0.000 C 
ATOM     16  C   UNL     1       8.513   7.292  18.540  0.00  0.00    +0.000 C 
ATOM     17  C   UNL     1       7.647   8.035  17.533  0.00  0.00    +0.000 C 
ATOM     18  C   UNL     1       6.205   7.565  17.260  0.00  0.00    +0.000 C 
ENDROOT
BRANCH  14  19
ATOM     19  O   UNL     1       5.014   1.803  19.691  0.00  0.00    +0.000 OA
ATOM     20  H   UNL     1       4.352   1.092  19.644  0.00  0.00    +0.000 HD
ENDBRANCH  14  19
TORSDOF 1
ENDMDL
MODEL 4
REMARK VINA RESULT:      -7.1      1.152      1.174
REMARK  Name = 
REMARK  1 active torsions:
REMARK  status: ('A' for Active; 'I' for Inactive)
REMARK    1  A    between atoms: C_14  and  O_15
REMARK                            x       y       z     vdW  Elec       q    Type
REMARK                         _______ _______ _______ _____ _____    ______ ____
ROOT
ATOM      1  O   UNL     1       2.657   2.979  16.213  0.00  0.00    +0.000 OA
ATOM      2  N   UNL     1       3.281   3.766  16.994  0.00  0.00    +0.000 N 
ATOM      3  C   UNL     1       2.738   4.087  18.267  0.00  0.00    +0.000 A 
ATOM      4  C   UNL     1       3.432   4.971  19.101  0.00  0.00    +0.000 A 
ATOM      5  N   UNL     1       4.598   5.538  18.758  0.00  0.00    +0.000 NA
ATOM      6  C   UNL     1       5.087   5.195  17.562  0.00  0.00    +0.000 A 
ATOM      7  C   UNL     1       4.484   4.339  16.644  0.00  0.00    +0.000 A 
ATOM      8  C   UNL     1       5.323   4.294  15.439  0.00  0.00    +0.000 A 
ATOM      9  C   UNL     1       5.232   3.659  14.212  0.00  0.00    +0.000 A 
ATOM     10  C   UNL     1       6.249   3.877  13.258  0.00  0.00    +0.000 A 
ATOM     11  C   UNL     1       7.347   4.717  13.517  0.00  0.00    +0.000 A 
ATOM     12  C   UNL     1       7.450   5.362  14.736  0.00  0.00    +0.000 A 
ATOM     13  C   UNL     1       6.443   5.144  15.664  0.00  0.00    +0.000 A 
ATOM     14  C   UNL     1       6.363   5.787  17.023  0.00  0.00    +0.000 C 
ATOM     15  C   UNL     1       2.948   5.430  20.431  0.00  0.00    +0.000 C 
ATOM     16  C   UNL     1       1.690   4.806  20.987  0.00  0.00    +0.000 C 
ATOM     17  C   UNL     1       0.891   3.870  20.091  0.00  0.00    +0.000 C 
ATOM     18  C   UNL     1       1.424   3.499  18.693  0.00  0.00    +0.000 C 
ENDROOT
BRANCH  14  19
ATOM     19  O   UNL     1       6.276   7.193  16.867  0.00  0.00    +0.000 OA
ATOM     20  H   UNL     1       5.331   7.420  16.910  0.00  0.00    +0.000 HD
ENDBRANCH  14  19
TORSDOF 1
ENDMDL
MODEL 5
REMARK VINA RESULT:      -6.8      3.365      3.634
REMARK  Name = 
REMARK  1 active torsions:
REMARK  status: ('A' for Active; 'I' for Inactive)
REMARK    1  A    between atoms: C_14  and  O_15
REMARK                            x       y       z     vdW  Elec       q    Type
REMARK                         _______ _______ _______ _____ _____    ______ ____
ROOT
ATOM      1  O   UNL     1       3.185   8.498  16.899  0.00  0.00    +0.000 OA
ATOM      2  N   UNL     1       3.050   7.601  17.792  0.00  0.00    +0.000 N 
ATOM      3  C   UNL     1       2.251   7.851  18.940  0.00  0.00    +0.000 A 
ATOM      4  C   UNL     1       2.134   6.859  19.919  0.00  0.00    +0.000 A 
ATOM      5  N   UNL     1       2.745   5.667  19.829  0.00  0.00    +0.000 NA
ATOM      6  C   UNL     1       3.470   5.462  18.726  0.00  0.00    +0.000 A 
ATOM      7  C   UNL     1       3.669   6.375  17.693  0.00  0.00    +0.000 A 
ATOM      8  C   UNL     1       4.582   5.769  16.715  0.00  0.00    +0.000 A 
ATOM      9  C   UNL     1       5.157   6.189  15.527  0.00  0.00    +0.000 A 
ATOM     10  C   UNL     1       6.034   5.315  14.850  0.00  0.00    +0.000 A 
ATOM     11  C   UNL     1       6.339   4.034  15.345  0.00  0.00    +0.000 A 
ATOM     12  C   UNL     1       5.777   3.600  16.532  0.00  0.00    +0.000 A 
ATOM     13  C   UNL     1       4.921   4.470  17.191  0.00  0.00    +0.000 A 
ATOM     14  C   UNL     1       4.248   4.191  18.509  0.00  0.00    +0.000 C 
ATOM     15  C   UNL     1       1.375   7.013  21.189  0.00  0.00    +0.000 C 
ATOM     16  C   UNL     1       0.564   8.271  21.386  0.00  0.00    +0.000 C 
ATOM     17  C   UNL     1       0.698   9.387  20.359  0.00  0.00    +0.000 C 
ATOM     18  C   UNL     1       1.564   9.177  19.102  0.00  0.00    +0.000 C 
ENDROOT
BRANCH  14  19
ATOM     19  O   UNL     1       5.240   3.995  19.503  0.00  0.00    +0.000 OA
ATOM     20  H   UNL     1       5.771   4.809  19.531  0.00  0.00    +0.000 HD
ENDBRANCH  14  19
TORSDOF 1
ENDMDL
MODEL 6
REMARK VINA RESULT:      -6.8      4.529      6.834
REMARK  Name = 
REMARK  1 active torsions:
REMARK  status: ('A' for Active; 'I' for Inactive)
REMARK    1  A    between atoms: C_14  and  O_15
REMARK                            x       y       z     vdW  Elec       q    Type
REMARK                         _______ _______ _______ _____ _____    ______ ____
ROOT
ATOM      1  O   UNL     1       3.274   5.662  20.297  0.00  0.00    +0.000 OA
ATOM      2  N   UNL     1       3.295   6.343  19.222  0.00  0.00    +0.000 N 
ATOM      3  C   UNL     1       4.161   5.973  18.158  0.00  0.00    +0.000 A 
ATOM      4  C   UNL     1       4.181   6.748  16.994  0.00  0.00    +0.000 A 
ATOM      5  N   UNL     1       3.415   7.837  16.827  0.00  0.00    +0.000 NA
ATOM      6  C   UNL     1       2.599   8.141  17.841  0.00  0.00    +0.000 A 
ATOM      7  C   UNL     1       2.500   7.454  19.048  0.00  0.00    +0.000 A 
ATOM      8  C   UNL     1       1.536   8.162  19.900  0.00  0.00    +0.000 A 
ATOM      9  C   UNL     1       1.055   7.982  21.187  0.00  0.00    +0.000 A 
ATOM     10  C   UNL     1       0.121   8.908  21.699  0.00  0.00    +0.000 A 
ATOM     11  C   UNL     1      -0.333  10.004  20.945  0.00  0.00    +0.000 A 
ATOM     12  C   UNL     1       0.141  10.202  19.660  0.00  0.00    +0.000 A 
ATOM     13  C   UNL     1       1.061   9.288  19.168  0.00  0.00    +0.000 A 
ATOM     14  C   UNL     1       1.715   9.360  17.814  0.00  0.00    +0.000 C 
ATOM     15  C   UNL     1       5.078   6.502  15.833  0.00  0.00    +0.000 C 
ATOM     16  C   UNL     1       5.933   5.258  15.844  0.00  0.00    +0.000 C 
ATOM     17  C   UNL     1       5.964   4.413  17.110  0.00  0.00    +0.000 C 
ATOM     18  C   UNL     1       5.057   4.776  18.302  0.00  0.00    +0.000 C 
ENDROOT
BRANCH  14  19
ATOM     19  O   UNL     1       2.463  10.561  17.724  0.00  0.00    +0.000 OA
ATOM     20  H   UNL     1       3.269  10.350  17.221  0.00  0.00    +0.000 HD
ENDBRANCH  14  19
TORSDOF 1
ENDMDL
MODEL 7
REMARK VINA RESULT:      -6.7      4.275      4.643
REMARK  Name = 
REMARK  1 active torsions:
REMARK  status: ('A' for Active; 'I' for Inactive)
REMARK    1  A    between atoms: C_14  and  O_15
REMARK                            x       y       z     vdW  Elec       q    Type
REMARK                         _______ _______ _______ _____ _____    ______ ____
ROOT
ATOM      1  O   UNL     1       2.596   9.308  17.223  0.00  0.00    +0.000 OA
ATOM      2  N   UNL     1       2.398   8.499  18.185  0.00  0.00    +0.000 N 
ATOM      3  C   UNL     1       1.564   8.873  19.272  0.00  0.00    +0.000 A 
ATOM      4  C   UNL     1       1.377   7.975  20.328  0.00  0.00    +0.000 A 
ATOM      5  N   UNL     1       1.951   6.763  20.368  0.00  0.00    +0.000 NA
ATOM      6  C   UNL     1       2.712   6.439  19.318  0.00  0.00    +0.000 A 
ATOM      7  C   UNL     1       2.980   7.251  18.219  0.00  0.00    +0.000 A 
ATOM      8  C   UNL     1       3.910   6.534  17.336  0.00  0.00    +0.000 A 
ATOM      9  C   UNL     1       4.544   6.831  16.140  0.00  0.00    +0.000 A 
ATOM     10  C   UNL     1       5.417   5.875  15.579  0.00  0.00    +0.000 A 
ATOM     11  C   UNL     1       5.660   4.635  16.195  0.00  0.00    +0.000 A 
ATOM     12  C   UNL     1       5.039   4.324  17.392  0.00  0.00    +0.000 A 
ATOM     13  C   UNL     1       4.187   5.273  17.937  0.00  0.00    +0.000 A 
ATOM     14  C   UNL     1       3.455   5.132  19.245  0.00  0.00    +0.000 C 
ATOM     15  C   UNL     1       0.576   8.263  21.548  0.00  0.00    +0.000 C 
ATOM     16  C   UNL     1      -0.201   9.557  21.601  0.00  0.00    +0.000 C 
ATOM     17  C   UNL     1       0.009  10.573  20.487  0.00  0.00    +0.000 C 
ATOM     18  C   UNL     1       0.915  10.227  19.290  0.00  0.00    +0.000 C 
ENDROOT
BRANCH  14  19
ATOM     19  O   UNL     1       4.401   4.995  20.293  0.00  0.00    +0.000 OA
ATOM     20  H   UNL     1       5.106   4.415  19.957  0.00  0.00    +0.000 HD
ENDBRANCH  14  19
TORSDOF 1
ENDMDL
MODEL 8
REMARK VINA RESULT:      -6.6      5.686      7.201
REMARK  Name = 
REMARK  1 active torsions:
REMARK  status: ('A' for Active; 'I' for Inactive)
REMARK    1  A    between atoms: C_14  and  O_15
REMARK                            x       y       z     vdW  Elec       q    Type
REMARK                         _______ _______ _______ _____ _____    ______ ____
ROOT
ATOM      1  O   UNL     1       2.553   8.607  17.325  0.00  0.00    +0.000 OA
ATOM      2  N   UNL     1       2.287   8.031  18.428  0.00  0.00    +0.000 N 
ATOM      3  C   UNL     1       2.721   6.699  18.661  0.00  0.00    +0.000 A 
ATOM      4  C   UNL     1       2.398   6.078  19.873  0.00  0.00    +0.000 A 
ATOM      5  N   UNL     1       1.692   6.684  20.839  0.00  0.00    +0.000 NA
ATOM      6  C   UNL     1       1.319   7.943  20.592  0.00  0.00    +0.000 A 
ATOM      7  C   UNL     1       1.570   8.658  19.424  0.00  0.00    +0.000 A 
ATOM      8  C   UNL     1       0.929   9.974  19.545  0.00  0.00    +0.000 A 
ATOM      9  C   UNL     1       0.807  11.079  18.719  0.00  0.00    +0.000 A 
ATOM     10  C   UNL     1       0.072  12.193  19.178  0.00  0.00    +0.000 A 
ATOM     11  C   UNL     1      -0.538  12.213  20.445  0.00  0.00    +0.000 A 
ATOM     12  C   UNL     1      -0.430  11.116  21.280  0.00  0.00    +0.000 A 
ATOM     13  C   UNL     1       0.291  10.025  20.817  0.00  0.00    +0.000 A 
ATOM     14  C   UNL     1       0.483   8.732  21.564  0.00  0.00    +0.000 C 
ATOM     15  C   UNL     1       2.745   4.673  20.218  0.00  0.00    +0.000 C 
ATOM     16  C   UNL     1       3.617   3.897  19.260  0.00  0.00    +0.000 C 
ATOM     17  C   UNL     1       3.954   4.528  17.917  0.00  0.00    +0.000 C 
ATOM     18  C   UNL     1       3.495   5.966  17.603  0.00  0.00    +0.000 C 
ENDROOT
BRANCH  14  19
ATOM     19  O   UNL     1      -0.783   8.134  21.790  0.00  0.00    +0.000 OA
ATOM     20  H   UNL     1      -0.746   7.247  21.392  0.00  0.00    +0.000 HD
ENDBRANCH  14  19
TORSDOF 1
ENDMDL
MODEL 9
REMARK VINA RESULT:      -6.5      6.912      8.836
REMARK  Name = 
REMARK  1 active torsions:
REMARK  status: ('A' for Active; 'I' for Inactive)
REMARK    1  A    between atoms: C_14  and  O_15
REMARK                            x       y       z     vdW  Elec       q    Type
REMARK                         _______ _______ _______ _____ _____    ______ ____
ROOT
ATOM      1  O   UNL     1       0.993  10.524  18.178  0.00  0.00    +0.000 OA
ATOM      2  N   UNL     1       1.118   9.713  19.151  0.00  0.00    +0.000 N 
ATOM      3  C   UNL     1       1.860   8.512  18.989  0.00  0.00    +0.000 A 
ATOM      4  C   UNL     1       1.967   7.626  20.066  0.00  0.00    +0.000 A 
ATOM      5  N   UNL     1       1.398   7.854  21.259  0.00  0.00    +0.000 NA
ATOM      6  C   UNL     1       0.726   9.002  21.379  0.00  0.00    +0.000 A 
ATOM      7  C   UNL     1       0.542   9.953  20.379  0.00  0.00    +0.000 A 
ATOM      8  C   UNL     1      -0.310  11.023  20.914  0.00  0.00    +0.000 A 
ATOM      9  C   UNL     1      -0.848  12.191  20.399  0.00  0.00    +0.000 A 
ATOM     10  C   UNL     1      -1.668  12.985  21.229  0.00  0.00    +0.000 A 
ATOM     11  C   UNL     1      -1.953  12.626  22.558  0.00  0.00    +0.000 A 
ATOM     12  C   UNL     1      -1.429  11.461  23.087  0.00  0.00    +0.000 A 
ATOM     13  C   UNL     1      -0.628  10.686  22.261  0.00  0.00    +0.000 A 
ATOM     14  C   UNL     1      -0.002   9.371  22.645  0.00  0.00    +0.000 C 
ATOM     15  C   UNL     1       2.667   6.314  20.012  0.00  0.00    +0.000 C 
ATOM     16  C   UNL     1       3.430   5.965  18.756  0.00  0.00    +0.000 C 
ATOM     17  C   UNL     1       3.304   6.888  17.553  0.00  0.00    +0.000 C 
ATOM     18  C   UNL     1       2.498   8.197  17.666  0.00  0.00    +0.000 C 
ENDROOT
BRANCH  14  19
ATOM     19  O   UNL     1      -1.028   8.445  22.961  0.00  0.00    +0.000 OA
ATOM     20  H   UNL     1      -1.223   7.955  22.143  0.00  0.00    +0.000 HD
ENDBRANCH  14  19
TORSDOF 1
ENDMDL
