MODEL 1
REMARK VINA RESULT:      -8.7      0.000      0.000
REMARK  Name = 
REMARK  4 active torsions:
REMARK  status: ('A' for Active; 'I' for Inactive)
REMARK    1  A    between atoms: N_6  and  C_7
REMARK    2  A    between atoms: C_7  and  C_8
REMARK    3  A    between atoms: C_15  and  N_16
REMARK    4  A    between atoms: N_16  and  C_17
REMARK                            x       y       z     vdW  Elec       q    Type
REMARK                         _______ _______ _______ _____ _____    ______ ____
ROOT
ATOM      1  O   UNL     1       8.227   4.145  16.936  0.00  0.00    +0.000 OA
ATOM      2  C   UNL     1       7.181   4.604  17.392  0.00  0.00    +0.000 A 
ATOM      3  N   UNL     1       6.703   4.264  18.623  0.00  0.00    +0.000 N 
ATOM      4  C   UNL     1       5.512   4.674  19.168  0.00  0.00    +0.000 A 
ATOM      5  O   UNL     1       5.132   4.204  20.237  0.00  0.00    +0.000 OA
ATOM      6  N   UNL     1       4.804   5.605  18.421  0.00  0.00    +0.000 N 
ATOM      7  C   UNL     1       5.250   6.040  17.189  0.00  0.00    +0.000 A 
ATOM      8  C   UNL     1       6.347   5.559  16.591  0.00  0.00    +0.000 A 
ATOM      9  H   UNL     1       7.233   3.592  19.153  0.00  0.00    +0.000 HD
ENDROOT
BRANCH   8  10
ATOM     10  N   UNL     1       6.775   5.850  15.301  0.00  0.00    +0.000 N 
ATOM     11  H   UNL     1       7.763   6.126  15.317  0.00  0.00    +0.000 HD
BRANCH  10  12
ATOM     12  C   UNL     1       6.560   4.985  14.193  0.00  0.00    +0.000 A 
ATOM     13  C   UNL     1       5.429   4.165  14.053  0.00  0.00    +0.000 A 
ATOM     14  C   UNL     1       5.270   3.334  12.941  0.00  0.00    +0.000 A 
ATOM     15  C   UNL     1       6.233   3.321  11.940  0.00  0.00    +0.000 A 
ATOM     16  C   UNL     1       7.346   4.153  12.040  0.00  0.00    +0.000 A 
ATOM     17  C   UNL     1       7.501   4.986  13.152  0.00  0.00    +0.000 A 
ENDBRANCH  10  12
ENDBRANCH   8  10
BRANCH   6  18
ATOM     18  C   UNL     1       3.513   6.085  18.919  0.00  0.00    +0.000 C 
BRANCH  18  19
ATOM     19  C   UNL     1       2.505   4.974  19.080  0.00  0.00    +0.000 A 
ATOM     20  C   UNL     1       1.851   4.763  20.302  0.00  0.00    +0.000 A 
ATOM     21  C   UNL     1       0.961   3.698  20.452  0.00  0.00    +0.000 A 
ATOM     22  C   UNL     1       0.713   2.837  19.383  0.00  0.00    +0.000 A 
ATOM     23  C   UNL     1       1.344   3.048  18.160  0.00  0.00    +0.000 A 
ATOM     24  C   UNL     1       2.235   4.110  18.008  0.00  0.00    +0.000 A 
ENDBRANCH  18  19
ENDBRANCH   6  18
TORSDOF 4
ENDMDL
MODEL 2
REMARK VINA RESULT:      -8.7      1.478      2.492
REMARK  Name = 
REMARK  4 active torsions:
REMARK  status: ('A' for Active; 'I' for Inactive)
REMARK    1  A    between atoms: N_6  and  C_7
REMARK    2  A    between atoms: C_7  and  C_8
REMARK    3  A    between atoms: C_15  and  N_16
REMARK    4  A    between atoms: N_16  and  C_17
REMARK                            x       y       z     vdW  Elec       q    Type
REMARK                         _______ _______ _______ _____ _____    ______ ____
ROOT
ATOM      1  O   UNL     1       8.235   4.207  17.657  0.00  0.00    +0.000 OA
ATOM      2  C   UNL     1       7.029   4.439  17.713  0.00  0.00    +0.000 A 
ATOM      3  N   UNL     1       6.242   4.000  18.736  0.00  0.00    +0.000 N 
ATOM      4  C   UNL     1       4.881   4.154  18.832  0.00  0.00    +0.000 A 
ATOM      5  O   UNL     1       4.264   3.608  19.742  0.00  0.00    +0.000 OA
ATOM      6  N   UNL     1       4.299   4.927  17.838  0.00  0.00    +0.000 N 
ATOM      7  C   UNL     1       5.038   5.454  16.798  0.00  0.00    +0.000 A 
ATOM      8  C   UNL     1       6.344   5.212  16.626  0.00  0.00    +0.000 A 
ATOM      9  H   UNL     1       6.683   3.445  19.451  0.00  0.00    +0.000 HD
ENDROOT
BRANCH   8  10
ATOM     10  N   UNL     1       7.114   5.594  15.534  0.00  0.00    +0.000 N 
ATOM     11  H   UNL     1       8.105   5.620  15.800  0.00  0.00    +0.000 HD
BRANCH  10  12
ATOM     12  C   UNL     1       7.001   4.993  14.250  0.00  0.00    +0.000 A 
ATOM     13  C   UNL     1       7.804   5.343  13.153  0.00  0.00    +0.000 A 
ATOM     14  C   UNL     1       7.649   4.719  11.913  0.00  0.00    +0.000 A 
ATOM     15  C   UNL     1       6.699   3.718  11.753  0.00  0.00    +0.000 A 
ATOM     16  C   UNL     1       5.916   3.328  12.838  0.00  0.00    +0.000 A 
ATOM     17  C   UNL     1       6.075   3.954  14.078  0.00  0.00    +0.000 A 
ENDBRANCH  10  12
ENDBRANCH   8  10
BRANCH   6  18
ATOM     18  C   UNL     1       2.848   5.131  17.852  0.00  0.00    +0.000 C 
BRANCH  18  19
ATOM     19  C   UNL     1       2.452   6.430  18.509  0.00  0.00    +0.000 A 
ATOM     20  C   UNL     1       2.170   6.490  19.881  0.00  0.00    +0.000 A 
ATOM     21  C   UNL     1       1.754   7.687  20.466  0.00  0.00    +0.000 A 
ATOM     22  C   UNL     1       1.618   8.835  19.687  0.00  0.00    +0.000 A 
ATOM     23  C   UNL     1       1.911   8.792  18.326  0.00  0.00    +0.000 A 
ATOM     24  C   UNL     1       2.326   7.597  17.740  0.00  0.00    +0.000 A 
ENDBRANCH  18  19
ENDBRANCH   6  18
TORSDOF 4
ENDMDL
MODEL 3
REMARK VINA RESULT:      -8.7      0.084      1.033
REMARK  Name = 
REMARK  4 active torsions:
REMARK  status: ('A' for Active; 'I' for Inactive)
REMARK    1  A    between atoms: N_6  and  C_7
REMARK    2  A    between atoms: C_7  and  C_8
REMARK    3  A    between atoms: C_15  and  N_16
REMARK    4  A    between atoms: N_16  and  C_17
REMARK                            x       y       z     vdW  Elec       q    Type
REMARK                         _______ _______ _______ _____ _____    ______ ____
ROOT
ATOM      1  O   UNL     1       8.277   4.156  16.890  0.00  0.00    +0.000 OA
ATOM      2  C   UNL     1       7.236   4.609  17.363  0.00  0.00    +0.000 A 
ATOM      3  N   UNL     1       6.786   4.275  18.606  0.00  0.00    +0.000 N 
ATOM      4  C   UNL     1       5.602   4.678  19.171  0.00  0.00    +0.000 A 
ATOM      5  O   UNL     1       5.248   4.214  20.252  0.00  0.00    +0.000 OA
ATOM      6  N   UNL     1       4.870   5.596  18.431  0.00  0.00    +0.000 N 
ATOM      7  C   UNL     1       5.287   6.024  17.186  0.00  0.00    +0.000 A 
ATOM      8  C   UNL     1       6.377   5.549  16.570  0.00  0.00    +0.000 A 
ATOM      9  H   UNL     1       7.333   3.613  19.132  0.00  0.00    +0.000 HD
ENDROOT
BRANCH   8  10
ATOM     10  N   UNL     1       6.776   5.833  15.270  0.00  0.00    +0.000 N 
ATOM     11  H   UNL     1       7.767   6.100  15.261  0.00  0.00    +0.000 HD
BRANCH  10  12
ATOM     12  C   UNL     1       6.527   4.966  14.170  0.00  0.00    +0.000 A 
ATOM     13  C   UNL     1       5.368   4.184  14.042  0.00  0.00    +0.000 A 
ATOM     14  C   UNL     1       5.176   3.349  12.938  0.00  0.00    +0.000 A 
ATOM     15  C   UNL     1       6.133   3.296  11.932  0.00  0.00    +0.000 A 
ATOM     16  C   UNL     1       7.273   4.092  12.020  0.00  0.00    +0.000 A 
ATOM     17  C   UNL     1       7.462   4.928  13.124  0.00  0.00    +0.000 A 
ENDBRANCH  10  12
ENDBRANCH   8  10
BRANCH   6  18
ATOM     18  C   UNL     1       3.584   6.068  18.950  0.00  0.00    +0.000 C 
BRANCH  18  19
ATOM     19  C   UNL     1       2.585   4.951  19.125  0.00  0.00    +0.000 A 
ATOM     20  C   UNL     1       2.280   4.083  18.067  0.00  0.00    +0.000 A 
ATOM     21  C   UNL     1       1.314   3.087  18.227  0.00  0.00    +0.000 A 
ATOM     22  C   UNL     1       0.648   2.948  19.444  0.00  0.00    +0.000 A 
ATOM     23  C   UNL     1       0.956   3.793  20.506  0.00  0.00    +0.000 A 
ATOM     24  C   UNL     1       1.919   4.790  20.349  0.00  0.00    +0.000 A 
ENDBRANCH  18  19
ENDBRANCH   6  18
TORSDOF 4
ENDMDL
MODEL 4
REMARK VINA RESULT:      -8.6      1.422      2.578
REMARK  Name = 
REMARK  4 active torsions:
REMARK  status: ('A' for Active; 'I' for Inactive)
REMARK    1  A    between atoms: N_6  and  C_7
REMARK    2  A    between atoms: C_7  and  C_8
REMARK    3  A    between atoms: C_15  and  N_16
REMARK    4  A    between atoms: N_16  and  C_17
REMARK                            x       y       z     vdW  Elec       q    Type
REMARK                         _______ _______ _______ _____ _____    ______ ____
ROOT
ATOM      1  O   UNL     1       8.232   4.215  17.622  0.00  0.00    +0.000 OA
ATOM      2  C   UNL     1       7.020   4.415  17.685  0.00  0.00    +0.000 A 
ATOM      3  N   UNL     1       6.249   3.949  18.708  0.00  0.00    +0.000 N 
ATOM      4  C   UNL     1       4.885   4.067  18.810  0.00  0.00    +0.000 A 
ATOM      5  O   UNL     1       4.286   3.499  19.719  0.00  0.00    +0.000 OA
ATOM      6  N   UNL     1       4.278   4.832  17.824  0.00  0.00    +0.000 N 
ATOM      7  C   UNL     1       5.000   5.384  16.784  0.00  0.00    +0.000 A 
ATOM      8  C   UNL     1       6.310   5.177  16.605  0.00  0.00    +0.000 A 
ATOM      9  H   UNL     1       6.707   3.401  19.418  0.00  0.00    +0.000 HD
ENDROOT
BRANCH   8  10
ATOM     10  N   UNL     1       7.066   5.587  15.513  0.00  0.00    +0.000 N 
ATOM     11  H   UNL     1       8.056   5.646  15.779  0.00  0.00    +0.000 HD
BRANCH  10  12
ATOM     12  C   UNL     1       6.973   4.983  14.229  0.00  0.00    +0.000 A 
ATOM     13  C   UNL     1       7.776   5.348  13.137  0.00  0.00    +0.000 A 
ATOM     14  C   UNL     1       7.641   4.721  11.896  0.00  0.00    +0.000 A 
ATOM     15  C   UNL     1       6.711   3.702  11.730  0.00  0.00    +0.000 A 
ATOM     16  C   UNL     1       5.928   3.298  12.810  0.00  0.00    +0.000 A 
ATOM     17  C   UNL     1       6.068   3.926  14.052  0.00  0.00    +0.000 A 
ENDBRANCH  10  12
ENDBRANCH   8  10
BRANCH   6  18
ATOM     18  C   UNL     1       2.823   4.997  17.844  0.00  0.00    +0.000 C 
BRANCH  18  19
ATOM     19  C   UNL     1       2.395   6.270  18.533  0.00  0.00    +0.000 A 
ATOM     20  C   UNL     1       2.316   7.481  17.830  0.00  0.00    +0.000 A 
ATOM     21  C   UNL     1       1.970   8.660  18.492  0.00  0.00    +0.000 A 
ATOM     22  C   UNL     1       1.698   8.641  19.859  0.00  0.00    +0.000 A 
ATOM     23  C   UNL     1       1.756   7.441  20.563  0.00  0.00    +0.000 A 
ATOM     24  C   UNL     1       2.103   6.262  19.905  0.00  0.00    +0.000 A 
ENDBRANCH  18  19
ENDBRANCH   6  18
TORSDOF 4
ENDMDL
MODEL 5
REMARK VINA RESULT:      -8.6      0.146      1.032
REMARK  Name = 
REMARK  4 active torsions:
REMARK  status: ('A' for Active; 'I' for Inactive)
REMARK    1  A    between atoms: N_6  and  C_7
REMARK    2  A    between atoms: C_7  and  C_8
REMARK    3  A    between atoms: C_15  and  N_16
REMARK    4  A    between atoms: N_16  and  C_17
REMARK                            x       y       z     vdW  Elec       q    Type
REMARK                         _______ _______ _______ _____ _____    ______ ____
ROOT
ATOM      1  O   UNL     1       8.153   4.133  16.750  0.00  0.00    +0.000 OA
ATOM      2  C   UNL     1       7.139   4.598  17.266  0.00  0.00    +0.000 A 
ATOM      3  N   UNL     1       6.714   4.236  18.510  0.00  0.00    +0.000 N 
ATOM      4  C   UNL     1       5.557   4.653  19.121  0.00  0.00    +0.000 A 
ATOM      5  O   UNL     1       5.219   4.163  20.195  0.00  0.00    +0.000 OA
ATOM      6  N   UNL     1       4.833   5.615  18.432  0.00  0.00    +0.000 N 
ATOM      7  C   UNL     1       5.228   6.073  17.191  0.00  0.00    +0.000 A 
ATOM      8  C   UNL     1       6.287   5.588  16.529  0.00  0.00    +0.000 A 
ATOM      9  H   UNL     1       7.255   3.541  18.998  0.00  0.00    +0.000 HD
ENDROOT
BRANCH   8  10
ATOM     10  N   UNL     1       6.658   5.904  15.228  0.00  0.00    +0.000 N 
ATOM     11  H   UNL     1       7.626   6.246  15.217  0.00  0.00    +0.000 HD
BRANCH  10  12
ATOM     12  C   UNL     1       6.473   5.023  14.127  0.00  0.00    +0.000 A 
ATOM     13  C   UNL     1       7.432   4.819  13.123  0.00  0.00    +0.000 A 
ATOM     14  C   UNL     1       7.196   3.940  12.063  0.00  0.00    +0.000 A 
ATOM     15  C   UNL     1       6.000   3.234  11.998  0.00  0.00    +0.000 A 
ATOM     16  C   UNL     1       5.049   3.393  13.004  0.00  0.00    +0.000 A 
ATOM     17  C   UNL     1       5.290   4.272  14.065  0.00  0.00    +0.000 A 
ENDBRANCH  10  12
ENDBRANCH   8  10
BRANCH   6  18
ATOM     18  C   UNL     1       3.576   6.105  19.002  0.00  0.00    +0.000 C 
BRANCH  18  19
ATOM     19  C   UNL     1       2.540   5.017  19.142  0.00  0.00    +0.000 A 
ATOM     20  C   UNL     1       1.933   4.752  20.378  0.00  0.00    +0.000 A 
ATOM     21  C   UNL     1       1.016   3.707  20.505  0.00  0.00    +0.000 A 
ATOM     22  C   UNL     1       0.695   2.920  19.400  0.00  0.00    +0.000 A 
ATOM     23  C   UNL     1       1.279   3.185  18.164  0.00  0.00    +0.000 A 
ATOM     24  C   UNL     1       2.197   4.227  18.035  0.00  0.00    +0.000 A 
ENDBRANCH  18  19
ENDBRANCH   6  18
TORSDOF 4
ENDMDL
MODEL 6
REMARK VINA RESULT:      -8.4      0.237      1.469
REMARK  Name = 
REMARK  4 active torsions:
REMARK  status: ('A' for Active; 'I' for Inactive)
REMARK    1  A    between atoms: N_6  and  C_7
REMARK    2  A    between atoms: C_7  and  C_8
REMARK    3  A    between atoms: C_15  and  N_16
REMARK    4  A    between atoms: N_16  and  C_17
REMARK                            x       y       z     vdW  Elec       q    Type
REMARK                         _______ _______ _______ _____ _____    ______ ____
ROOT
ATOM      1  O   UNL     1       8.103   4.293  16.613  0.00  0.00    +0.000 OA
ATOM      2  C   UNL     1       7.099   4.686  17.204  0.00  0.00    +0.000 A 
ATOM      3  N   UNL     1       6.771   4.263  18.459  0.00  0.00    +0.000 N 
ATOM      4  C   UNL     1       5.634   4.597  19.151  0.00  0.00    +0.000 A 
ATOM      5  O   UNL     1       5.389   4.057  20.227  0.00  0.00    +0.000 OA
ATOM      6  N   UNL     1       4.818   5.537  18.539  0.00  0.00    +0.000 N 
ATOM      7  C   UNL     1       5.112   6.054  17.292  0.00  0.00    +0.000 A 
ATOM      8  C   UNL     1       6.152   5.649  16.553  0.00  0.00    +0.000 A 
ATOM      9  H   UNL     1       7.378   3.585  18.890  0.00  0.00    +0.000 HD
ENDROOT
BRANCH   8  10
ATOM     10  N   UNL     1       6.425   6.024  15.244  0.00  0.00    +0.000 N 
ATOM     11  H   UNL     1       7.309   6.545  15.209  0.00  0.00    +0.000 HD
BRANCH  10  12
ATOM     12  C   UNL     1       6.386   5.118  14.147  0.00  0.00    +0.000 A 
ATOM     13  C   UNL     1       7.418   4.992  13.204  0.00  0.00    +0.000 A 
ATOM     14  C   UNL     1       7.326   4.085  12.146  0.00  0.00    +0.000 A 
ATOM     15  C   UNL     1       6.205   3.272  12.023  0.00  0.00    +0.000 A 
ATOM     16  C   UNL     1       5.185   3.354  12.969  0.00  0.00    +0.000 A 
ATOM     17  C   UNL     1       5.282   4.262  14.028  0.00  0.00    +0.000 A 
ENDBRANCH  10  12
ENDBRANCH   8  10
BRANCH   6  18
ATOM     18  C   UNL     1       3.574   5.940  19.199  0.00  0.00    +0.000 C 
BRANCH  18  19
ATOM     19  C   UNL     1       2.585   4.806  19.312  0.00  0.00    +0.000 A 
ATOM     20  C   UNL     1       2.207   4.062  18.185  0.00  0.00    +0.000 A 
ATOM     21  C   UNL     1       1.251   3.050  18.295  0.00  0.00    +0.000 A 
ATOM     22  C   UNL     1       0.668   2.770  19.530  0.00  0.00    +0.000 A 
ATOM     23  C   UNL     1       1.049   3.491  20.659  0.00  0.00    +0.000 A 
ATOM     24  C   UNL     1       2.002   4.503  20.552  0.00  0.00    +0.000 A 
ENDBRANCH  18  19
ENDBRANCH   6  18
TORSDOF 4
ENDMDL
MODEL 7
REMARK VINA RESULT:      -8.2      1.584      6.325
REMARK  Name = 
REMARK  4 active torsions:
REMARK  status: ('A' for Active; 'I' for Inactive)
REMARK    1  A    between atoms: N_6  and  C_7
REMARK    2  A    between atoms: C_7  and  C_8
REMARK    3  A    between atoms: C_15  and  N_16
REMARK    4  A    between atoms: N_16  and  C_17
REMARK                            x       y       z     vdW  Elec       q    Type
REMARK                         _______ _______ _______ _____ _____    ______ ____
ROOT
ATOM      1  O   UNL     1       7.294   5.066  20.414  0.00  0.00    +0.000 OA
ATOM      2  C   UNL     1       6.890   5.282  19.273  0.00  0.00    +0.000 A 
ATOM      3  N   UNL     1       7.399   6.274  18.487  0.00  0.00    +0.000 N 
ATOM      4  C   UNL     1       6.951   6.623  17.237  0.00  0.00    +0.000 A 
ATOM      5  O   UNL     1       7.409   7.615  16.676  0.00  0.00    +0.000 OA
ATOM      6  N   UNL     1       5.966   5.803  16.707  0.00  0.00    +0.000 N 
ATOM      7  C   UNL     1       5.439   4.744  17.419  0.00  0.00    +0.000 A 
ATOM      8  C   UNL     1       5.778   4.465  18.684  0.00  0.00    +0.000 A 
ATOM      9  H   UNL     1       8.117   6.855  18.887  0.00  0.00    +0.000 HD
ENDROOT
BRANCH   8  10
ATOM     10  N   UNL     1       5.192   3.506  19.500  0.00  0.00    +0.000 N 
ATOM     11  H   UNL     1       5.553   3.596  20.456  0.00  0.00    +0.000 HD
BRANCH  10  12
ATOM     12  C   UNL     1       3.788   3.286  19.561  0.00  0.00    +0.000 A 
ATOM     13  C   UNL     1       3.146   2.181  18.978  0.00  0.00    +0.000 A 
ATOM     14  C   UNL     1       1.762   2.016  19.070  0.00  0.00    +0.000 A 
ATOM     15  C   UNL     1       0.996   2.944  19.764  0.00  0.00    +0.000 A 
ATOM     16  C   UNL     1       1.615   4.028  20.383  0.00  0.00    +0.000 A 
ATOM     17  C   UNL     1       3.001   4.190  20.291  0.00  0.00    +0.000 A 
ENDBRANCH  10  12
ENDBRANCH   8  10
BRANCH   6  18
ATOM     18  C   UNL     1       5.417   6.112  15.384  0.00  0.00    +0.000 C 
BRANCH  18  19
ATOM     19  C   UNL     1       5.964   5.209  14.306  0.00  0.00    +0.000 A 
ATOM     20  C   UNL     1       7.247   5.409  13.777  0.00  0.00    +0.000 A 
ATOM     21  C   UNL     1       7.719   4.598  12.743  0.00  0.00    +0.000 A 
ATOM     22  C   UNL     1       6.916   3.581  12.230  0.00  0.00    +0.000 A 
ATOM     23  C   UNL     1       5.647   3.362  12.759  0.00  0.00    +0.000 A 
ATOM     24  C   UNL     1       5.173   4.171  13.791  0.00  0.00    +0.000 A 
ENDBRANCH  18  19
ENDBRANCH   6  18
TORSDOF 4
ENDMDL
MODEL 8
REMARK VINA RESULT:      -8.1      1.727      2.303
REMARK  Name = 
REMARK  4 active torsions:
REMARK  status: ('A' for Active; 'I' for Inactive)
REMARK    1  A    between atoms: N_6  and  C_7
REMARK    2  A    between atoms: C_7  and  C_8
REMARK    3  A    between atoms: C_15  and  N_16
REMARK    4  A    between atoms: N_16  and  C_17
REMARK                            x       y       z     vdW  Elec       q    Type
REMARK                         _______ _______ _______ _____ _____    ______ ____
ROOT
ATOM      1  O   UNL     1       6.747   7.290  16.794  0.00  0.00    +0.000 OA
ATOM      2  C   UNL     1       5.702   6.672  16.994  0.00  0.00    +0.000 A 
ATOM      3  N   UNL     1       4.639   7.217  17.651  0.00  0.00    +0.000 N 
ATOM      4  C   UNL     1       3.474   6.569  17.977  0.00  0.00    +0.000 A 
ATOM      5  O   UNL     1       2.635   7.130  18.678  0.00  0.00    +0.000 OA
ATOM      6  N   UNL     1       3.351   5.279  17.483  0.00  0.00    +0.000 N 
ATOM      7  C   UNL     1       4.362   4.677  16.761  0.00  0.00    +0.000 A 
ATOM      8  C   UNL     1       5.551   5.251  16.539  0.00  0.00    +0.000 A 
ATOM      9  H   UNL     1       4.744   8.156  17.997  0.00  0.00    +0.000 HD
ENDROOT
BRANCH   8  10
ATOM     10  N   UNL     1       6.655   4.653  15.943  0.00  0.00    +0.000 N 
ATOM     11  H   UNL     1       6.840   3.746  16.386  0.00  0.00    +0.000 HD
BRANCH  10  12
ATOM     12  C   UNL     1       6.801   4.511  14.535  0.00  0.00    +0.000 A 
ATOM     13  C   UNL     1       6.084   3.580  13.767  0.00  0.00    +0.000 A 
ATOM     14  C   UNL     1       6.268   3.485  12.385  0.00  0.00    +0.000 A 
ATOM     15  C   UNL     1       7.162   4.334  11.744  0.00  0.00    +0.000 A 
ATOM     16  C   UNL     1       7.857   5.291  12.480  0.00  0.00    +0.000 A 
ATOM     17  C   UNL     1       7.669   5.385  13.863  0.00  0.00    +0.000 A 
ENDBRANCH  10  12
ENDBRANCH   8  10
BRANCH   6  18
ATOM     18  C   UNL     1       2.146   4.507  17.796  0.00  0.00    +0.000 C 
BRANCH  18  19
ATOM     19  C   UNL     1       2.219   3.845  19.150  0.00  0.00    +0.000 A 
ATOM     20  C   UNL     1       3.392   3.209  19.582  0.00  0.00    +0.000 A 
ATOM     21  C   UNL     1       3.428   2.555  20.815  0.00  0.00    +0.000 A 
ATOM     22  C   UNL     1       2.296   2.532  21.627  0.00  0.00    +0.000 A 
ATOM     23  C   UNL     1       1.131   3.174  21.216  0.00  0.00    +0.000 A 
ATOM     24  C   UNL     1       1.092   3.827  19.985  0.00  0.00    +0.000 A 
ENDBRANCH  18  19
ENDBRANCH   6  18
TORSDOF 4
ENDMDL
MODEL 9
REMARK VINA RESULT:      -8.1      1.715      2.461
REMARK  Name = 
REMARK  4 active torsions:
REMARK  status: ('A' for Active; 'I' for Inactive)
REMARK    1  A    between atoms: N_6  and  C_7
REMARK    2  A    between atoms: C_7  and  C_8
REMARK    3  A    between atoms: C_15  and  N_16
REMARK    4  A    between atoms: N_16  and  C_17
REMARK                            x       y       z     vdW  Elec       q    Type
REMARK                         _______ _______ _______ _____ _____    ______ ____
ROOT
ATOM      1  O   UNL     1       6.802   7.138  16.735  0.00  0.00    +0.000 OA
ATOM      2  C   UNL     1       5.739   6.563  16.957  0.00  0.00    +0.000 A 
ATOM      3  N   UNL     1       4.710   7.152  17.630  0.00  0.00    +0.000 N 
ATOM      4  C   UNL     1       3.526   6.552  17.980  0.00  0.00    +0.000 A 
ATOM      5  O   UNL     1       2.723   7.148  18.694  0.00  0.00    +0.000 OA
ATOM      6  N   UNL     1       3.343   5.266  17.494  0.00  0.00    +0.000 N 
ATOM      7  C   UNL     1       4.317   4.622  16.757  0.00  0.00    +0.000 A 
ATOM      8  C   UNL     1       5.523   5.147  16.511  0.00  0.00    +0.000 A 
ATOM      9  H   UNL     1       4.858   8.088  17.970  0.00  0.00    +0.000 HD
ENDROOT
BRANCH   8  10
ATOM     10  N   UNL     1       6.591   4.504  15.897  0.00  0.00    +0.000 N 
ATOM     11  H   UNL     1       6.667   3.543  16.251  0.00  0.00    +0.000 HD
BRANCH  10  12
ATOM     12  C   UNL     1       6.789   4.488  14.489  0.00  0.00    +0.000 A 
ATOM     13  C   UNL     1       7.688   5.334  13.820  0.00  0.00    +0.000 A 
ATOM     14  C   UNL     1       7.842   5.275  12.432  0.00  0.00    +0.000 A 
ATOM     15  C   UNL     1       7.111   4.355  11.690  0.00  0.00    +0.000 A 
ATOM     16  C   UNL     1       6.241   3.481  12.338  0.00  0.00    +0.000 A 
ATOM     17  C   UNL     1       6.091   3.540  13.727  0.00  0.00    +0.000 A 
ENDBRANCH  10  12
ENDBRANCH   8  10
BRANCH   6  18
ATOM     18  C   UNL     1       2.115   4.543  17.832  0.00  0.00    +0.000 C 
BRANCH  18  19
ATOM     19  C   UNL     1       2.199   3.853  19.171  0.00  0.00    +0.000 A 
ATOM     20  C   UNL     1       3.380   3.219  19.584  0.00  0.00    +0.000 A 
ATOM     21  C   UNL     1       3.428   2.539  20.803  0.00  0.00    +0.000 A 
ATOM     22  C   UNL     1       2.300   2.488  21.620  0.00  0.00    +0.000 A 
ATOM     23  C   UNL     1       1.127   3.128  21.228  0.00  0.00    +0.000 A 
ATOM     24  C   UNL     1       1.076   3.807  20.011  0.00  0.00    +0.000 A 
ENDBRANCH  18  19
ENDBRANCH   6  18
TORSDOF 4
ENDMDL
