MODEL 1
REMARK VINA RESULT:      -6.9      0.000      0.000
REMARK  Name = 
REMARK  3 active torsions:
REMARK  status: ('A' for Active; 'I' for Inactive)
REMARK    1  A    between atoms: C_6  and  C_7
REMARK    2  A    between atoms: N_9  and  N_10
REMARK    3  A    between atoms: C_11  and  C_12
REMARK                            x       y       z     vdW  Elec       q    Type
REMARK                         _______ _______ _______ _____ _____    ______ ____
ROOT
ATOM      1  C   UNL     1       7.449   6.606  17.964  0.00  0.00    +0.000 C 
ATOM      2  O   UNL     1       7.976   6.088  18.948  0.00  0.00    +0.000 OA
ATOM      3  N   UNL     1       7.687   7.934  17.568  0.00  0.00    +0.000 N 
ATOM      4  H   UNL     1       7.276   8.284  16.710  0.00  0.00    +0.000 HD
ENDROOT
BRANCH   1  10
ATOM      5  N   UNL     1       5.855   3.798  18.391  0.00  0.00    +0.000 N 
ATOM      6  C   UNL     1       5.824   4.637  17.331  0.00  0.00    +0.000 A 
ATOM      7  N   UNL     1       5.052   4.392  16.282  0.00  0.00    +0.000 NA
ATOM      8  O   UNL     1       5.285   5.425  15.390  0.00  0.00    +0.000 OA
ATOM      9  N   UNL     1       6.195   6.332  15.899  0.00  0.00    +0.000 NA
ATOM     10  C   UNL     1       6.523   5.867  17.114  0.00  0.00    +0.000 A 
ATOM     11  H   UNL     1       5.310   2.948  18.267  0.00  0.00    +0.000 HD
ATOM     12  H   UNL     1       6.745   3.606  18.842  0.00  0.00    +0.000 HD
ENDBRANCH   1  10
BRANCH   3  13
ATOM     13  N   UNL     1       8.525   8.710  18.309  0.00  0.00    +0.000 NA
ATOM     14  C   UNL     1       8.630   9.951  17.970  0.00  0.00    +0.000 C 
BRANCH  14  15
ATOM     15  C   UNL     1       9.524  10.864  18.715  0.00  0.00    +0.000 A 
ATOM     16  C   UNL     1      10.480  11.621  18.037  0.00  0.00    +0.000 A 
ATOM     17  C   UNL     1      11.292  12.452  18.785  0.00  0.00    +0.000 A 
ATOM     18  N   UNL     1      11.214  12.561  20.130  0.00  0.00    +0.000 NA
ATOM     19  C   UNL     1      10.283  11.809  20.756  0.00  0.00    +0.000 A 
ATOM     20  C   UNL     1       9.414  10.955  20.100  0.00  0.00    +0.000 A 
ENDBRANCH  14  15
ENDBRANCH   3  13
TORSDOF 3
ENDMDL
MODEL 2
REMARK VINA RESULT:      -6.8      6.018      7.912
REMARK  Name = 
REMARK  3 active torsions:
REMARK  status: ('A' for Active; 'I' for Inactive)
REMARK    1  A    between atoms: C_6  and  C_7
REMARK    2  A    between atoms: N_9  and  N_10
REMARK    3  A    between atoms: C_11  and  C_12
REMARK                            x       y       z     vdW  Elec       q    Type
REMARK                         _______ _______ _______ _____ _____    ______ ____
ROOT
ATOM      1  C   UNL     1       6.406   4.314  15.850  0.00  0.00    +0.000 C 
ATOM      2  O   UNL     1       7.121   4.168  16.841  0.00  0.00    +0.000 OA
ATOM      3  N   UNL     1       5.005   4.193  15.881  0.00  0.00    +0.000 N 
ATOM      4  H   UNL     1       4.465   4.391  15.048  0.00  0.00    +0.000 HD
ENDROOT
BRANCH   1  10
ATOM      5  N   UNL     1       5.904   3.055  12.889  0.00  0.00    +0.000 N 
ATOM      6  C   UNL     1       6.719   4.072  13.249  0.00  0.00    +0.000 A 
ATOM      7  N   UNL     1       7.434   4.732  12.350  0.00  0.00    +0.000 NA
ATOM      8  O   UNL     1       8.160   5.674  13.060  0.00  0.00    +0.000 OA
ATOM      9  N   UNL     1       7.877   5.611  14.412  0.00  0.00    +0.000 NA
ATOM     10  C   UNL     1       6.967   4.634  14.542  0.00  0.00    +0.000 A 
ATOM     11  H   UNL     1       5.960   2.803  11.904  0.00  0.00    +0.000 HD
ATOM     12  H   UNL     1       5.853   2.230  13.480  0.00  0.00    +0.000 HD
ENDBRANCH   1  10
BRANCH   3  13
ATOM     13  N   UNL     1       4.390   3.879  17.055  0.00  0.00    +0.000 NA
ATOM     14  C   UNL     1       3.266   4.463  17.304  0.00  0.00    +0.000 C 
BRANCH  14  15
ATOM     15  C   UNL     1       2.534   4.188  18.560  0.00  0.00    +0.000 A 
ATOM     16  C   UNL     1       1.587   3.166  18.613  0.00  0.00    +0.000 A 
ATOM     17  C   UNL     1       0.929   2.959  19.810  0.00  0.00    +0.000 A 
ATOM     18  N   UNL     1       1.151   3.695  20.921  0.00  0.00    +0.000 NA
ATOM     19  C   UNL     1       2.070   4.681  20.835  0.00  0.00    +0.000 A 
ATOM     20  C   UNL     1       2.791   4.963  19.687  0.00  0.00    +0.000 A 
ENDBRANCH  14  15
ENDBRANCH   3  13
TORSDOF 3
ENDMDL
MODEL 3
REMARK VINA RESULT:      -6.7      0.828      1.328
REMARK  Name = 
REMARK  3 active torsions:
REMARK  status: ('A' for Active; 'I' for Inactive)
REMARK    1  A    between atoms: C_6  and  C_7
REMARK    2  A    between atoms: N_9  and  N_10
REMARK    3  A    between atoms: C_11  and  C_12
REMARK                            x       y       z     vdW  Elec       q    Type
REMARK                         _______ _______ _______ _____ _____    ______ ____
ROOT
ATOM      1  C   UNL     1       7.637   6.663  17.940  0.00  0.00    +0.000 C 
ATOM      2  O   UNL     1       7.945   6.323  19.082  0.00  0.00    +0.000 OA
ATOM      3  N   UNL     1       7.759   7.981  17.465  0.00  0.00    +0.000 N 
ATOM      4  H   UNL     1       7.552   8.187  16.495  0.00  0.00    +0.000 HD
ENDROOT
BRANCH   1  10
ATOM      5  N   UNL     1       5.995   3.872  18.289  0.00  0.00    +0.000 N 
ATOM      6  C   UNL     1       6.384   4.489  17.151  0.00  0.00    +0.000 A 
ATOM      7  N   UNL     1       6.085   3.989  15.961  0.00  0.00    +0.000 NA
ATOM      8  O   UNL     1       6.651   4.848  15.034  0.00  0.00    +0.000 OA
ATOM      9  N   UNL     1       7.292   5.904  15.656  0.00  0.00    +0.000 NA
ATOM     10  C   UNL     1       7.116   5.705  16.971  0.00  0.00    +0.000 A 
ATOM     11  H   UNL     1       5.540   2.974  18.143  0.00  0.00    +0.000 HD
ATOM     12  H   UNL     1       6.636   3.839  19.077  0.00  0.00    +0.000 HD
ENDBRANCH   1  10
BRANCH   3  13
ATOM     13  N   UNL     1       8.220   8.950  18.303  0.00  0.00    +0.000 NA
ATOM     14  C   UNL     1       8.771   9.983  17.759  0.00  0.00    +0.000 C 
BRANCH  14  15
ATOM     15  C   UNL     1       9.309  11.080  18.594  0.00  0.00    +0.000 A 
ATOM     16  C   UNL     1       9.615  10.857  19.936  0.00  0.00    +0.000 A 
ATOM     17  C   UNL     1      10.108  11.919  20.669  0.00  0.00    +0.000 A 
ATOM     18  N   UNL     1      10.298  13.155  20.158  0.00  0.00    +0.000 NA
ATOM     19  C   UNL     1       9.986  13.339  18.856  0.00  0.00    +0.000 A 
ATOM     20  C   UNL     1       9.497  12.340  18.033  0.00  0.00    +0.000 A 
ENDBRANCH  14  15
ENDBRANCH   3  13
TORSDOF 3
ENDMDL
MODEL 4
REMARK VINA RESULT:      -6.7      5.906      7.953
REMARK  Name = 
REMARK  3 active torsions:
REMARK  status: ('A' for Active; 'I' for Inactive)
REMARK    1  A    between atoms: C_6  and  C_7
REMARK    2  A    between atoms: N_9  and  N_10
REMARK    3  A    between atoms: C_11  and  C_12
REMARK                            x       y       z     vdW  Elec       q    Type
REMARK                         _______ _______ _______ _____ _____    ______ ____
ROOT
ATOM      1  C   UNL     1       6.591   4.591  15.746  0.00  0.00    +0.000 C 
ATOM      2  O   UNL     1       7.358   4.381  16.684  0.00  0.00    +0.000 OA
ATOM      3  N   UNL     1       5.195   4.684  15.893  0.00  0.00    +0.000 N 
ATOM      4  H   UNL     1       4.620   4.925  15.095  0.00  0.00    +0.000 HD
ENDROOT
BRANCH   1  10
ATOM      5  N   UNL     1       5.875   3.073  12.955  0.00  0.00    +0.000 N 
ATOM      6  C   UNL     1       6.737   4.093  13.167  0.00  0.00    +0.000 A 
ATOM      7  N   UNL     1       7.412   4.641  12.168  0.00  0.00    +0.000 NA
ATOM      8  O   UNL     1       8.205   5.622  12.739  0.00  0.00    +0.000 OA
ATOM      9  N   UNL     1       8.004   5.697  14.105  0.00  0.00    +0.000 NA
ATOM     10  C   UNL     1       7.078   4.767  14.382  0.00  0.00    +0.000 A 
ATOM     11  H   UNL     1       5.863   2.727  11.998  0.00  0.00    +0.000 HD
ATOM     12  H   UNL     1       5.838   2.310  13.625  0.00  0.00    +0.000 HD
ENDBRANCH   1  10
BRANCH   3  13
ATOM     13  N   UNL     1       4.643   4.517  17.127  0.00  0.00    +0.000 NA
ATOM     14  C   UNL     1       3.582   3.786  17.201  0.00  0.00    +0.000 C 
BRANCH  14  15
ATOM     15  C   UNL     1       2.911   3.559  18.500  0.00  0.00    +0.000 A 
ATOM     16  C   UNL     1       3.592   2.931  19.543  0.00  0.00    +0.000 A 
ATOM     17  C   UNL     1       2.913   2.739  20.732  0.00  0.00    +0.000 A 
ATOM     18  N   UNL     1       1.632   3.118  20.930  0.00  0.00    +0.000 NA
ATOM     19  C   UNL     1       0.999   3.718  19.898  0.00  0.00    +0.000 A 
ATOM     20  C   UNL     1       1.591   3.967  18.672  0.00  0.00    +0.000 A 
ENDBRANCH  14  15
ENDBRANCH   3  13
TORSDOF 3
ENDMDL
MODEL 5
REMARK VINA RESULT:      -6.7      6.259      7.740
REMARK  Name = 
REMARK  3 active torsions:
REMARK  status: ('A' for Active; 'I' for Inactive)
REMARK    1  A    between atoms: C_6  and  C_7
REMARK    2  A    between atoms: N_9  and  N_10
REMARK    3  A    between atoms: C_11  and  C_12
REMARK                            x       y       z     vdW  Elec       q    Type
REMARK                         _______ _______ _______ _____ _____    ______ ____
ROOT
ATOM      1  C   UNL     1       5.975   4.097  15.515  0.00  0.00    +0.000 C 
ATOM      2  O   UNL     1       5.734   2.916  15.761  0.00  0.00    +0.000 OA
ATOM      3  N   UNL     1       5.577   5.158  16.348  0.00  0.00    +0.000 N 
ATOM      4  H   UNL     1       5.864   6.105  16.129  0.00  0.00    +0.000 HD
ENDROOT
BRANCH   1  10
ATOM      5  N   UNL     1       5.954   2.978  12.457  0.00  0.00    +0.000 N 
ATOM      6  C   UNL     1       6.675   3.994  12.982  0.00  0.00    +0.000 A 
ATOM      7  N   UNL     1       7.494   4.716  12.231  0.00  0.00    +0.000 NA
ATOM      8  O   UNL     1       8.078   5.637  13.083  0.00  0.00    +0.000 OA
ATOM      9  N   UNL     1       7.601   5.499  14.373  0.00  0.00    +0.000 NA
ATOM     10  C   UNL     1       6.712   4.496  14.321  0.00  0.00    +0.000 A 
ATOM     11  H   UNL     1       6.162   2.778  11.482  0.00  0.00    +0.000 HD
ATOM     12  H   UNL     1       5.842   2.123  12.996  0.00  0.00    +0.000 HD
ENDBRANCH   1  10
BRANCH   3  13
ATOM     13  N   UNL     1       4.869   4.887  17.479  0.00  0.00    +0.000 NA
ATOM     14  C   UNL     1       3.582   4.866  17.375  0.00  0.00    +0.000 C 
BRANCH  14  15
ATOM     15  C   UNL     1       2.733   4.590  18.555  0.00  0.00    +0.000 A 
ATOM     16  C   UNL     1       3.015   5.193  19.781  0.00  0.00    +0.000 A 
ATOM     17  C   UNL     1       2.192   4.893  20.850  0.00  0.00    +0.000 A 
ATOM     18  N   UNL     1       1.143   4.045  20.770  0.00  0.00    +0.000 NA
ATOM     19  C   UNL     1       0.902   3.472  19.571  0.00  0.00    +0.000 A 
ATOM     20  C   UNL     1       1.658   3.714  18.436  0.00  0.00    +0.000 A 
ENDBRANCH  14  15
ENDBRANCH   3  13
TORSDOF 3
ENDMDL
MODEL 6
REMARK VINA RESULT:      -6.6      1.134      1.134
REMARK  Name = 
REMARK  3 active torsions:
REMARK  status: ('A' for Active; 'I' for Inactive)
REMARK    1  A    between atoms: C_6  and  C_7
REMARK    2  A    between atoms: N_9  and  N_10
REMARK    3  A    between atoms: C_11  and  C_12
REMARK                            x       y       z     vdW  Elec       q    Type
REMARK                         _______ _______ _______ _____ _____    ______ ____
ROOT
ATOM      1  C   UNL     1       7.370   6.456  17.560  0.00  0.00    +0.000 C 
ATOM      2  O   UNL     1       7.653   6.167  18.722  0.00  0.00    +0.000 OA
ATOM      3  N   UNL     1       7.378   7.773  17.066  0.00  0.00    +0.000 N 
ATOM      4  H   UNL     1       7.202   7.943  16.083  0.00  0.00    +0.000 HD
ENDROOT
BRANCH   1  10
ATOM      5  N   UNL     1       5.521   3.785  17.783  0.00  0.00    +0.000 N 
ATOM      6  C   UNL     1       6.175   4.275  16.705  0.00  0.00    +0.000 A 
ATOM      7  N   UNL     1       6.098   3.679  15.525  0.00  0.00    +0.000 NA
ATOM      8  O   UNL     1       6.896   4.422  14.671  0.00  0.00    +0.000 OA
ATOM      9  N   UNL     1       7.459   5.503  15.325  0.00  0.00    +0.000 NA
ATOM     10  C   UNL     1       7.002   5.436  16.585  0.00  0.00    +0.000 A 
ATOM     11  H   UNL     1       5.051   2.898  17.618  0.00  0.00    +0.000 HD
ATOM     12  H   UNL     1       5.982   3.798  18.688  0.00  0.00    +0.000 HD
ENDBRANCH   1  10
BRANCH   3  13
ATOM     13  N   UNL     1       7.692   8.797  17.907  0.00  0.00    +0.000 NA
ATOM     14  C   UNL     1       8.642   9.589  17.538  0.00  0.00    +0.000 C 
BRANCH  14  15
ATOM     15  C   UNL     1       9.056  10.723  18.395  0.00  0.00    +0.000 A 
ATOM     16  C   UNL     1       9.008  12.029  17.905  0.00  0.00    +0.000 A 
ATOM     17  C   UNL     1       9.412  13.047  18.747  0.00  0.00    +0.000 A 
ATOM     18  N   UNL     1       9.855  12.843  20.008  0.00  0.00    +0.000 NA
ATOM     19  C   UNL     1       9.894  11.566  20.449  0.00  0.00    +0.000 A 
ATOM     20  C   UNL     1       9.502  10.477  19.690  0.00  0.00    +0.000 A 
ENDBRANCH  14  15
ENDBRANCH   3  13
TORSDOF 3
ENDMDL
MODEL 7
REMARK VINA RESULT:      -6.6      5.792      8.163
REMARK  Name = 
REMARK  3 active torsions:
REMARK  status: ('A' for Active; 'I' for Inactive)
REMARK    1  A    between atoms: C_6  and  C_7
REMARK    2  A    between atoms: N_9  and  N_10
REMARK    3  A    between atoms: C_11  and  C_12
REMARK                            x       y       z     vdW  Elec       q    Type
REMARK                         _______ _______ _______ _____ _____    ______ ____
ROOT
ATOM      1  C   UNL     1       5.579   5.058  16.078  0.00  0.00    +0.000 C 
ATOM      2  O   UNL     1       4.834   6.018  16.272  0.00  0.00    +0.000 OA
ATOM      3  N   UNL     1       5.637   3.939  16.927  0.00  0.00    +0.000 N 
ATOM      4  H   UNL     1       6.221   3.149  16.679  0.00  0.00    +0.000 HD
ENDROOT
BRANCH   1  10
ATOM      5  N   UNL     1       5.309   3.631  13.164  0.00  0.00    +0.000 N 
ATOM      6  C   UNL     1       6.326   4.378  13.649  0.00  0.00    +0.000 A 
ATOM      7  N   UNL     1       7.392   4.651  12.912  0.00  0.00    +0.000 NA
ATOM      8  O   UNL     1       8.229   5.404  13.718  0.00  0.00    +0.000 OA
ATOM      9  N   UNL     1       7.667   5.618  14.963  0.00  0.00    +0.000 NA
ATOM     10  C   UNL     1       6.474   5.004  14.927  0.00  0.00    +0.000 A 
ATOM     11  H   UNL     1       5.480   3.243  12.239  0.00  0.00    +0.000 HD
ATOM     12  H   UNL     1       4.861   2.953  13.773  0.00  0.00    +0.000 HD
ENDBRANCH   1  10
BRANCH   3  13
ATOM     13  N   UNL     1       4.851   3.905  18.038  0.00  0.00    +0.000 NA
ATOM     14  C   UNL     1       3.854   3.084  18.028  0.00  0.00    +0.000 C 
BRANCH  14  15
ATOM     15  C   UNL     1       2.943   2.989  19.189  0.00  0.00    +0.000 A 
ATOM     16  C   UNL     1       1.592   3.309  19.052  0.00  0.00    +0.000 A 
ATOM     17  C   UNL     1       0.789   3.208  20.172  0.00  0.00    +0.000 A 
ATOM     18  N   UNL     1       1.244   2.826  21.386  0.00  0.00    +0.000 NA
ATOM     19  C   UNL     1       2.559   2.529  21.486  0.00  0.00    +0.000 A 
ATOM     20  C   UNL     1       3.444   2.587  20.424  0.00  0.00    +0.000 A 
ENDBRANCH  14  15
ENDBRANCH   3  13
TORSDOF 3
ENDMDL
MODEL 8
REMARK VINA RESULT:      -6.5      5.280      6.739
REMARK  Name = 
REMARK  3 active torsions:
REMARK  status: ('A' for Active; 'I' for Inactive)
REMARK    1  A    between atoms: C_6  and  C_7
REMARK    2  A    between atoms: N_9  and  N_10
REMARK    3  A    between atoms: C_11  and  C_12
REMARK                            x       y       z     vdW  Elec       q    Type
REMARK                         _______ _______ _______ _____ _____    ______ ____
ROOT
ATOM      1  C   UNL     1       4.875   6.075  17.703  0.00  0.00    +0.000 C 
ATOM      2  O   UNL     1       4.884   5.680  18.868  0.00  0.00    +0.000 OA
ATOM      3  N   UNL     1       3.896   6.943  17.187  0.00  0.00    +0.000 N 
ATOM      4  H   UNL     1       3.978   7.287  16.238  0.00  0.00    +0.000 HD
ENDROOT
BRANCH   1  10
ATOM      5  N   UNL     1       7.584   4.299  18.029  0.00  0.00    +0.000 N 
ATOM      6  C   UNL     1       7.080   4.877  16.916  0.00  0.00    +0.000 A 
ATOM      7  N   UNL     1       7.676   4.741  15.741  0.00  0.00    +0.000 NA
ATOM      8  O   UNL     1       6.916   5.471  14.843  0.00  0.00    +0.000 OA
ATOM      9  N   UNL     1       5.825   6.049  15.464  0.00  0.00    +0.000 NA
ATOM     10  C   UNL     1       5.902   5.671  16.749  0.00  0.00    +0.000 A 
ATOM     11  H   UNL     1       8.481   3.837  17.892  0.00  0.00    +0.000 HD
ATOM     12  H   UNL     1       7.562   4.813  18.905  0.00  0.00    +0.000 HD
ENDBRANCH   1  10
BRANCH   3  13
ATOM     13  N   UNL     1       2.885   7.362  17.997  0.00  0.00    +0.000 NA
ATOM     14  C   UNL     1       2.515   8.594  17.886  0.00  0.00    +0.000 C 
BRANCH  14  15
ATOM     15  C   UNL     1       1.431   9.136  18.734  0.00  0.00    +0.000 A 
ATOM     16  C   UNL     1       1.378   8.826  20.093  0.00  0.00    +0.000 A 
ATOM     17  C   UNL     1       0.339   9.356  20.834  0.00  0.00    +0.000 A 
ATOM     18  N   UNL     1      -0.625  10.145  20.312  0.00  0.00    +0.000 NA
ATOM     19  C   UNL     1      -0.548  10.421  18.992  0.00  0.00    +0.000 A 
ATOM     20  C   UNL     1       0.456   9.951  18.164  0.00  0.00    +0.000 A 
ENDBRANCH  14  15
ENDBRANCH   3  13
TORSDOF 3
ENDMDL
MODEL 9
REMARK VINA RESULT:      -6.5      1.026      1.835
REMARK  Name = 
REMARK  3 active torsions:
REMARK  status: ('A' for Active; 'I' for Inactive)
REMARK    1  A    between atoms: C_6  and  C_7
REMARK    2  A    between atoms: N_9  and  N_10
REMARK    3  A    between atoms: C_11  and  C_12
REMARK                            x       y       z     vdW  Elec       q    Type
REMARK                         _______ _______ _______ _____ _____    ______ ____
ROOT
ATOM      1  C   UNL     1       7.431   6.226  17.937  0.00  0.00    +0.000 C 
ATOM      2  O   UNL     1       7.913   5.822  18.995  0.00  0.00    +0.000 OA
ATOM      3  N   UNL     1       7.619   7.532  17.451  0.00  0.00    +0.000 N 
ATOM      4  H   UNL     1       7.253   7.788  16.541  0.00  0.00    +0.000 HD
ENDROOT
BRANCH   1  10
ATOM      5  N   UNL     1       7.677   5.383  14.802  0.00  0.00    +0.000 N 
ATOM      6  C   UNL     1       6.753   5.000  15.712  0.00  0.00    +0.000 A 
ATOM      7  N   UNL     1       5.790   4.146  15.396  0.00  0.00    +0.000 NA
ATOM      8  O   UNL     1       5.023   3.999  16.540  0.00  0.00    +0.000 OA
ATOM      9  N   UNL     1       5.528   4.755  17.582  0.00  0.00    +0.000 NA
ATOM     10  C   UNL     1       6.616   5.365  17.088  0.00  0.00    +0.000 A 
ATOM     11  H   UNL     1       7.511   5.027  13.863  0.00  0.00    +0.000 HD
ATOM     12  H   UNL     1       7.978   6.353  14.784  0.00  0.00    +0.000 HD
ENDBRANCH   1  10
BRANCH   3  13
ATOM     13  N   UNL     1       8.351   8.416  18.182  0.00  0.00    +0.000 NA
ATOM     14  C   UNL     1       8.321   9.653  17.812  0.00  0.00    +0.000 C 
BRANCH  14  15
ATOM     15  C   UNL     1       9.095  10.679  18.545  0.00  0.00    +0.000 A 
ATOM     16  C   UNL     1       9.367  10.519  19.903  0.00  0.00    +0.000 A 
ATOM     17  C   UNL     1      10.088  11.513  20.537  0.00  0.00    +0.000 A 
ATOM     18  N   UNL     1      10.532  12.627  19.914  0.00  0.00    +0.000 NA
ATOM     19  C   UNL     1      10.246  12.754  18.600  0.00  0.00    +0.000 A 
ATOM     20  C   UNL     1       9.541  11.813  17.871  0.00  0.00    +0.000 A 
ENDBRANCH  14  15
ENDBRANCH   3  13
TORSDOF 3
ENDMDL
