MODEL 1
REMARK VINA RESULT:      -6.7      0.000      0.000
REMARK  Name = 
REMARK  16 active torsions:
REMARK  status: ('A' for Active; 'I' for Inactive)
REMARK    1  A    between atoms: C_1  and  C_2
REMARK    2  A    between atoms: C_2  and  C_3
REMARK    3  A    between atoms: C_3  and  C_4
REMARK    4  A    between atoms: C_4  and  C_5
REMARK    5  A    between atoms: C_5  and  C_6
REMARK    6  A    between atoms: C_6  and  C_7
REMARK    7  A    between atoms: C_7  and  C_8
REMARK    8  A    between atoms: C_8  and  C_9
REMARK    9  A    between atoms: C_9  and  C_10
REMARK   10  A    between atoms: C_10  and  C_11
REMARK   11  A    between atoms: C_12  and  C_13
REMARK   12  A    between atoms: C_16  and  C_17
REMARK   13  A    between atoms: C_17  and  O_18
REMARK   14  A    between atoms: O_18  and  C_19
REMARK   15  A    between atoms: CA_22  and  C_23
REMARK   16  A    between atoms: C_23  and  O_24
REMARK                            x       y       z     vdW  Elec       q    Type
REMARK                         _______ _______ _______ _____ _____    ______ ____
ROOT
ATOM      1  C   UNL     1       1.895   6.565  20.334  0.00  0.00    +0.000 A 
ATOM      2  C   UNL     1       1.198   7.518  21.104  0.00  0.00    +0.000 A 
ATOM      3  C   UNL     1       0.956   8.796  20.595  0.00  0.00    +0.000 A 
ATOM      4  C   UNL     1       1.386   9.134  19.307  0.00  0.00    +0.000 A 
ATOM      5  C   UNL     1       2.069   8.187  18.532  0.00  0.00    +0.000 A 
ATOM      6  C   UNL     1       2.333   6.917  19.048  0.00  0.00    +0.000 A 
ENDROOT
BRANCH   1   8
ATOM      7  C   UNL     1       1.365   4.164  20.656  0.00  0.00    +0.000 C 
ATOM      8  C   UNL     1       2.190   5.203  20.838  0.00  0.00    +0.000 C 
BRANCH   7   9
ATOM      9  C   UNL     1       1.687   2.800  21.177  0.00  0.00    +0.000 C 
BRANCH   9  10
ATOM     10  C   UNL     1       3.007   2.322  20.582  0.00  0.00    +0.000 C 
BRANCH  10  11
ATOM     11  C   UNL     1       2.877   2.184  19.069  0.00  0.00    +0.000 C 
BRANCH  11  12
ATOM     12  C   UNL     1       4.016   2.910  18.359  0.00  0.00    +0.000 C 
BRANCH  12  13
ATOM     13  C   UNL     1       3.462   3.760  17.216  0.00  0.00    +0.000 C 
BRANCH  13  14
ATOM     14  C   UNL     1       4.355   4.971  16.962  0.00  0.00    +0.000 C 
BRANCH  14  15
ATOM     15  C   UNL     1       5.480   4.608  15.993  0.00  0.00    +0.000 C 
BRANCH  15  16
ATOM     16  C   UNL     1       6.835   4.651  16.698  0.00  0.00    +0.000 C 
BRANCH  16  18
ATOM     17  C   UNL     1       7.617   6.319  18.410  0.00  0.00    +0.000 C 
ATOM     18  C   UNL     1       7.270   6.097  16.942  0.00  0.00    +0.000 C 
ENDBRANCH  16  18
ENDBRANCH  15  16
ENDBRANCH  14  15
ENDBRANCH  13  14
ENDBRANCH  12  13
ENDBRANCH  11  12
ENDBRANCH  10  11
ENDBRANCH   9  10
ENDBRANCH   7   9
ENDBRANCH   1   8
BRANCH   4  19
ATOM     19  C   UNL     1       1.109  10.503  18.763  0.00  0.00    +0.000 C 
BRANCH  19  20
ATOM     20  O   UNL     1       0.158  10.411  17.718  0.00  0.00    +0.000 OA
BRANCH  20  21
ATOM     21  C   UNL     1      -1.150  10.331  18.258  0.00  0.00    +0.000 C 
ATOM     22  C   UNL     1      -1.728  11.734  18.406  0.00  0.00    +0.000 C 
ATOM     23  N   UNL     1      -2.145  12.167  17.068  0.00  0.00    +0.000 NA
ATOM     24  CA  UNL     1      -2.321  10.930  16.285  0.00  0.00    +0.000 C 
ATOM     25  C   UNL     1      -2.145   9.766  17.261  0.00  0.00    +0.000 C 
ATOM     26  H   UNL     1      -1.365  12.720  16.637  0.00  0.00    +0.000 HD
BRANCH  24  27
ATOM     27  C   UNL     1      -3.703  10.883  15.617  0.00  0.00    +0.000 C 
BRANCH  27  28
ATOM     28  O   UNL     1      -3.625  10.275  14.356  0.00  0.00    +0.000 OA
ATOM     29  H   UNL     1      -3.864   9.320  14.488  0.00  0.00    +0.000 HD
ENDBRANCH  27  28
ENDBRANCH  24  27
ENDBRANCH  20  21
ENDBRANCH  19  20
ENDBRANCH   4  19
TORSDOF 15
ENDMDL
MODEL 2
REMARK VINA RESULT:      -6.6      1.244      3.709
REMARK  Name = 
REMARK  16 active torsions:
REMARK  status: ('A' for Active; 'I' for Inactive)
REMARK    1  A    between atoms: C_1  and  C_2
REMARK    2  A    between atoms: C_2  and  C_3
REMARK    3  A    between atoms: C_3  and  C_4
REMARK    4  A    between atoms: C_4  and  C_5
REMARK    5  A    between atoms: C_5  and  C_6
REMARK    6  A    between atoms: C_6  and  C_7
REMARK    7  A    between atoms: C_7  and  C_8
REMARK    8  A    between atoms: C_8  and  C_9
REMARK    9  A    between atoms: C_9  and  C_10
REMARK   10  A    between atoms: C_10  and  C_11
REMARK   11  A    between atoms: C_12  and  C_13
REMARK   12  A    between atoms: C_16  and  C_17
REMARK   13  A    between atoms: C_17  and  O_18
REMARK   14  A    between atoms: O_18  and  C_19
REMARK   15  A    between atoms: CA_22  and  C_23
REMARK   16  A    between atoms: C_23  and  O_24
REMARK                            x       y       z     vdW  Elec       q    Type
REMARK                         _______ _______ _______ _____ _____    ______ ____
ROOT
ATOM      1  C   UNL     1       2.661   7.542  18.508  0.00  0.00    +0.000 A 
ATOM      2  C   UNL     1       2.316   8.574  17.613  0.00  0.00    +0.000 A 
ATOM      3  C   UNL     1       1.455   9.599  18.015  0.00  0.00    +0.000 A 
ATOM      4  C   UNL     1       0.946   9.620  19.317  0.00  0.00    +0.000 A 
ATOM      5  C   UNL     1       1.296   8.602  20.217  0.00  0.00    +0.000 A 
ATOM      6  C   UNL     1       2.136   7.566  19.809  0.00  0.00    +0.000 A 
ENDROOT
BRANCH   1   8
ATOM      7  C   UNL     1       4.670   6.601  17.399  0.00  0.00    +0.000 C 
ATOM      8  C   UNL     1       3.557   6.426  18.122  0.00  0.00    +0.000 C 
BRANCH   7   9
ATOM      9  C   UNL     1       5.555   5.456  17.021  0.00  0.00    +0.000 C 
BRANCH   9  10
ATOM     10  C   UNL     1       4.882   4.141  17.406  0.00  0.00    +0.000 C 
BRANCH  10  11
ATOM     11  C   UNL     1       5.057   3.884  18.899  0.00  0.00    +0.000 C 
BRANCH  11  12
ATOM     12  C   UNL     1       4.582   2.481  19.265  0.00  0.00    +0.000 C 
BRANCH  12  13
ATOM     13  C   UNL     1       3.854   2.509  20.607  0.00  0.00    +0.000 C 
BRANCH  13  14
ATOM     14  C   UNL     1       3.107   3.828  20.789  0.00  0.00    +0.000 C 
BRANCH  14  15
ATOM     15  C   UNL     1       1.672   3.566  21.244  0.00  0.00    +0.000 C 
BRANCH  15  16
ATOM     16  C   UNL     1       0.679   3.949  20.147  0.00  0.00    +0.000 C 
BRANCH  16  18
ATOM     17  C   UNL     1       1.289   3.838  17.710  0.00  0.00    +0.000 C 
ATOM     18  C   UNL     1       0.843   3.039  18.928  0.00  0.00    +0.000 C 
ENDBRANCH  16  18
ENDBRANCH  15  16
ENDBRANCH  14  15
ENDBRANCH  13  14
ENDBRANCH  12  13
ENDBRANCH  11  12
ENDBRANCH  10  11
ENDBRANCH   9  10
ENDBRANCH   7   9
ENDBRANCH   1   8
BRANCH   4  19
ATOM     19  C   UNL     1       0.035  10.731  19.744  0.00  0.00    +0.000 C 
BRANCH  19  20
ATOM     20  O   UNL     1      -0.716  11.178  18.630  0.00  0.00    +0.000 OA
BRANCH  20  21
ATOM     21  C   UNL     1      -1.993  10.563  18.627  0.00  0.00    +0.000 C 
ATOM     22  C   UNL     1      -3.056  11.594  18.269  0.00  0.00    +0.000 C 
ATOM     23  N   UNL     1      -2.984  11.795  16.818  0.00  0.00    +0.000 NA
ATOM     24  CA  UNL     1      -2.328  10.590  16.280  0.00  0.00    +0.000 C 
ATOM     25  C   UNL     1      -2.168   9.620  17.450  0.00  0.00    +0.000 C 
ATOM     26  H   UNL     1      -2.366  12.619  16.625  0.00  0.00    +0.000 HD
BRANCH  24  27
ATOM     27  C   UNL     1      -3.157   9.958  15.152  0.00  0.00    +0.000 C 
BRANCH  27  28
ATOM     28  O   UNL     1      -2.757  10.454  13.903  0.00  0.00    +0.000 OA
ATOM     29  H   UNL     1      -3.270  11.291  13.754  0.00  0.00    +0.000 HD
ENDBRANCH  27  28
ENDBRANCH  24  27
ENDBRANCH  20  21
ENDBRANCH  19  20
ENDBRANCH   4  19
TORSDOF 15
ENDMDL
MODEL 3
REMARK VINA RESULT:      -6.5      1.273      3.862
REMARK  Name = 
REMARK  16 active torsions:
REMARK  status: ('A' for Active; 'I' for Inactive)
REMARK    1  A    between atoms: C_1  and  C_2
REMARK    2  A    between atoms: C_2  and  C_3
REMARK    3  A    between atoms: C_3  and  C_4
REMARK    4  A    between atoms: C_4  and  C_5
REMARK    5  A    between atoms: C_5  and  C_6
REMARK    6  A    between atoms: C_6  and  C_7
REMARK    7  A    between atoms: C_7  and  C_8
REMARK    8  A    between atoms: C_8  and  C_9
REMARK    9  A    between atoms: C_9  and  C_10
REMARK   10  A    between atoms: C_10  and  C_11
REMARK   11  A    between atoms: C_12  and  C_13
REMARK   12  A    between atoms: C_16  and  C_17
REMARK   13  A    between atoms: C_17  and  O_18
REMARK   14  A    between atoms: O_18  and  C_19
REMARK   15  A    between atoms: CA_22  and  C_23
REMARK   16  A    between atoms: C_23  and  O_24
REMARK                            x       y       z     vdW  Elec       q    Type
REMARK                         _______ _______ _______ _____ _____    ______ ____
ROOT
ATOM      1  C   UNL     1       3.280   7.490  17.849  0.00  0.00    +0.000 A 
ATOM      2  C   UNL     1       2.897   7.040  19.129  0.00  0.00    +0.000 A 
ATOM      3  C   UNL     1       1.953   7.750  19.874  0.00  0.00    +0.000 A 
ATOM      4  C   UNL     1       1.363   8.903  19.346  0.00  0.00    +0.000 A 
ATOM      5  C   UNL     1       1.729   9.349  18.068  0.00  0.00    +0.000 A 
ATOM      6  C   UNL     1       2.690   8.654  17.333  0.00  0.00    +0.000 A 
ENDROOT
BRANCH   1   8
ATOM      7  C   UNL     1       5.596   6.776  17.321  0.00  0.00    +0.000 C 
ATOM      8  C   UNL     1       4.288   6.780  17.029  0.00  0.00    +0.000 C 
BRANCH   7   9
ATOM      9  C   UNL     1       6.593   6.053  16.474  0.00  0.00    +0.000 C 
BRANCH   9  10
ATOM     10  C   UNL     1       6.974   4.736  17.143  0.00  0.00    +0.000 C 
BRANCH  10  11
ATOM     11  C   UNL     1       5.911   4.343  18.162  0.00  0.00    +0.000 C 
BRANCH  11  12
ATOM     12  C   UNL     1       4.930   3.340  17.561  0.00  0.00    +0.000 C 
BRANCH  12  13
ATOM     13  C   UNL     1       3.841   3.001  18.577  0.00  0.00    +0.000 C 
BRANCH  13  14
ATOM     14  C   UNL     1       2.757   2.135  17.939  0.00  0.00    +0.000 C 
BRANCH  14  15
ATOM     15  C   UNL     1       1.410   2.388  18.615  0.00  0.00    +0.000 C 
BRANCH  15  16
ATOM     16  C   UNL     1       1.247   3.868  18.958  0.00  0.00    +0.000 C 
BRANCH  16  18
ATOM     17  C   UNL     1       1.352   2.841  21.251  0.00  0.00    +0.000 C 
ATOM     18  C   UNL     1       0.892   4.044  20.436  0.00  0.00    +0.000 C 
ENDBRANCH  16  18
ENDBRANCH  15  16
ENDBRANCH  14  15
ENDBRANCH  13  14
ENDBRANCH  12  13
ENDBRANCH  11  12
ENDBRANCH  10  11
ENDBRANCH   9  10
ENDBRANCH   7   9
ENDBRANCH   1   8
BRANCH   4  19
ATOM     19  C   UNL     1       0.340   9.651  20.147  0.00  0.00    +0.000 C 
BRANCH  19  20
ATOM     20  O   UNL     1       0.014  10.860  19.484  0.00  0.00    +0.000 OA
BRANCH  20  21
ATOM     21  C   UNL     1      -1.391  11.044  19.474  0.00  0.00    +0.000 C 
ATOM     22  C   UNL     1      -1.725  12.383  18.827  0.00  0.00    +0.000 C 
ATOM     23  N   UNL     1      -1.588  12.203  17.378  0.00  0.00    +0.000 NA
ATOM     24  CA  UNL     1      -1.710  10.752  17.143  0.00  0.00    +0.000 C 
ATOM     25  C   UNL     1      -2.080  10.122  18.485  0.00  0.00    +0.000 C 
ATOM     26  H   UNL     1      -0.624  12.501  17.093  0.00  0.00    +0.000 HD
BRANCH  24  27
ATOM     27  C   UNL     1      -2.775  10.446  16.080  0.00  0.00    +0.000 C 
BRANCH  27  28
ATOM     28  O   UNL     1      -3.087  11.596  15.342  0.00  0.00    +0.000 OA
ATOM     29  H   UNL     1      -2.252  12.132  15.287  0.00  0.00    +0.000 HD
ENDBRANCH  27  28
ENDBRANCH  24  27
ENDBRANCH  20  21
ENDBRANCH  19  20
ENDBRANCH   4  19
TORSDOF 15
ENDMDL
MODEL 4
REMARK VINA RESULT:      -6.5      4.701      7.977
REMARK  Name = 
REMARK  16 active torsions:
REMARK  status: ('A' for Active; 'I' for Inactive)
REMARK    1  A    between atoms: C_1  and  C_2
REMARK    2  A    between atoms: C_2  and  C_3
REMARK    3  A    between atoms: C_3  and  C_4
REMARK    4  A    between atoms: C_4  and  C_5
REMARK    5  A    between atoms: C_5  and  C_6
REMARK    6  A    between atoms: C_6  and  C_7
REMARK    7  A    between atoms: C_7  and  C_8
REMARK    8  A    between atoms: C_8  and  C_9
REMARK    9  A    between atoms: C_9  and  C_10
REMARK   10  A    between atoms: C_10  and  C_11
REMARK   11  A    between atoms: C_12  and  C_13
REMARK   12  A    between atoms: C_16  and  C_17
REMARK   13  A    between atoms: C_17  and  O_18
REMARK   14  A    between atoms: O_18  and  C_19
REMARK   15  A    between atoms: CA_22  and  C_23
REMARK   16  A    between atoms: C_23  and  O_24
REMARK                            x       y       z     vdW  Elec       q    Type
REMARK                         _______ _______ _______ _____ _____    ______ ____
ROOT
ATOM      1  C   UNL     1       5.757   5.326  18.133  0.00  0.00    +0.000 A 
ATOM      2  C   UNL     1       5.321   6.404  17.338  0.00  0.00    +0.000 A 
ATOM      3  C   UNL     1       6.133   7.528  17.165  0.00  0.00    +0.000 A 
ATOM      4  C   UNL     1       7.396   7.582  17.764  0.00  0.00    +0.000 A 
ATOM      5  C   UNL     1       7.841   6.507  18.546  0.00  0.00    +0.000 A 
ATOM      6  C   UNL     1       7.021   5.394  18.738  0.00  0.00    +0.000 A 
ENDROOT
BRANCH   1   8
ATOM      7  C   UNL     1       4.364   3.424  17.362  0.00  0.00    +0.000 C 
ATOM      8  C   UNL     1       4.925   4.121  18.359  0.00  0.00    +0.000 C 
BRANCH   7   9
ATOM      9  C   UNL     1       3.527   2.212  17.619  0.00  0.00    +0.000 C 
BRANCH   9  10
ATOM     10  C   UNL     1       3.173   2.139  19.101  0.00  0.00    +0.000 C 
BRANCH  10  11
ATOM     11  C   UNL     1       1.670   1.948  19.269  0.00  0.00    +0.000 C 
BRANCH  11  12
ATOM     12  C   UNL     1       1.127   2.864  20.362  0.00  0.00    +0.000 C 
BRANCH  12  13
ATOM     13  C   UNL     1       1.204   4.321  19.909  0.00  0.00    +0.000 C 
BRANCH  13  14
ATOM     14  C   UNL     1       1.992   5.158  20.913  0.00  0.00    +0.000 C 
BRANCH  14  15
ATOM     15  C   UNL     1       2.868   6.176  20.184  0.00  0.00    +0.000 C 
BRANCH  15  16
ATOM     16  C   UNL     1       2.171   6.682  18.922  0.00  0.00    +0.000 C 
BRANCH  16  18
ATOM     17  C   UNL     1       2.169   8.840  17.629  0.00  0.00    +0.000 C 
ATOM     18  C   UNL     1       1.956   8.196  18.994  0.00  0.00    +0.000 C 
ENDBRANCH  16  18
ENDBRANCH  15  16
ENDBRANCH  14  15
ENDBRANCH  13  14
ENDBRANCH  12  13
ENDBRANCH  11  12
ENDBRANCH  10  11
ENDBRANCH   9  10
ENDBRANCH   7   9
ENDBRANCH   1   8
BRANCH   4  19
ATOM     19  C   UNL     1       8.267   8.785  17.561  0.00  0.00    +0.000 C 
BRANCH  19  20
ATOM     20  O   UNL     1       8.907   9.114  18.781  0.00  0.00    +0.000 OA
BRANCH  20  21
ATOM     21  C   UNL     1       8.624  10.458  19.131  0.00  0.00    +0.000 C 
ATOM     22  C   UNL     1       9.667  10.957  20.123  0.00  0.00    +0.000 C 
ATOM     23  N   UNL     1      10.879  11.256  19.353  0.00  0.00    +0.000 NA
ATOM     24  CA  UNL     1      10.430  11.454  17.963  0.00  0.00    +0.000 C 
ATOM     25  C   UNL     1       8.902  11.416  17.987  0.00  0.00    +0.000 C 
ATOM     26  H   UNL     1      11.507  10.418  19.379  0.00  0.00    +0.000 HD
BRANCH  24  27
ATOM     27  C   UNL     1      10.937  12.788  17.396  0.00  0.00    +0.000 C 
BRANCH  27  28
ATOM     28  O   UNL     1      10.834  13.807  18.353  0.00  0.00    +0.000 OA
ATOM     29  H   UNL     1      11.150  13.421  19.212  0.00  0.00    +0.000 HD
ENDBRANCH  27  28
ENDBRANCH  24  27
ENDBRANCH  20  21
ENDBRANCH  19  20
ENDBRANCH   4  19
TORSDOF 15
ENDMDL
MODEL 5
REMARK VINA RESULT:      -6.5      5.646      9.532
REMARK  Name = 
REMARK  16 active torsions:
REMARK  status: ('A' for Active; 'I' for Inactive)
REMARK    1  A    between atoms: C_1  and  C_2
REMARK    2  A    between atoms: C_2  and  C_3
REMARK    3  A    between atoms: C_3  and  C_4
REMARK    4  A    between atoms: C_4  and  C_5
REMARK    5  A    between atoms: C_5  and  C_6
REMARK    6  A    between atoms: C_6  and  C_7
REMARK    7  A    between atoms: C_7  and  C_8
REMARK    8  A    between atoms: C_8  and  C_9
REMARK    9  A    between atoms: C_9  and  C_10
REMARK   10  A    between atoms: C_10  and  C_11
REMARK   11  A    between atoms: C_12  and  C_13
REMARK   12  A    between atoms: C_16  and  C_17
REMARK   13  A    between atoms: C_17  and  O_18
REMARK   14  A    between atoms: O_18  and  C_19
REMARK   15  A    between atoms: CA_22  and  C_23
REMARK   16  A    between atoms: C_23  and  O_24
REMARK                            x       y       z     vdW  Elec       q    Type
REMARK                         _______ _______ _______ _____ _____    ______ ____
ROOT
ATOM      1  C   UNL     1       7.577   7.232  17.983  0.00  0.00    +0.000 A 
ATOM      2  C   UNL     1       6.555   7.397  17.028  0.00  0.00    +0.000 A 
ATOM      3  C   UNL     1       5.765   6.310  16.644  0.00  0.00    +0.000 A 
ATOM      4  C   UNL     1       5.971   5.052  17.221  0.00  0.00    +0.000 A 
ATOM      5  C   UNL     1       6.978   4.885  18.181  0.00  0.00    +0.000 A 
ATOM      6  C   UNL     1       7.783   5.964  18.548  0.00  0.00    +0.000 A 
ENDROOT
BRANCH   1   8
ATOM      7  C   UNL     1       8.343   9.590  17.914  0.00  0.00    +0.000 C 
ATOM      8  C   UNL     1       8.450   8.350  18.409  0.00  0.00    +0.000 C 
BRANCH   7   9
ATOM      9  C   UNL     1       9.239  10.700  18.360  0.00  0.00    +0.000 C 
BRANCH   9  10
ATOM     10  C   UNL     1       9.442  10.619  19.870  0.00  0.00    +0.000 C 
BRANCH  10  11
ATOM     11  C   UNL     1      10.613  11.501  20.287  0.00  0.00    +0.000 C 
BRANCH  11  12
ATOM     12  C   UNL     1      10.174  12.526  21.329  0.00  0.00    +0.000 C 
BRANCH  12  13
ATOM     13  C   UNL     1      10.456  13.939  20.823  0.00  0.00    +0.000 C 
BRANCH  13  14
ATOM     14  C   UNL     1       9.221  14.824  20.974  0.00  0.00    +0.000 C 
BRANCH  14  15
ATOM     15  C   UNL     1       8.049  14.237  20.190  0.00  0.00    +0.000 C 
BRANCH  15  16
ATOM     16  C   UNL     1       8.319  14.301  18.687  0.00  0.00    +0.000 C 
BRANCH  16  18
ATOM     17  C   UNL     1       6.770  16.271  18.484  0.00  0.00    +0.000 C 
ATOM     18  C   UNL     1       7.116  14.888  17.946  0.00  0.00    +0.000 C 
ENDBRANCH  16  18
ENDBRANCH  15  16
ENDBRANCH  14  15
ENDBRANCH  13  14
ENDBRANCH  12  13
ENDBRANCH  11  12
ENDBRANCH  10  11
ENDBRANCH   9  10
ENDBRANCH   7   9
ENDBRANCH   1   8
BRANCH   4  19
ATOM     19  C   UNL     1       5.109   3.895  16.814  0.00  0.00    +0.000 C 
BRANCH  19  20
ATOM     20  O   UNL     1       4.413   3.405  17.946  0.00  0.00    +0.000 OA
BRANCH  20  21
ATOM     21  C   UNL     1       3.023   3.635  17.798  0.00  0.00    +0.000 C 
ATOM     22  C   UNL     1       2.297   2.302  17.658  0.00  0.00    +0.000 C 
ATOM     23  N   UNL     1       2.210   1.721  19.003  0.00  0.00    +0.000 NA
ATOM     24  CA  UNL     1       2.364   2.852  19.936  0.00  0.00    +0.000 C 
ATOM     25  C   UNL     1       2.385   4.122  19.085  0.00  0.00    +0.000 C 
ATOM     26  H   UNL     1       3.019   1.070  19.139  0.00  0.00    +0.000 HD
BRANCH  24  27
ATOM     27  C   UNL     1       1.220   2.894  20.959  0.00  0.00    +0.000 C 
BRANCH  27  28
ATOM     28  O   UNL     1       1.671   2.507  22.228  0.00  0.00    +0.000 OA
ATOM     29  H   UNL     1       1.569   1.520  22.275  0.00  0.00    +0.000 HD
ENDBRANCH  27  28
ENDBRANCH  24  27
ENDBRANCH  20  21
ENDBRANCH  19  20
ENDBRANCH   4  19
TORSDOF 15
ENDMDL
MODEL 6
REMARK VINA RESULT:      -6.5      1.763      3.157
REMARK  Name = 
REMARK  16 active torsions:
REMARK  status: ('A' for Active; 'I' for Inactive)
REMARK    1  A    between atoms: C_1  and  C_2
REMARK    2  A    between atoms: C_2  and  C_3
REMARK    3  A    between atoms: C_3  and  C_4
REMARK    4  A    between atoms: C_4  and  C_5
REMARK    5  A    between atoms: C_5  and  C_6
REMARK    6  A    between atoms: C_6  and  C_7
REMARK    7  A    between atoms: C_7  and  C_8
REMARK    8  A    between atoms: C_8  and  C_9
REMARK    9  A    between atoms: C_9  and  C_10
REMARK   10  A    between atoms: C_10  and  C_11
REMARK   11  A    between atoms: C_12  and  C_13
REMARK   12  A    between atoms: C_16  and  C_17
REMARK   13  A    between atoms: C_17  and  O_18
REMARK   14  A    between atoms: O_18  and  C_19
REMARK   15  A    between atoms: CA_22  and  C_23
REMARK   16  A    between atoms: C_23  and  O_24
REMARK                            x       y       z     vdW  Elec       q    Type
REMARK                         _______ _______ _______ _____ _____    ______ ____
ROOT
ATOM      1  C   UNL     1       2.356   7.408  19.435  0.00  0.00    +0.000 A 
ATOM      2  C   UNL     1       2.219   8.206  18.282  0.00  0.00    +0.000 A 
ATOM      3  C   UNL     1       1.394   9.332  18.296  0.00  0.00    +0.000 A 
ATOM      4  C   UNL     1       0.711   9.690  19.463  0.00  0.00    +0.000 A 
ATOM      5  C   UNL     1       0.853   8.908  20.618  0.00  0.00    +0.000 A 
ATOM      6  C   UNL     1       1.659   7.768  20.598  0.00  0.00    +0.000 A 
ENDROOT
BRANCH   1   8
ATOM      7  C   UNL     1       4.143   5.938  18.540  0.00  0.00    +0.000 C 
ATOM      8  C   UNL     1       3.206   6.195  19.463  0.00  0.00    +0.000 C 
BRANCH   7   9
ATOM      9  C   UNL     1       4.985   4.705  18.591  0.00  0.00    +0.000 C 
BRANCH   9  10
ATOM     10  C   UNL     1       6.214   4.960  19.459  0.00  0.00    +0.000 C 
BRANCH  10  11
ATOM     11  C   UNL     1       7.451   5.104  18.579  0.00  0.00    +0.000 C 
BRANCH  11  12
ATOM     12  C   UNL     1       7.681   6.565  18.203  0.00  0.00    +0.000 C 
BRANCH  12  13
ATOM     13  C   UNL     1       7.196   6.819  16.777  0.00  0.00    +0.000 C 
BRANCH  13  14
ATOM     14  C   UNL     1       7.274   5.543  15.944  0.00  0.00    +0.000 C 
BRANCH  14  15
ATOM     15  C   UNL     1       6.020   5.394  15.083  0.00  0.00    +0.000 C 
BRANCH  15  16
ATOM     16  C   UNL     1       5.830   3.939  14.653  0.00  0.00    +0.000 C 
BRANCH  16  18
ATOM     17  C   UNL     1       5.907   3.032  12.309  0.00  0.00    +0.000 C 
ATOM     18  C   UNL     1       5.110   3.865  13.305  0.00  0.00    +0.000 C 
ENDBRANCH  16  18
ENDBRANCH  15  16
ENDBRANCH  14  15
ENDBRANCH  13  14
ENDBRANCH  12  13
ENDBRANCH  11  12
ENDBRANCH  10  11
ENDBRANCH   9  10
ENDBRANCH   7   9
ENDBRANCH   1   8
BRANCH   4  19
ATOM     19  C   UNL     1      -0.161  10.909  19.474  0.00  0.00    +0.000 C 
BRANCH  19  20
ATOM     20  O   UNL     1      -0.773  11.061  18.205  0.00  0.00    +0.000 OA
BRANCH  20  21
ATOM     21  C   UNL     1      -2.034  10.414  18.194  0.00  0.00    +0.000 C 
ATOM     22  C   UNL     1      -3.140  11.454  18.057  0.00  0.00    +0.000 C 
ATOM     23  N   UNL     1      -3.169  11.862  16.649  0.00  0.00    +0.000 NA
ATOM     24  CA  UNL     1      -2.526  10.766  15.902  0.00  0.00    +0.000 C 
ATOM     25  C   UNL     1      -2.268   9.644  16.907  0.00  0.00    +0.000 C 
ATOM     26  H   UNL     1      -2.582  12.723  16.538  0.00  0.00    +0.000 HD
BRANCH  24  27
ATOM     27  C   UNL     1      -3.415  10.277  14.749  0.00  0.00    +0.000 C 
BRANCH  27  28
ATOM     28  O   UNL     1      -2.656  10.066  13.590  0.00  0.00    +0.000 OA
ATOM     29  H   UNL     1      -2.029   9.322  13.794  0.00  0.00    +0.000 HD
ENDBRANCH  27  28
ENDBRANCH  24  27
ENDBRANCH  20  21
ENDBRANCH  19  20
ENDBRANCH   4  19
TORSDOF 15
ENDMDL
MODEL 7
REMARK VINA RESULT:      -6.4      3.422      8.933
REMARK  Name = 
REMARK  16 active torsions:
REMARK  status: ('A' for Active; 'I' for Inactive)
REMARK    1  A    between atoms: C_1  and  C_2
REMARK    2  A    between atoms: C_2  and  C_3
REMARK    3  A    between atoms: C_3  and  C_4
REMARK    4  A    between atoms: C_4  and  C_5
REMARK    5  A    between atoms: C_5  and  C_6
REMARK    6  A    between atoms: C_6  and  C_7
REMARK    7  A    between atoms: C_7  and  C_8
REMARK    8  A    between atoms: C_8  and  C_9
REMARK    9  A    between atoms: C_9  and  C_10
REMARK   10  A    between atoms: C_10  and  C_11
REMARK   11  A    between atoms: C_12  and  C_13
REMARK   12  A    between atoms: C_16  and  C_17
REMARK   13  A    between atoms: C_17  and  O_18
REMARK   14  A    between atoms: O_18  and  C_19
REMARK   15  A    between atoms: CA_22  and  C_23
REMARK   16  A    between atoms: C_23  and  O_24
REMARK                            x       y       z     vdW  Elec       q    Type
REMARK                         _______ _______ _______ _____ _____    ______ ____
ROOT
ATOM      1  C   UNL     1       1.801   6.996  20.172  0.00  0.00    +0.000 A 
ATOM      2  C   UNL     1       2.391   7.458  18.978  0.00  0.00    +0.000 A 
ATOM      3  C   UNL     1       2.992   6.559  18.094  0.00  0.00    +0.000 A 
ATOM      4  C   UNL     1       2.993   5.188  18.377  0.00  0.00    +0.000 A 
ATOM      5  C   UNL     1       2.396   4.721  19.556  0.00  0.00    +0.000 A 
ATOM      6  C   UNL     1       1.817   5.621  20.452  0.00  0.00    +0.000 A 
ENDROOT
BRANCH   1   8
ATOM      7  C   UNL     1       0.737   9.140  20.824  0.00  0.00    +0.000 C 
ATOM      8  C   UNL     1       1.167   7.913  21.148  0.00  0.00    +0.000 C 
BRANCH   7   9
ATOM      9  C   UNL     1       0.103  10.046  21.831  0.00  0.00    +0.000 C 
BRANCH   9  10
ATOM     10  C   UNL     1       0.159  11.486  21.331  0.00  0.00    +0.000 C 
BRANCH  10  11
ATOM     11  C   UNL     1       0.384  11.505  19.823  0.00  0.00    +0.000 C 
BRANCH  11  12
ATOM     12  C   UNL     1      -0.699  12.322  19.124  0.00  0.00    +0.000 C 
BRANCH  12  13
ATOM     13  C   UNL     1      -2.061  12.025  19.747  0.00  0.00    +0.000 C 
BRANCH  13  14
ATOM     14  C   UNL     1      -3.044  11.532  18.688  0.00  0.00    +0.000 C 
BRANCH  14  15
ATOM     15  C   UNL     1      -2.349  10.571  17.725  0.00  0.00    +0.000 C 
BRANCH  15  16
ATOM     16  C   UNL     1      -2.594  10.987  16.275  0.00  0.00    +0.000 C 
BRANCH  16  18
ATOM     17  C   UNL     1      -3.545  10.113  14.117  0.00  0.00    +0.000 C 
ATOM     18  C   UNL     1      -2.776   9.757  15.384  0.00  0.00    +0.000 C 
ENDBRANCH  16  18
ENDBRANCH  15  16
ENDBRANCH  14  15
ENDBRANCH  13  14
ENDBRANCH  12  13
ENDBRANCH  11  12
ENDBRANCH  10  11
ENDBRANCH   9  10
ENDBRANCH   7   9
ENDBRANCH   1   8
BRANCH   4  19
ATOM     19  C   UNL     1       3.627   4.229  17.415  0.00  0.00    +0.000 C 
BRANCH  19  20
ATOM     20  O   UNL     1       4.526   4.930  16.574  0.00  0.00    +0.000 OA
BRANCH  20  21
ATOM     21  C   UNL     1       5.807   4.325  16.622  0.00  0.00    +0.000 C 
ATOM     22  C   UNL     1       6.803   5.177  15.845  0.00  0.00    +0.000 C 
ATOM     23  N   UNL     1       7.146   6.319  16.699  0.00  0.00    +0.000 NA
ATOM     24  CA  UNL     1       6.823   5.899  18.075  0.00  0.00    +0.000 C 
ATOM     25  C   UNL     1       6.432   4.423  18.001  0.00  0.00    +0.000 C 
ATOM     26  H   UNL     1       6.523   7.124  16.447  0.00  0.00    +0.000 HD
BRANCH  24  27
ATOM     27  C   UNL     1       8.017   6.106  19.018  0.00  0.00    +0.000 C 
BRANCH  27  28
ATOM     28  O   UNL     1       7.734   5.607  20.297  0.00  0.00    +0.000 OA
ATOM     29  H   UNL     1       7.636   6.396  20.893  0.00  0.00    +0.000 HD
ENDBRANCH  27  28
ENDBRANCH  24  27
ENDBRANCH  20  21
ENDBRANCH  19  20
ENDBRANCH   4  19
TORSDOF 15
ENDMDL
MODEL 8
REMARK VINA RESULT:      -6.3      3.458      5.215
REMARK  Name = 
REMARK  16 active torsions:
REMARK  status: ('A' for Active; 'I' for Inactive)
REMARK    1  A    between atoms: C_1  and  C_2
REMARK    2  A    between atoms: C_2  and  C_3
REMARK    3  A    between atoms: C_3  and  C_4
REMARK    4  A    between atoms: C_4  and  C_5
REMARK    5  A    between atoms: C_5  and  C_6
REMARK    6  A    between atoms: C_6  and  C_7
REMARK    7  A    between atoms: C_7  and  C_8
REMARK    8  A    between atoms: C_8  and  C_9
REMARK    9  A    between atoms: C_9  and  C_10
REMARK   10  A    between atoms: C_10  and  C_11
REMARK   11  A    between atoms: C_12  and  C_13
REMARK   12  A    between atoms: C_16  and  C_17
REMARK   13  A    between atoms: C_17  and  O_18
REMARK   14  A    between atoms: O_18  and  C_19
REMARK   15  A    between atoms: CA_22  and  C_23
REMARK   16  A    between atoms: C_23  and  O_24
REMARK                            x       y       z     vdW  Elec       q    Type
REMARK                         _______ _______ _______ _____ _____    ______ ____
ROOT
ATOM      1  C   UNL     1       2.648   7.229  18.494  0.00  0.00    +0.000 A 
ATOM      2  C   UNL     1       2.383   8.290  17.605  0.00  0.00    +0.000 A 
ATOM      3  C   UNL     1       1.675   9.413  18.038  0.00  0.00    +0.000 A 
ATOM      4  C   UNL     1       1.241   9.504  19.365  0.00  0.00    +0.000 A 
ATOM      5  C   UNL     1       1.512   8.457  20.257  0.00  0.00    +0.000 A 
ATOM      6  C   UNL     1       2.199   7.324  19.820  0.00  0.00    +0.000 A 
ENDROOT
BRANCH   1   8
ATOM      7  C   UNL     1       4.473   5.563  18.710  0.00  0.00    +0.000 C 
ATOM      8  C   UNL     1       3.380   6.010  18.077  0.00  0.00    +0.000 C 
BRANCH   7   9
ATOM      9  C   UNL     1       5.195   4.331  18.266  0.00  0.00    +0.000 C 
BRANCH   9  10
ATOM     10  C   UNL     1       4.842   4.027  16.813  0.00  0.00    +0.000 C 
BRANCH  10  11
ATOM     11  C   UNL     1       5.613   4.959  15.884  0.00  0.00    +0.000 C 
BRANCH  11  12
ATOM     12  C   UNL     1       6.398   4.161  14.848  0.00  0.00    +0.000 C 
BRANCH  12  13
ATOM     13  C   UNL     1       5.571   4.001  13.574  0.00  0.00    +0.000 C 
BRANCH  13  14
ATOM     14  C   UNL     1       6.316   3.151  12.549  0.00  0.00    +0.000 C 
BRANCH  14  15
ATOM     15  C   UNL     1       5.385   2.769  11.399  0.00  0.00    +0.000 C 
BRANCH  15  16
ATOM     16  C   UNL     1       4.005   3.398  11.589  0.00  0.00    +0.000 C 
BRANCH  16  18
ATOM     17  C   UNL     1       3.008   4.353   9.487  0.00  0.00    +0.000 C 
ATOM     18  C   UNL     1       3.113   3.121  10.377  0.00  0.00    +0.000 C 
ENDBRANCH  16  18
ENDBRANCH  15  16
ENDBRANCH  14  15
ENDBRANCH  13  14
ENDBRANCH  12  13
ENDBRANCH  11  12
ENDBRANCH  10  11
ENDBRANCH   9  10
ENDBRANCH   7   9
ENDBRANCH   1   8
BRANCH   4  19
ATOM     19  C   UNL     1       0.494  10.720  19.824  0.00  0.00    +0.000 C 
BRANCH  19  20
ATOM     20  O   UNL     1       1.388  11.816  19.911  0.00  0.00    +0.000 OA
BRANCH  20  21
ATOM     21  C   UNL     1       1.112  12.749  18.880  0.00  0.00    +0.000 C 
ATOM     22  C   UNL     1       0.833  14.117  19.491  0.00  0.00    +0.000 C 
ATOM     23  N   UNL     1       2.130  14.689  19.867  0.00  0.00    +0.000 NA
ATOM     24  CA  UNL     1       3.131  13.980  19.049  0.00  0.00    +0.000 C 
ATOM     25  C   UNL     1       2.353  13.094  18.077  0.00  0.00    +0.000 C 
ATOM     26  H   UNL     1       2.314  14.467  20.875  0.00  0.00    +0.000 HD
BRANCH  24  27
ATOM     27  C   UNL     1       4.034  14.965  18.292  0.00  0.00    +0.000 C 
BRANCH  27  28
ATOM     28  O   UNL     1       3.573  15.157  16.982  0.00  0.00    +0.000 OA
ATOM     29  H   UNL     1       2.581  15.115  17.023  0.00  0.00    +0.000 HD
ENDBRANCH  27  28
ENDBRANCH  24  27
ENDBRANCH  20  21
ENDBRANCH  19  20
ENDBRANCH   4  19
TORSDOF 15
ENDMDL
MODEL 9
REMARK VINA RESULT:      -6.3      2.228      4.275
REMARK  Name = 
REMARK  16 active torsions:
REMARK  status: ('A' for Active; 'I' for Inactive)
REMARK    1  A    between atoms: C_1  and  C_2
REMARK    2  A    between atoms: C_2  and  C_3
REMARK    3  A    between atoms: C_3  and  C_4
REMARK    4  A    between atoms: C_4  and  C_5
REMARK    5  A    between atoms: C_5  and  C_6
REMARK    6  A    between atoms: C_6  and  C_7
REMARK    7  A    between atoms: C_7  and  C_8
REMARK    8  A    between atoms: C_8  and  C_9
REMARK    9  A    between atoms: C_9  and  C_10
REMARK   10  A    between atoms: C_10  and  C_11
REMARK   11  A    between atoms: C_12  and  C_13
REMARK   12  A    between atoms: C_16  and  C_17
REMARK   13  A    between atoms: C_17  and  O_18
REMARK   14  A    between atoms: O_18  and  C_19
REMARK   15  A    between atoms: CA_22  and  C_23
REMARK   16  A    between atoms: C_23  and  O_24
REMARK                            x       y       z     vdW  Elec       q    Type
REMARK                         _______ _______ _______ _____ _____    ______ ____
ROOT
ATOM      1  C   UNL     1       2.635   7.445  18.295  0.00  0.00    +0.000 A 
ATOM      2  C   UNL     1       2.351   7.142  19.642  0.00  0.00    +0.000 A 
ATOM      3  C   UNL     1       1.616   8.035  20.426  0.00  0.00    +0.000 A 
ATOM      4  C   UNL     1       1.138   9.228  19.875  0.00  0.00    +0.000 A 
ATOM      5  C   UNL     1       1.406   9.529  18.532  0.00  0.00    +0.000 A 
ATOM      6  C   UNL     1       2.160   8.650  17.754  0.00  0.00    +0.000 A 
ENDROOT
BRANCH   1   8
ATOM      7  C   UNL     1       4.490   6.945  16.727  0.00  0.00    +0.000 C 
ATOM      8  C   UNL     1       3.424   6.539  17.429  0.00  0.00    +0.000 C 
BRANCH   7   9
ATOM      9  C   UNL     1       5.267   6.008  15.858  0.00  0.00    +0.000 C 
BRANCH   9  10
ATOM     10  C   UNL     1       6.698   5.899  16.375  0.00  0.00    +0.000 C 
BRANCH  10  11
ATOM     11  C   UNL     1       6.805   4.752  17.373  0.00  0.00    +0.000 C 
BRANCH  11  12
ATOM     12  C   UNL     1       6.877   5.283  18.802  0.00  0.00    +0.000 C 
BRANCH  12  13
ATOM     13  C   UNL     1       5.587   4.951  19.549  0.00  0.00    +0.000 C 
BRANCH  13  14
ATOM     14  C   UNL     1       4.934   3.699  18.971  0.00  0.00    +0.000 C 
BRANCH  14  15
ATOM     15  C   UNL     1       3.562   3.474  19.605  0.00  0.00    +0.000 C 
BRANCH  15  16
ATOM     16  C   UNL     1       2.513   3.182  18.533  0.00  0.00    +0.000 C 
BRANCH  16  18
ATOM     17  C   UNL     1       1.149   3.808  20.551  0.00  0.00    +0.000 C 
ATOM     18  C   UNL     1       1.101   3.329  19.105  0.00  0.00    +0.000 C 
ENDBRANCH  16  18
ENDBRANCH  15  16
ENDBRANCH  14  15
ENDBRANCH  13  14
ENDBRANCH  12  13
ENDBRANCH  11  12
ENDBRANCH  10  11
ENDBRANCH   9  10
ENDBRANCH   7   9
ENDBRANCH   1   8
BRANCH   4  19
ATOM     19  C   UNL     1       0.337  10.173  20.720  0.00  0.00    +0.000 C 
BRANCH  19  20
ATOM     20  O   UNL     1       0.330  11.454  20.115  0.00  0.00    +0.000 OA
BRANCH  20  21
ATOM     21  C   UNL     1      -0.285  12.394  20.979  0.00  0.00    +0.000 C 
ATOM     22  C   UNL     1      -0.516  13.701  20.230  0.00  0.00    +0.000 C 
ATOM     23  N   UNL     1      -1.689  13.498  19.373  0.00  0.00    +0.000 NA
ATOM     24  CA  UNL     1      -2.428  12.369  19.968  0.00  0.00    +0.000 C 
ATOM     25  C   UNL     1      -1.727  12.033  21.283  0.00  0.00    +0.000 C 
ATOM     26  H   UNL     1      -1.361  13.210  18.420  0.00  0.00    +0.000 HD
BRANCH  24  27
ATOM     27  C   UNL     1      -3.902  12.729  20.207  0.00  0.00    +0.000 C 
BRANCH  27  28
ATOM     28  O   UNL     1      -4.566  12.942  18.991  0.00  0.00    +0.000 OA
ATOM     29  H   UNL     1      -4.435  13.900  18.761  0.00  0.00    +0.000 HD
ENDBRANCH  27  28
ENDBRANCH  24  27
ENDBRANCH  20  21
ENDBRANCH  19  20
ENDBRANCH   4  19
TORSDOF 15
ENDMDL
