MODEL 1
REMARK VINA RESULT:      -8.6      0.000      0.000
REMARK  Name = 
REMARK  7 active torsions:
REMARK  status: ('A' for Active; 'I' for Inactive)
REMARK    1  A    between atoms: N_1  and  C_2
REMARK    2  A    between atoms: C_2  and  C_3
REMARK    3  A    between atoms: C_2  and  C_20
REMARK    4  A    between atoms: C_3  and  O_4
REMARK    5  A    between atoms: O_4  and  C_5
REMARK    6  A    between atoms: C_11  and  O_12
REMARK    7  A    between atoms: O_12  and  C_13
REMARK                            x       y       z     vdW  Elec       q    Type
REMARK                         _______ _______ _______ _____ _____    ______ ____
ROOT
ATOM      1  C   UNL     1       3.158   4.180  18.029  0.00  0.00    +0.000 A 
ATOM      2  C   UNL     1       2.656   2.936  17.604  0.00  0.00    +0.000 A 
ATOM      3  C   UNL     1       1.617   2.301  18.285  0.00  0.00    +0.000 A 
ATOM      4  C   UNL     1       1.027   2.927  19.373  0.00  0.00    +0.000 A 
ATOM      5  C   UNL     1       1.489   4.176  19.782  0.00  0.00    +0.000 A 
ATOM      6  F   UNL     1       0.838   4.760  20.800  0.00  0.00    +0.000 F 
ATOM      7  C   UNL     1       2.587   4.795  19.165  0.00  0.00    +0.000 A 
ENDROOT
BRANCH   1   8
ATOM      8  O   UNL     1       4.182   4.842  17.386  0.00  0.00    +0.000 OA
BRANCH   8   9
ATOM      9  C   UNL     1       4.679   4.210  16.193  0.00  0.00    +0.000 C 
BRANCH   9  10
ATOM     10  C   UNL     1       6.222   4.148  16.163  0.00  0.00    +0.000 C 
BRANCH  10  11
ATOM     11  C   UNL     1       6.885   5.206  17.027  0.00  0.00    +0.000 A 
ATOM     12  C   UNL     1       7.435   4.843  18.266  0.00  0.00    +0.000 A 
ATOM     13  C   UNL     1       8.036   5.798  19.088  0.00  0.00    +0.000 A 
ATOM     14  C   UNL     1       8.103   7.127  18.680  0.00  0.00    +0.000 A 
ATOM     15  C   UNL     1       7.580   7.502  17.446  0.00  0.00    +0.000 A 
ATOM     16  C   UNL     1       6.977   6.549  16.622  0.00  0.00    +0.000 A 
ENDBRANCH  10  11
BRANCH  10  17
ATOM     17  N   UNL     1       6.702   4.254  14.770  0.00  0.00    +0.000 NA
ATOM     18  H   UNL     1       6.789   5.242  14.536  0.00  0.00    +0.000 HD
ATOM     19  H   UNL     1       5.989   3.891  14.141  0.00  0.00    +0.000 HD
ENDBRANCH  10  17
ENDBRANCH   9  10
ENDBRANCH   8   9
ENDBRANCH   1   8
BRANCH   7  20
ATOM     20  O   UNL     1       3.116   6.006  19.575  0.00  0.00    +0.000 OA
BRANCH  20  21
ATOM     21  C   UNL     1       2.434   7.177  19.308  0.00  0.00    +0.000 A 
ATOM     22  C   UNL     1       2.342   7.755  18.035  0.00  0.00    +0.000 A 
ATOM     23  C   UNL     1       1.693   8.983  17.866  0.00  0.00    +0.000 A 
ATOM     24  C   UNL     1       1.078   9.598  18.950  0.00  0.00    +0.000 A 
ATOM     25 CL   UNL     1       0.295  11.117  18.743  0.00  0.00    +0.000 Cl
ATOM     26  C   UNL     1       1.096   8.991  20.208  0.00  0.00    +0.000 A 
ATOM     27  C   UNL     1       1.774   7.780  20.382  0.00  0.00    +0.000 A 
ENDBRANCH  20  21
ENDBRANCH   7  20
TORSDOF 7
ENDMDL
MODEL 2
REMARK VINA RESULT:      -8.5      1.686      2.694
REMARK  Name = 
REMARK  7 active torsions:
REMARK  status: ('A' for Active; 'I' for Inactive)
REMARK    1  A    between atoms: N_1  and  C_2
REMARK    2  A    between atoms: C_2  and  C_3
REMARK    3  A    between atoms: C_2  and  C_20
REMARK    4  A    between atoms: C_3  and  O_4
REMARK    5  A    between atoms: O_4  and  C_5
REMARK    6  A    between atoms: C_11  and  O_12
REMARK    7  A    between atoms: O_12  and  C_13
REMARK                            x       y       z     vdW  Elec       q    Type
REMARK                         _______ _______ _______ _____ _____    ______ ____
ROOT
ATOM      1  C   UNL     1       3.188   4.183  18.093  0.00  0.00    +0.000 A 
ATOM      2  C   UNL     1       2.697   2.942  17.650  0.00  0.00    +0.000 A 
ATOM      3  C   UNL     1       1.622   2.319  18.284  0.00  0.00    +0.000 A 
ATOM      4  C   UNL     1       0.987   2.953  19.342  0.00  0.00    +0.000 A 
ATOM      5  C   UNL     1       1.441   4.200  19.767  0.00  0.00    +0.000 A 
ATOM      6  F   UNL     1       0.748   4.794  20.751  0.00  0.00    +0.000 F 
ATOM      7  C   UNL     1       2.572   4.807  19.198  0.00  0.00    +0.000 A 
ENDROOT
BRANCH   1   8
ATOM      8  O   UNL     1       4.247   4.834  17.495  0.00  0.00    +0.000 OA
BRANCH   8   9
ATOM      9  C   UNL     1       5.042   4.037  16.600  0.00  0.00    +0.000 C 
BRANCH   9  10
ATOM     10  C   UNL     1       6.302   4.785  16.112  0.00  0.00    +0.000 C 
BRANCH  10  11
ATOM     11  C   UNL     1       6.577   4.600  14.629  0.00  0.00    +0.000 A 
ATOM     12  C   UNL     1       5.818   3.676  13.896  0.00  0.00    +0.000 A 
ATOM     13  C   UNL     1       6.060   3.473  12.536  0.00  0.00    +0.000 A 
ATOM     14  C   UNL     1       7.059   4.196  11.890  0.00  0.00    +0.000 A 
ATOM     15  C   UNL     1       7.810   5.130  12.597  0.00  0.00    +0.000 A 
ATOM     16  C   UNL     1       7.569   5.335  13.958  0.00  0.00    +0.000 A 
ENDBRANCH  10  11
BRANCH  10  17
ATOM     17  N   UNL     1       7.476   4.365  16.903  0.00  0.00    +0.000 NA
ATOM     18  H   UNL     1       7.163   4.148  17.848  0.00  0.00    +0.000 HD
ATOM     19  H   UNL     1       8.111   5.154  17.005  0.00  0.00    +0.000 HD
ENDBRANCH  10  17
ENDBRANCH   9  10
ENDBRANCH   8   9
ENDBRANCH   1   8
BRANCH   7  20
ATOM     20  O   UNL     1       3.091   6.016  19.628  0.00  0.00    +0.000 OA
BRANCH  20  21
ATOM     21  C   UNL     1       2.423   7.190  19.341  0.00  0.00    +0.000 A 
ATOM     22  C   UNL     1       2.355   7.757  18.061  0.00  0.00    +0.000 A 
ATOM     23  C   UNL     1       1.719   8.989  17.871  0.00  0.00    +0.000 A 
ATOM     24  C   UNL     1       1.093   9.619  18.941  0.00  0.00    +0.000 A 
ATOM     25 CL   UNL     1       0.326  11.143  18.708  0.00  0.00    +0.000 Cl
ATOM     26  C   UNL     1       1.087   9.023  20.204  0.00  0.00    +0.000 A 
ATOM     27  C   UNL     1       1.752   7.809  20.399  0.00  0.00    +0.000 A 
ENDBRANCH  20  21
ENDBRANCH   7  20
TORSDOF 7
ENDMDL
MODEL 3
REMARK VINA RESULT:      -8.5      1.740      2.812
REMARK  Name = 
REMARK  7 active torsions:
REMARK  status: ('A' for Active; 'I' for Inactive)
REMARK    1  A    between atoms: N_1  and  C_2
REMARK    2  A    between atoms: C_2  and  C_3
REMARK    3  A    between atoms: C_2  and  C_20
REMARK    4  A    between atoms: C_3  and  O_4
REMARK    5  A    between atoms: O_4  and  C_5
REMARK    6  A    between atoms: C_11  and  O_12
REMARK    7  A    between atoms: O_12  and  C_13
REMARK                            x       y       z     vdW  Elec       q    Type
REMARK                         _______ _______ _______ _____ _____    ______ ____
ROOT
ATOM      1  C   UNL     1       4.028   4.077  18.177  0.00  0.00    +0.000 A 
ATOM      2  C   UNL     1       3.773   2.862  17.517  0.00  0.00    +0.000 A 
ATOM      3  C   UNL     1       2.574   2.172  17.703  0.00  0.00    +0.000 A 
ATOM      4  C   UNL     1       1.589   2.715  18.515  0.00  0.00    +0.000 A 
ATOM      5  C   UNL     1       1.815   3.937  19.146  0.00  0.00    +0.000 A 
ATOM      6  F   UNL     1       0.802   4.443  19.867  0.00  0.00    +0.000 F 
ATOM      7  C   UNL     1       3.044   4.606  19.039  0.00  0.00    +0.000 A 
ENDROOT
BRANCH   1   8
ATOM      8  O   UNL     1       5.198   4.791  18.021  0.00  0.00    +0.000 OA
BRANCH   8   9
ATOM      9  C   UNL     1       5.337   5.491  16.772  0.00  0.00    +0.000 C 
BRANCH   9  10
ATOM     10  C   UNL     1       6.747   5.327  16.164  0.00  0.00    +0.000 C 
BRANCH  10  11
ATOM     11  C   UNL     1       6.731   4.826  14.730  0.00  0.00    +0.000 A 
ATOM     12  C   UNL     1       7.700   5.285  13.825  0.00  0.00    +0.000 A 
ATOM     13  C   UNL     1       7.698   4.854  12.497  0.00  0.00    +0.000 A 
ATOM     14  C   UNL     1       6.733   3.953  12.057  0.00  0.00    +0.000 A 
ATOM     15  C   UNL     1       5.775   3.473  12.945  0.00  0.00    +0.000 A 
ATOM     16  C   UNL     1       5.774   3.902  14.274  0.00  0.00    +0.000 A 
ENDBRANCH  10  11
BRANCH  10  17
ATOM     17  N   UNL     1       7.558   4.425  17.008  0.00  0.00    +0.000 NA
ATOM     18  H   UNL     1       8.107   4.995  17.649  0.00  0.00    +0.000 HD
ATOM     19  H   UNL     1       8.240   3.944  16.424  0.00  0.00    +0.000 HD
ENDBRANCH  10  17
ENDBRANCH   9  10
ENDBRANCH   8   9
ENDBRANCH   1   8
BRANCH   7  20
ATOM     20  O   UNL     1       3.331   5.791  19.695  0.00  0.00    +0.000 OA
BRANCH  20  21
ATOM     21  C   UNL     1       2.627   6.936  19.381  0.00  0.00    +0.000 A 
ATOM     22  C   UNL     1       2.544   7.474  18.090  0.00  0.00    +0.000 A 
ATOM     23  C   UNL     1       1.869   8.680  17.873  0.00  0.00    +0.000 A 
ATOM     24  C   UNL     1       1.221   9.312  18.928  0.00  0.00    +0.000 A 
ATOM     25 CL   UNL     1       0.406  10.805  18.661  0.00  0.00    +0.000 Cl
ATOM     26  C   UNL     1       1.231   8.743  20.203  0.00  0.00    +0.000 A 
ATOM     27  C   UNL     1       1.934   7.555  20.425  0.00  0.00    +0.000 A 
ENDBRANCH  20  21
ENDBRANCH   7  20
TORSDOF 7
ENDMDL
MODEL 4
REMARK VINA RESULT:      -8.5      0.456      1.062
REMARK  Name = 
REMARK  7 active torsions:
REMARK  status: ('A' for Active; 'I' for Inactive)
REMARK    1  A    between atoms: N_1  and  C_2
REMARK    2  A    between atoms: C_2  and  C_3
REMARK    3  A    between atoms: C_2  and  C_20
REMARK    4  A    between atoms: C_3  and  O_4
REMARK    5  A    between atoms: O_4  and  C_5
REMARK    6  A    between atoms: C_11  and  O_12
REMARK    7  A    between atoms: O_12  and  C_13
REMARK                            x       y       z     vdW  Elec       q    Type
REMARK                         _______ _______ _______ _____ _____    ______ ____
ROOT
ATOM      1  C   UNL     1       2.913   4.161  17.919  0.00  0.00    +0.000 A 
ATOM      2  C   UNL     1       2.331   2.921  17.600  0.00  0.00    +0.000 A 
ATOM      3  C   UNL     1       1.387   2.325  18.436  0.00  0.00    +0.000 A 
ATOM      4  C   UNL     1       0.969   2.987  19.581  0.00  0.00    +0.000 A 
ATOM      5  C   UNL     1       1.510   4.233  19.890  0.00  0.00    +0.000 A 
ATOM      6  F   UNL     1       1.021   4.854  20.975  0.00  0.00    +0.000 F 
ATOM      7  C   UNL     1       2.522   4.813  19.108  0.00  0.00    +0.000 A 
ENDROOT
BRANCH   1   8
ATOM      8  O   UNL     1       3.849   4.785  17.121  0.00  0.00    +0.000 OA
BRANCH   8   9
ATOM      9  C   UNL     1       4.890   3.939  16.605  0.00  0.00    +0.000 C 
BRANCH   9  10
ATOM     10  C   UNL     1       6.054   4.749  15.994  0.00  0.00    +0.000 C 
BRANCH  10  11
ATOM     11  C   UNL     1       6.826   5.564  17.018  0.00  0.00    +0.000 A 
ATOM     12  C   UNL     1       7.057   6.928  16.785  0.00  0.00    +0.000 A 
ATOM     13  C   UNL     1       7.777   7.696  17.701  0.00  0.00    +0.000 A 
ATOM     14  C   UNL     1       8.269   7.114  18.866  0.00  0.00    +0.000 A 
ATOM     15  C   UNL     1       8.033   5.767  19.123  0.00  0.00    +0.000 A 
ATOM     16  C   UNL     1       7.313   4.995  18.208  0.00  0.00    +0.000 A 
ENDBRANCH  10  11
BRANCH  10  17
ATOM     17  N   UNL     1       5.546   5.630  14.923  0.00  0.00    +0.000 NA
ATOM     18  H   UNL     1       5.936   5.313  14.037  0.00  0.00    +0.000 HD
ATOM     19  H   UNL     1       5.915   6.569  15.059  0.00  0.00    +0.000 HD
ENDBRANCH  10  17
ENDBRANCH   9  10
ENDBRANCH   8   9
ENDBRANCH   1   8
BRANCH   7  20
ATOM     20  O   UNL     1       3.127   6.020  19.410  0.00  0.00    +0.000 OA
BRANCH  20  21
ATOM     21  C   UNL     1       2.450   7.202  19.183  0.00  0.00    +0.000 A 
ATOM     22  C   UNL     1       2.362   7.824  17.930  0.00  0.00    +0.000 A 
ATOM     23  C   UNL     1       1.718   9.060  17.802  0.00  0.00    +0.000 A 
ATOM     24  C   UNL     1       1.105   9.640  18.906  0.00  0.00    +0.000 A 
ATOM     25 CL   UNL     1       0.328  11.169  18.750  0.00  0.00    +0.000 Cl
ATOM     26  C   UNL     1       1.119   8.990  20.142  0.00  0.00    +0.000 A 
ATOM     27  C   UNL     1       1.792   7.772  20.275  0.00  0.00    +0.000 A 
ENDBRANCH  20  21
ENDBRANCH   7  20
TORSDOF 7
ENDMDL
MODEL 5
REMARK VINA RESULT:      -8.4      0.373      1.036
REMARK  Name = 
REMARK  7 active torsions:
REMARK  status: ('A' for Active; 'I' for Inactive)
REMARK    1  A    between atoms: N_1  and  C_2
REMARK    2  A    between atoms: C_2  and  C_3
REMARK    3  A    between atoms: C_2  and  C_20
REMARK    4  A    between atoms: C_3  and  O_4
REMARK    5  A    between atoms: O_4  and  C_5
REMARK    6  A    between atoms: C_11  and  O_12
REMARK    7  A    between atoms: O_12  and  C_13
REMARK                            x       y       z     vdW  Elec       q    Type
REMARK                         _______ _______ _______ _____ _____    ______ ____
ROOT
ATOM      1  C   UNL     1       3.119   4.215  17.991  0.00  0.00    +0.000 A 
ATOM      2  C   UNL     1       2.567   2.973  17.630  0.00  0.00    +0.000 A 
ATOM      3  C   UNL     1       1.535   2.394  18.369  0.00  0.00    +0.000 A 
ATOM      4  C   UNL     1       1.003   3.075  19.454  0.00  0.00    +0.000 A 
ATOM      5  C   UNL     1       1.516   4.324  19.800  0.00  0.00    +0.000 A 
ATOM      6  F   UNL     1       0.919   4.963  20.818  0.00  0.00    +0.000 F 
ATOM      7  C   UNL     1       2.608   4.887  19.122  0.00  0.00    +0.000 A 
ENDROOT
BRANCH   1   8
ATOM      8  O   UNL     1       4.138   4.823  17.287  0.00  0.00    +0.000 OA
BRANCH   8   9
ATOM      9  C   UNL     1       4.817   3.990  16.331  0.00  0.00    +0.000 C 
BRANCH   9  10
ATOM     10  C   UNL     1       6.132   4.626  15.831  0.00  0.00    +0.000 C 
BRANCH  10  11
ATOM     11  C   UNL     1       6.845   5.451  16.890  0.00  0.00    +0.000 A 
ATOM     12  C   UNL     1       7.364   4.815  18.028  0.00  0.00    +0.000 A 
ATOM     13  C   UNL     1       8.008   5.550  19.024  0.00  0.00    +0.000 A 
ATOM     14  C   UNL     1       8.150   6.929  18.893  0.00  0.00    +0.000 A 
ATOM     15  C   UNL     1       7.657   7.574  17.762  0.00  0.00    +0.000 A 
ATOM     16  C   UNL     1       7.012   6.840  16.764  0.00  0.00    +0.000 A 
ENDBRANCH  10  11
BRANCH  10  17
ATOM     17  N   UNL     1       5.869   5.452  14.635  0.00  0.00    +0.000 NA
ATOM     18  H   UNL     1       6.513   6.242  14.644  0.00  0.00    +0.000 HD
ATOM     19  H   UNL     1       4.940   5.863  14.710  0.00  0.00    +0.000 HD
ENDBRANCH  10  17
ENDBRANCH   9  10
ENDBRANCH   8   9
ENDBRANCH   1   8
BRANCH   7  20
ATOM     20  O   UNL     1       3.186   6.096  19.469  0.00  0.00    +0.000 OA
BRANCH  20  21
ATOM     21  C   UNL     1       2.462   7.264  19.337  0.00  0.00    +0.000 A 
ATOM     22  C   UNL     1       1.807   7.902  20.400  0.00  0.00    +0.000 A 
ATOM     23  C   UNL     1       1.033   9.043  20.165  0.00  0.00    +0.000 A 
ATOM     24  C   UNL     1       0.968   9.587  18.887  0.00  0.00    +0.000 A 
ATOM     25 CL   UNL     1       0.002  10.982  18.597  0.00  0.00    +0.000 Cl
ATOM     26  C   UNL     1       1.682   9.005  17.837  0.00  0.00    +0.000 A 
ATOM     27  C   UNL     1       2.427   7.845  18.067  0.00  0.00    +0.000 A 
ENDBRANCH  20  21
ENDBRANCH   7  20
TORSDOF 7
ENDMDL
MODEL 6
REMARK VINA RESULT:      -8.4      1.700      2.873
REMARK  Name = 
REMARK  7 active torsions:
REMARK  status: ('A' for Active; 'I' for Inactive)
REMARK    1  A    between atoms: N_1  and  C_2
REMARK    2  A    between atoms: C_2  and  C_3
REMARK    3  A    between atoms: C_2  and  C_20
REMARK    4  A    between atoms: C_3  and  O_4
REMARK    5  A    between atoms: O_4  and  C_5
REMARK    6  A    between atoms: C_11  and  O_12
REMARK    7  A    between atoms: O_12  and  C_13
REMARK                            x       y       z     vdW  Elec       q    Type
REMARK                         _______ _______ _______ _____ _____    ______ ____
ROOT
ATOM      1  C   UNL     1       3.607   3.948  18.315  0.00  0.00    +0.000 A 
ATOM      2  C   UNL     1       3.187   2.731  17.749  0.00  0.00    +0.000 A 
ATOM      3  C   UNL     1       1.978   2.138  18.115  0.00  0.00    +0.000 A 
ATOM      4  C   UNL     1       1.145   2.782  19.018  0.00  0.00    +0.000 A 
ATOM      5  C   UNL     1       1.532   4.006  19.559  0.00  0.00    +0.000 A 
ATOM      6  F   UNL     1       0.656   4.612  20.376  0.00  0.00    +0.000 F 
ATOM      7  C   UNL     1       2.780   4.580  19.268  0.00  0.00    +0.000 A 
ENDROOT
BRANCH   1   8
ATOM      8  O   UNL     1       4.792   4.568  17.980  0.00  0.00    +0.000 OA
BRANCH   8   9
ATOM      9  C   UNL     1       4.899   5.012  16.616  0.00  0.00    +0.000 C 
BRANCH   9  10
ATOM     10  C   UNL     1       6.368   5.124  16.150  0.00  0.00    +0.000 C 
BRANCH  10  11
ATOM     11  C   UNL     1       6.566   4.762  14.688  0.00  0.00    +0.000 A 
ATOM     12  C   UNL     1       5.709   3.830  14.084  0.00  0.00    +0.000 A 
ATOM     13  C   UNL     1       5.879   3.467  12.747  0.00  0.00    +0.000 A 
ATOM     14  C   UNL     1       6.901   4.036  11.994  0.00  0.00    +0.000 A 
ATOM     15  C   UNL     1       7.749   4.977  12.571  0.00  0.00    +0.000 A 
ATOM     16  C   UNL     1       7.582   5.342  13.909  0.00  0.00    +0.000 A 
ENDBRANCH  10  11
BRANCH  10  17
ATOM     17  N   UNL     1       7.232   4.282  17.004  0.00  0.00    +0.000 NA
ATOM     18  H   UNL     1       8.158   4.705  17.035  0.00  0.00    +0.000 HD
ATOM     19  H   UNL     1       7.364   3.377  16.556  0.00  0.00    +0.000 HD
ENDBRANCH  10  17
ENDBRANCH   9  10
ENDBRANCH   8   9
ENDBRANCH   1   8
BRANCH   7  20
ATOM     20  O   UNL     1       3.228   5.764  19.826  0.00  0.00    +0.000 OA
BRANCH  20  21
ATOM     21  C   UNL     1       2.544   6.939  19.584  0.00  0.00    +0.000 A 
ATOM     22  C   UNL     1       1.804   7.626  20.555  0.00  0.00    +0.000 A 
ATOM     23  C   UNL     1       1.079   8.771  20.207  0.00  0.00    +0.000 A 
ATOM     24  C   UNL     1       1.148   9.268  18.910  0.00  0.00    +0.000 A 
ATOM     25 CL   UNL     1       0.242  10.667  18.479  0.00  0.00    +0.000 Cl
ATOM     26  C   UNL     1       1.947   8.635  17.955  0.00  0.00    +0.000 A 
ATOM     27  C   UNL     1       2.643   7.472  18.297  0.00  0.00    +0.000 A 
ENDBRANCH  20  21
ENDBRANCH   7  20
TORSDOF 7
ENDMDL
MODEL 7
REMARK VINA RESULT:      -8.3      1.730      2.941
REMARK  Name = 
REMARK  7 active torsions:
REMARK  status: ('A' for Active; 'I' for Inactive)
REMARK    1  A    between atoms: N_1  and  C_2
REMARK    2  A    between atoms: C_2  and  C_3
REMARK    3  A    between atoms: C_2  and  C_20
REMARK    4  A    between atoms: C_3  and  O_4
REMARK    5  A    between atoms: O_4  and  C_5
REMARK    6  A    between atoms: C_11  and  O_12
REMARK    7  A    between atoms: O_12  and  C_13
REMARK                            x       y       z     vdW  Elec       q    Type
REMARK                         _______ _______ _______ _____ _____    ______ ____
ROOT
ATOM      1  C   UNL     1       3.445   3.927  18.316  0.00  0.00    +0.000 A 
ATOM      2  C   UNL     1       2.959   2.696  17.839  0.00  0.00    +0.000 A 
ATOM      3  C   UNL     1       1.779   2.140  18.333  0.00  0.00    +0.000 A 
ATOM      4  C   UNL     1       1.037   2.834  19.278  0.00  0.00    +0.000 A 
ATOM      5  C   UNL     1       1.488   4.072  19.732  0.00  0.00    +0.000 A 
ATOM      6  F   UNL     1       0.696   4.724  20.598  0.00  0.00    +0.000 F 
ATOM      7  C   UNL     1       2.713   4.611  19.311  0.00  0.00    +0.000 A 
ENDROOT
BRANCH   1   8
ATOM      8  O   UNL     1       4.605   4.513  17.854  0.00  0.00    +0.000 OA
BRANCH   8   9
ATOM      9  C   UNL     1       5.096   4.014  16.598  0.00  0.00    +0.000 C 
BRANCH   9  10
ATOM     10  C   UNL     1       6.260   4.865  16.045  0.00  0.00    +0.000 C 
BRANCH  10  11
ATOM     11  C   UNL     1       6.544   4.616  14.573  0.00  0.00    +0.000 A 
ATOM     12  C   UNL     1       7.574   5.325  13.938  0.00  0.00    +0.000 A 
ATOM     13  C   UNL     1       7.846   5.129  12.583  0.00  0.00    +0.000 A 
ATOM     14  C   UNL     1       7.097   4.215  11.847  0.00  0.00    +0.000 A 
ATOM     15  C   UNL     1       6.083   3.489  12.465  0.00  0.00    +0.000 A 
ATOM     16  C   UNL     1       5.809   3.684  13.820  0.00  0.00    +0.000 A 
ENDBRANCH  10  11
BRANCH  10  17
ATOM     17  N   UNL     1       7.480   4.630  16.845  0.00  0.00    +0.000 NA
ATOM     18  H   UNL     1       7.204   4.222  17.736  0.00  0.00    +0.000 HD
ATOM     19  H   UNL     1       7.904   5.526  17.079  0.00  0.00    +0.000 HD
ENDBRANCH  10  17
ENDBRANCH   9  10
ENDBRANCH   8   9
ENDBRANCH   1   8
BRANCH   7  20
ATOM     20  O   UNL     1       3.226   5.808  19.779  0.00  0.00    +0.000 OA
BRANCH  20  21
ATOM     21  C   UNL     1       2.544   6.985  19.543  0.00  0.00    +0.000 A 
ATOM     22  C   UNL     1       1.849   7.697  20.530  0.00  0.00    +0.000 A 
ATOM     23  C   UNL     1       1.122   8.843  20.189  0.00  0.00    +0.000 A 
ATOM     24  C   UNL     1       1.145   9.316  18.882  0.00  0.00    +0.000 A 
ATOM     25 CL   UNL     1       0.236  10.717  18.462  0.00  0.00    +0.000 Cl
ATOM     26  C   UNL     1       1.899   8.658  17.908  0.00  0.00    +0.000 A 
ATOM     27  C   UNL     1       2.597   7.494  18.243  0.00  0.00    +0.000 A 
ENDBRANCH  20  21
ENDBRANCH   7  20
TORSDOF 7
ENDMDL
MODEL 8
REMARK VINA RESULT:      -8.2      1.878      3.032
REMARK  Name = 
REMARK  7 active torsions:
REMARK  status: ('A' for Active; 'I' for Inactive)
REMARK    1  A    between atoms: N_1  and  C_2
REMARK    2  A    between atoms: C_2  and  C_3
REMARK    3  A    between atoms: C_2  and  C_20
REMARK    4  A    between atoms: C_3  and  O_4
REMARK    5  A    between atoms: O_4  and  C_5
REMARK    6  A    between atoms: C_11  and  O_12
REMARK    7  A    between atoms: O_12  and  C_13
REMARK                            x       y       z     vdW  Elec       q    Type
REMARK                         _______ _______ _______ _____ _____    ______ ____
ROOT
ATOM      1  C   UNL     1       4.272   4.344  18.561  0.00  0.00    +0.000 A 
ATOM      2  C   UNL     1       4.207   2.989  18.932  0.00  0.00    +0.000 A 
ATOM      3  C   UNL     1       3.035   2.249  18.778  0.00  0.00    +0.000 A 
ATOM      4  C   UNL     1       1.921   2.841  18.201  0.00  0.00    +0.000 A 
ATOM      5  C   UNL     1       1.983   4.172  17.795  0.00  0.00    +0.000 A 
ATOM      6  F   UNL     1       0.896   4.671  17.185  0.00  0.00    +0.000 F 
ATOM      7  C   UNL     1       3.124   4.959  18.016  0.00  0.00    +0.000 A 
ENDROOT
BRANCH   1   8
ATOM      8  O   UNL     1       5.411   5.111  18.695  0.00  0.00    +0.000 OA
BRANCH   8   9
ATOM      9  C   UNL     1       6.459   4.840  17.749  0.00  0.00    +0.000 C 
BRANCH   9  10
ATOM     10  C   UNL     1       6.439   5.819  16.555  0.00  0.00    +0.000 C 
BRANCH  10  11
ATOM     11  C   UNL     1       6.411   5.125  15.205  0.00  0.00    +0.000 A 
ATOM     12  C   UNL     1       5.324   4.303  14.872  0.00  0.00    +0.000 A 
ATOM     13  C   UNL     1       5.280   3.639  13.645  0.00  0.00    +0.000 A 
ATOM     14  C   UNL     1       6.319   3.793  12.731  0.00  0.00    +0.000 A 
ATOM     15  C   UNL     1       7.397   4.619  13.036  0.00  0.00    +0.000 A 
ATOM     16  C   UNL     1       7.443   5.284  14.264  0.00  0.00    +0.000 A 
ENDBRANCH  10  11
BRANCH  10  17
ATOM     17  N   UNL     1       7.597   6.732  16.634  0.00  0.00    +0.000 NA
ATOM     18  H   UNL     1       7.249   7.689  16.674  0.00  0.00    +0.000 HD
ATOM     19  H   UNL     1       8.127   6.676  15.766  0.00  0.00    +0.000 HD
ENDBRANCH  10  17
ENDBRANCH   9  10
ENDBRANCH   8   9
ENDBRANCH   1   8
BRANCH   7  20
ATOM     20  O   UNL     1       3.209   6.299  17.682  0.00  0.00    +0.000 OA
BRANCH  20  21
ATOM     21  C   UNL     1       2.549   7.239  18.449  0.00  0.00    +0.000 A 
ATOM     22  C   UNL     1       2.300   7.095  19.821  0.00  0.00    +0.000 A 
ATOM     23  C   UNL     1       1.559   8.063  20.507  0.00  0.00    +0.000 A 
ATOM     24  C   UNL     1       1.127   9.206  19.843  0.00  0.00    +0.000 A 
ATOM     25 CL   UNL     1       0.200  10.387  20.685  0.00  0.00    +0.000 Cl
ATOM     26  C   UNL     1       1.437   9.396  18.494  0.00  0.00    +0.000 A 
ATOM     27  C   UNL     1       2.149   8.412  17.802  0.00  0.00    +0.000 A 
ENDBRANCH  20  21
ENDBRANCH   7  20
TORSDOF 7
ENDMDL
MODEL 9
REMARK VINA RESULT:      -8.0      2.311      4.952
REMARK  Name = 
REMARK  7 active torsions:
REMARK  status: ('A' for Active; 'I' for Inactive)
REMARK    1  A    between atoms: N_1  and  C_2
REMARK    2  A    between atoms: C_2  and  C_3
REMARK    3  A    between atoms: C_2  and  C_20
REMARK    4  A    between atoms: C_3  and  O_4
REMARK    5  A    between atoms: O_4  and  C_5
REMARK    6  A    between atoms: C_11  and  O_12
REMARK    7  A    between atoms: O_12  and  C_13
REMARK                            x       y       z     vdW  Elec       q    Type
REMARK                         _______ _______ _______ _____ _____    ______ ____
ROOT
ATOM      1  C   UNL     1       5.163   4.835  17.570  0.00  0.00    +0.000 A 
ATOM      2  C   UNL     1       6.416   4.269  17.868  0.00  0.00    +0.000 A 
ATOM      3  C   UNL     1       7.566   5.053  17.952  0.00  0.00    +0.000 A 
ATOM      4  C   UNL     1       7.472   6.428  17.790  0.00  0.00    +0.000 A 
ATOM      5  C   UNL     1       6.231   7.006  17.531  0.00  0.00    +0.000 A 
ATOM      6  F   UNL     1       6.191   8.345  17.447  0.00  0.00    +0.000 F 
ATOM      7  C   UNL     1       5.075   6.227  17.359  0.00  0.00    +0.000 A 
ENDROOT
BRANCH   1   8
ATOM      8  O   UNL     1       4.002   4.096  17.478  0.00  0.00    +0.000 OA
BRANCH   8   9
ATOM      9  C   UNL     1       4.167   2.725  17.076  0.00  0.00    +0.000 C 
BRANCH   9  10
ATOM     10  C   UNL     1       3.372   1.752  17.975  0.00  0.00    +0.000 C 
BRANCH  10  11
ATOM     11  C   UNL     1       2.658   2.440  19.125  0.00  0.00    +0.000 A 
ATOM     12  C   UNL     1       1.355   2.927  18.937  0.00  0.00    +0.000 A 
ATOM     13  C   UNL     1       0.681   3.578  19.971  0.00  0.00    +0.000 A 
ATOM     14  C   UNL     1       1.296   3.744  21.209  0.00  0.00    +0.000 A 
ATOM     15  C   UNL     1       2.580   3.251  21.419  0.00  0.00    +0.000 A 
ATOM     16  C   UNL     1       3.257   2.599  20.386  0.00  0.00    +0.000 A 
ENDBRANCH  10  11
BRANCH  10  17
ATOM     17  N   UNL     1       4.269   0.698  18.491  0.00  0.00    +0.000 NA
ATOM     18  H   UNL     1       4.865   1.108  19.209  0.00  0.00    +0.000 HD
ATOM     19  H   UNL     1       4.903   0.405  17.750  0.00  0.00    +0.000 HD
ENDBRANCH  10  17
ENDBRANCH   9  10
ENDBRANCH   8   9
ENDBRANCH   1   8
BRANCH   7  20
ATOM     20  O   UNL     1       3.835   6.754  17.044  0.00  0.00    +0.000 OA
BRANCH  20  21
ATOM     21  C   UNL     1       3.053   7.308  18.038  0.00  0.00    +0.000 A 
ATOM     22  C   UNL     1       2.859   6.723  19.297  0.00  0.00    +0.000 A 
ATOM     23  C   UNL     1       1.989   7.314  20.220  0.00  0.00    +0.000 A 
ATOM     24  C   UNL     1       1.370   8.521  19.916  0.00  0.00    +0.000 A 
ATOM     25 CL   UNL     1       0.288   9.237  21.047  0.00  0.00    +0.000 Cl
ATOM     26  C   UNL     1       1.619   9.152  18.695  0.00  0.00    +0.000 A 
ATOM     27  C   UNL     1       2.461   8.543  17.760  0.00  0.00    +0.000 A 
ENDBRANCH  20  21
ENDBRANCH   7  20
TORSDOF 7
ENDMDL
