MODEL 1
REMARK VINA RESULT:      -7.5      0.000      0.000
REMARK  Name = 
REMARK  7 active torsions:
REMARK  status: ('A' for Active; 'I' for Inactive)
REMARK    1  A    between atoms: C_1  and  O_2
REMARK    2  A    between atoms: O_2  and  C_3
REMARK    3  A    between atoms: C_6  and  C_7
REMARK    4  A    between atoms: C_8  and  C_9
REMARK    5  A    between atoms: C_11  and  C_12
REMARK    6  A    between atoms: C_17  and  O_18
REMARK    7  A    between atoms: O_18  and  C_19
REMARK                            x       y       z     vdW  Elec       q    Type
REMARK                         _______ _______ _______ _____ _____    ______ ____
ROOT
ATOM      1  C   UNL     1       3.445   5.347  18.205  0.00  0.00    +0.000 A 
ATOM      2  C   UNL     1       4.809   5.679  18.028  0.00  0.00    +0.000 A 
ATOM      3  C   UNL     1       5.637   4.912  17.198  0.00  0.00    +0.000 A 
ATOM      4  C   UNL     1       5.112   3.771  16.593  0.00  0.00    +0.000 A 
ATOM      5  C   UNL     1       3.774   3.424  16.783  0.00  0.00    +0.000 A 
ATOM      6  C   UNL     1       2.921   4.210  17.563  0.00  0.00    +0.000 A 
ENDROOT
BRANCH   3   7
ATOM      7  C   UNL     1       7.052   5.273  16.874  0.00  0.00    +0.000 C 
ATOM      8  N   UNL     1       7.316   6.513  16.369  0.00  0.00    +0.000 N 
ATOM      9  O   UNL     1       7.965   4.471  17.023  0.00  0.00    +0.000 OA
ATOM     10  H   UNL     1       6.624   7.209  16.134  0.00  0.00    +0.000 HD
ATOM     11  H   UNL     1       8.275   6.693  16.101  0.00  0.00    +0.000 HD
ENDBRANCH   3   7
BRANCH   1  13
ATOM     12  C   UNL     1       2.268   7.496  18.553  0.00  0.00    +0.000 C 
ATOM     13  C   UNL     1       2.640   6.284  18.992  0.00  0.00    +0.000 C 
BRANCH  12  17
ATOM     14  C   UNL     1       0.520  10.380  21.214  0.00  0.00    +0.000 A 
ATOM     15  C   UNL     1       0.954   9.138  21.675  0.00  0.00    +0.000 A 
ATOM     16  C   UNL     1       1.561   8.227  20.804  0.00  0.00    +0.000 A 
ATOM     17  C   UNL     1       1.720   8.534  19.445  0.00  0.00    +0.000 A 
ATOM     18  C   UNL     1       1.287   9.789  18.995  0.00  0.00    +0.000 A 
ATOM     19  C   UNL     1       0.679  10.701  19.869  0.00  0.00    +0.000 A 
BRANCH  14  21
ATOM     20  C   UNL     1      -0.872  10.498  23.116  0.00  0.00    +0.000 C 
ATOM     21  O   UNL     1      -0.074  11.178  22.152  0.00  0.00    +0.000 OA
ENDBRANCH  14  21
ENDBRANCH  12  17
ENDBRANCH   1  13
BRANCH   6  22
ATOM     22  O   UNL     1       1.642   3.720  17.529  0.00  0.00    +0.000 OA
ATOM     23  C   UNL     1       1.180   2.768  18.469  0.00  0.00    +0.000 C 
ENDBRANCH   6  22
TORSDOF 5
ENDMDL
MODEL 2
REMARK VINA RESULT:      -7.4      6.396      9.153
REMARK  Name = 
REMARK  7 active torsions:
REMARK  status: ('A' for Active; 'I' for Inactive)
REMARK    1  A    between atoms: C_1  and  O_2
REMARK    2  A    between atoms: O_2  and  C_3
REMARK    3  A    between atoms: C_6  and  C_7
REMARK    4  A    between atoms: C_8  and  C_9
REMARK    5  A    between atoms: C_11  and  C_12
REMARK    6  A    between atoms: C_17  and  O_18
REMARK    7  A    between atoms: O_18  and  C_19
REMARK                            x       y       z     vdW  Elec       q    Type
REMARK                         _______ _______ _______ _____ _____    ______ ____
ROOT
ATOM      1  C   UNL     1       9.492  10.946  19.040  0.00  0.00    +0.000 A 
ATOM      2  C   UNL     1      10.079  11.576  17.917  0.00  0.00    +0.000 A 
ATOM      3  C   UNL     1      10.588  12.878  18.001  0.00  0.00    +0.000 A 
ATOM      4  C   UNL     1      10.451  13.577  19.201  0.00  0.00    +0.000 A 
ATOM      5  C   UNL     1       9.851  12.970  20.305  0.00  0.00    +0.000 A 
ATOM      6  C   UNL     1       9.389  11.653  20.253  0.00  0.00    +0.000 A 
ENDROOT
BRANCH   3   7
ATOM      7  C   UNL     1      11.324  13.557  16.891  0.00  0.00    +0.000 C 
ATOM      8  N   UNL     1      10.834  14.732  16.398  0.00  0.00    +0.000 N 
ATOM      9  O   UNL     1      12.333  13.067  16.401  0.00  0.00    +0.000 OA
ATOM     10  H   UNL     1       9.968  15.168  16.679  0.00  0.00    +0.000 HD
ATOM     11  H   UNL     1      11.323  15.125  15.604  0.00  0.00    +0.000 HD
ENDBRANCH   3   7
BRANCH   1  13
ATOM     12  C   UNL     1       8.299   9.101  17.900  0.00  0.00    +0.000 C 
ATOM     13  C   UNL     1       9.107   9.543  18.877  0.00  0.00    +0.000 C 
BRANCH  12  17
ATOM     14  C   UNL     1       6.326   5.287  17.998  0.00  0.00    +0.000 A 
ATOM     15  C   UNL     1       5.875   6.316  17.172  0.00  0.00    +0.000 A 
ATOM     16  C   UNL     1       6.555   7.537  17.120  0.00  0.00    +0.000 A 
ATOM     17  C   UNL     1       7.687   7.760  17.916  0.00  0.00    +0.000 A 
ATOM     18  C   UNL     1       8.136   6.717  18.736  0.00  0.00    +0.000 A 
ATOM     19  C   UNL     1       7.454   5.493  18.788  0.00  0.00    +0.000 A 
BRANCH  14  21
ATOM     20  C   UNL     1       4.286   4.276  17.381  0.00  0.00    +0.000 C 
ATOM     21  O   UNL     1       5.572   4.148  17.980  0.00  0.00    +0.000 OA
ENDBRANCH  14  21
ENDBRANCH  12  17
ENDBRANCH   1  13
BRANCH   6  22
ATOM     22  O   UNL     1       8.925  11.251  21.476  0.00  0.00    +0.000 OA
ATOM     23  C   UNL     1       8.505  12.179  22.460  0.00  0.00    +0.000 C 
ENDBRANCH   6  22
TORSDOF 5
ENDMDL
MODEL 3
REMARK VINA RESULT:      -7.4      1.140      1.630
REMARK  Name = 
REMARK  7 active torsions:
REMARK  status: ('A' for Active; 'I' for Inactive)
REMARK    1  A    between atoms: C_1  and  O_2
REMARK    2  A    between atoms: O_2  and  C_3
REMARK    3  A    between atoms: C_6  and  C_7
REMARK    4  A    between atoms: C_8  and  C_9
REMARK    5  A    between atoms: C_11  and  C_12
REMARK    6  A    between atoms: C_17  and  O_18
REMARK    7  A    between atoms: O_18  and  C_19
REMARK                            x       y       z     vdW  Elec       q    Type
REMARK                         _______ _______ _______ _____ _____    ______ ____
ROOT
ATOM      1  C   UNL     1       3.485   5.913  17.917  0.00  0.00    +0.000 A 
ATOM      2  C   UNL     1       4.858   6.030  17.597  0.00  0.00    +0.000 A 
ATOM      3  C   UNL     1       5.556   4.971  17.005  0.00  0.00    +0.000 A 
ATOM      4  C   UNL     1       4.891   3.764  16.789  0.00  0.00    +0.000 A 
ATOM      5  C   UNL     1       3.542   3.634  17.125  0.00  0.00    +0.000 A 
ATOM      6  C   UNL     1       2.818   4.700  17.665  0.00  0.00    +0.000 A 
ENDROOT
BRANCH   3   7
ATOM      7  C   UNL     1       6.973   5.067  16.535  0.00  0.00    +0.000 C 
ATOM      8  N   UNL     1       7.927   4.320  17.163  0.00  0.00    +0.000 N 
ATOM      9  O   UNL     1       7.293   5.819  15.623  0.00  0.00    +0.000 OA
ATOM     10  H   UNL     1       7.775   3.738  17.973  0.00  0.00    +0.000 HD
ATOM     11  H   UNL     1       8.881   4.464  16.859  0.00  0.00    +0.000 HD
ENDBRANCH   3   7
BRANCH   1  13
ATOM     12  C   UNL     1       2.355   7.248  19.668  0.00  0.00    +0.000 C 
ATOM     13  C   UNL     1       2.823   7.120  18.417  0.00  0.00    +0.000 C 
BRANCH  12  17
ATOM     14  C   UNL     1      -0.154  10.552  20.780  0.00  0.00    +0.000 A 
ATOM     15  C   UNL     1       0.344  10.424  19.484  0.00  0.00    +0.000 A 
ATOM     16  C   UNL     1       1.124   9.320  19.127  0.00  0.00    +0.000 A 
ATOM     17  C   UNL     1       1.442   8.333  20.071  0.00  0.00    +0.000 A 
ATOM     18  C   UNL     1       0.929   8.468  21.368  0.00  0.00    +0.000 A 
ATOM     19  C   UNL     1       0.147   9.576  21.725  0.00  0.00    +0.000 A 
BRANCH  14  21
ATOM     20  C   UNL     1      -1.593  12.198  19.892  0.00  0.00    +0.000 C 
ATOM     21  O   UNL     1      -0.888  11.681  21.016  0.00  0.00    +0.000 OA
ENDBRANCH  14  21
ENDBRANCH  12  17
ENDBRANCH   1  13
BRANCH   6  22
ATOM     22  O   UNL     1       1.501   4.361  17.827  0.00  0.00    +0.000 OA
ATOM     23  C   UNL     1       1.075   3.481  18.851  0.00  0.00    +0.000 C 
ENDBRANCH   6  22
TORSDOF 5
ENDMDL
MODEL 4
REMARK VINA RESULT:      -7.3      1.135      1.173
REMARK  Name = 
REMARK  7 active torsions:
REMARK  status: ('A' for Active; 'I' for Inactive)
REMARK    1  A    between atoms: C_1  and  O_2
REMARK    2  A    between atoms: O_2  and  C_3
REMARK    3  A    between atoms: C_6  and  C_7
REMARK    4  A    between atoms: C_8  and  C_9
REMARK    5  A    between atoms: C_11  and  C_12
REMARK    6  A    between atoms: C_17  and  O_18
REMARK    7  A    between atoms: O_18  and  C_19
REMARK                            x       y       z     vdW  Elec       q    Type
REMARK                         _______ _______ _______ _____ _____    ______ ____
ROOT
ATOM      1  C   UNL     1       3.502   5.902  17.904  0.00  0.00    +0.000 A 
ATOM      2  C   UNL     1       4.872   5.987  17.563  0.00  0.00    +0.000 A 
ATOM      3  C   UNL     1       5.536   4.908  16.967  0.00  0.00    +0.000 A 
ATOM      4  C   UNL     1       4.840   3.715  16.769  0.00  0.00    +0.000 A 
ATOM      5  C   UNL     1       3.495   3.618  17.125  0.00  0.00    +0.000 A 
ATOM      6  C   UNL     1       2.803   4.704  17.670  0.00  0.00    +0.000 A 
ENDROOT
BRANCH   3   7
ATOM      7  C   UNL     1       6.947   4.968  16.474  0.00  0.00    +0.000 C 
ATOM      8  N   UNL     1       7.920   4.323  17.182  0.00  0.00    +0.000 N 
ATOM      9  O   UNL     1       7.247   5.606  15.473  0.00  0.00    +0.000 OA
ATOM     10  H   UNL     1       7.784   3.844  18.060  0.00  0.00    +0.000 HD
ATOM     11  H   UNL     1       8.869   4.443  16.853  0.00  0.00    +0.000 HD
ENDBRANCH   3   7
BRANCH   1  13
ATOM     12  C   UNL     1       2.392   7.260  19.652  0.00  0.00    +0.000 C 
ATOM     13  C   UNL     1       2.875   7.128  18.407  0.00  0.00    +0.000 C 
BRANCH  12  17
ATOM     14  C   UNL     1      -0.325  10.357  20.867  0.00  0.00    +0.000 A 
ATOM     15  C   UNL     1       0.034   9.326  21.734  0.00  0.00    +0.000 A 
ATOM     16  C   UNL     1       0.953   8.350  21.338  0.00  0.00    +0.000 A 
ATOM     17  C   UNL     1       1.512   8.373  20.052  0.00  0.00    +0.000 A 
ATOM     18  C   UNL     1       1.151   9.418  19.192  0.00  0.00    +0.000 A 
ATOM     19  C   UNL     1       0.229  10.397  19.590  0.00  0.00    +0.000 A 
BRANCH  14  21
ATOM     20  C   UNL     1      -0.952  12.617  21.127  0.00  0.00    +0.000 C 
ATOM     21  O   UNL     1      -1.244  11.242  21.357  0.00  0.00    +0.000 OA
ENDBRANCH  14  21
ENDBRANCH  12  17
ENDBRANCH   1  13
BRANCH   6  22
ATOM     22  O   UNL     1       1.482   4.396  17.854  0.00  0.00    +0.000 OA
ATOM     23  C   UNL     1       1.070   3.338  18.700  0.00  0.00    +0.000 C 
ENDBRANCH   6  22
TORSDOF 5
ENDMDL
MODEL 5
REMARK VINA RESULT:      -7.2      1.986      3.428
REMARK  Name = 
REMARK  7 active torsions:
REMARK  status: ('A' for Active; 'I' for Inactive)
REMARK    1  A    between atoms: C_1  and  O_2
REMARK    2  A    between atoms: O_2  and  C_3
REMARK    3  A    between atoms: C_6  and  C_7
REMARK    4  A    between atoms: C_8  and  C_9
REMARK    5  A    between atoms: C_11  and  C_12
REMARK    6  A    between atoms: C_17  and  O_18
REMARK    7  A    between atoms: O_18  and  C_19
REMARK                            x       y       z     vdW  Elec       q    Type
REMARK                         _______ _______ _______ _____ _____    ______ ____
ROOT
ATOM      1  C   UNL     1       3.154   6.166  17.946  0.00  0.00    +0.000 A 
ATOM      2  C   UNL     1       2.415   4.990  18.216  0.00  0.00    +0.000 A 
ATOM      3  C   UNL     1       2.865   3.738  17.780  0.00  0.00    +0.000 A 
ATOM      4  C   UNL     1       4.029   3.670  17.015  0.00  0.00    +0.000 A 
ATOM      5  C   UNL     1       4.749   4.829  16.724  0.00  0.00    +0.000 A 
ATOM      6  C   UNL     1       4.343   6.079  17.199  0.00  0.00    +0.000 A 
ENDROOT
BRANCH   3   7
ATOM      7  C   UNL     1       2.198   2.446  18.131  0.00  0.00    +0.000 C 
ATOM      8  N   UNL     1       2.967   1.330  18.290  0.00  0.00    +0.000 N 
ATOM      9  O   UNL     1       0.982   2.367  18.248  0.00  0.00    +0.000 OA
ATOM     10  H   UNL     1       3.962   1.278  18.134  0.00  0.00    +0.000 HD
ATOM     11  H   UNL     1       2.472   0.464  18.462  0.00  0.00    +0.000 HD
ENDBRANCH   3   7
BRANCH   1  13
ATOM     12  C   UNL     1       2.088   7.462  19.765  0.00  0.00    +0.000 C 
ATOM     13  C   UNL     1       2.660   7.405  18.553  0.00  0.00    +0.000 C 
BRANCH  12  17
ATOM     14  C   UNL     1      -0.248  10.758  21.224  0.00  0.00    +0.000 A 
ATOM     15  C   UNL     1       0.196   9.751  22.079  0.00  0.00    +0.000 A 
ATOM     16  C   UNL     1       0.993   8.707  21.596  0.00  0.00    +0.000 A 
ATOM     17  C   UNL     1       1.337   8.640  20.238  0.00  0.00    +0.000 A 
ATOM     18  C   UNL     1       0.891   9.662  19.390  0.00  0.00    +0.000 A 
ATOM     19  C   UNL     1       0.093  10.708  19.876  0.00  0.00    +0.000 A 
BRANCH  14  21
ATOM     20  C   UNL     1      -1.536  11.390  23.098  0.00  0.00    +0.000 C 
ATOM     21  O   UNL     1      -1.034  11.714  21.805  0.00  0.00    +0.000 OA
ENDBRANCH  14  21
ENDBRANCH  12  17
ENDBRANCH   1  13
BRANCH   6  22
ATOM     22  O   UNL     1       5.252   7.046  16.861  0.00  0.00    +0.000 OA
ATOM     23  C   UNL     1       6.598   6.995  17.299  0.00  0.00    +0.000 C 
ENDBRANCH   6  22
TORSDOF 5
ENDMDL
MODEL 6
REMARK VINA RESULT:      -7.2      2.063      3.640
REMARK  Name = 
REMARK  7 active torsions:
REMARK  status: ('A' for Active; 'I' for Inactive)
REMARK    1  A    between atoms: C_1  and  O_2
REMARK    2  A    between atoms: O_2  and  C_3
REMARK    3  A    between atoms: C_6  and  C_7
REMARK    4  A    between atoms: C_8  and  C_9
REMARK    5  A    between atoms: C_11  and  C_12
REMARK    6  A    between atoms: C_17  and  O_18
REMARK    7  A    between atoms: O_18  and  C_19
REMARK                            x       y       z     vdW  Elec       q    Type
REMARK                         _______ _______ _______ _____ _____    ______ ____
ROOT
ATOM      1  C   UNL     1       2.901   6.187  18.106  0.00  0.00    +0.000 A 
ATOM      2  C   UNL     1       2.181   4.991  18.341  0.00  0.00    +0.000 A 
ATOM      3  C   UNL     1       2.660   3.757  17.884  0.00  0.00    +0.000 A 
ATOM      4  C   UNL     1       3.835   3.728  17.132  0.00  0.00    +0.000 A 
ATOM      5  C   UNL     1       4.536   4.907  16.876  0.00  0.00    +0.000 A 
ATOM      6  C   UNL     1       4.101   6.138  17.373  0.00  0.00    +0.000 A 
ENDROOT
BRANCH   3   7
ATOM      7  C   UNL     1       2.014   2.446  18.197  0.00  0.00    +0.000 C 
ATOM      8  N   UNL     1       2.804   1.345  18.361  0.00  0.00    +0.000 N 
ATOM      9  O   UNL     1       0.797   2.337  18.278  0.00  0.00    +0.000 OA
ATOM     10  H   UNL     1       3.804   1.318  18.232  0.00  0.00    +0.000 HD
ATOM     11  H   UNL     1       2.324   0.466  18.506  0.00  0.00    +0.000 HD
ENDBRANCH   3   7
BRANCH   1  13
ATOM     12  C   UNL     1       2.048   7.485  20.033  0.00  0.00    +0.000 C 
ATOM     13  C   UNL     1       2.376   7.401  18.735  0.00  0.00    +0.000 C 
BRANCH  12  17
ATOM     14  C   UNL     1      -0.110  10.867  21.569  0.00  0.00    +0.000 A 
ATOM     15  C   UNL     1       0.229  10.775  20.219  0.00  0.00    +0.000 A 
ATOM     16  C   UNL     1       0.894   9.647  19.728  0.00  0.00    +0.000 A 
ATOM     17  C   UNL     1       1.256   8.599  20.586  0.00  0.00    +0.000 A 
ATOM     18  C   UNL     1       0.903   8.699  21.938  0.00  0.00    +0.000 A 
ATOM     19  C   UNL     1       0.236   9.830  22.430  0.00  0.00    +0.000 A 
BRANCH  14  21
ATOM     20  C   UNL     1      -1.689  11.892  22.992  0.00  0.00    +0.000 C 
ATOM     21  O   UNL     1      -0.741  12.023  21.937  0.00  0.00    +0.000 OA
ENDBRANCH  14  21
ENDBRANCH  12  17
ENDBRANCH   1  13
BRANCH   6  22
ATOM     22  O   UNL     1       4.995   7.130  17.069  0.00  0.00    +0.000 OA
ATOM     23  C   UNL     1       6.386   6.977  17.287  0.00  0.00    +0.000 C 
ENDBRANCH   6  22
TORSDOF 5
ENDMDL
MODEL 7
REMARK VINA RESULT:      -7.2      0.854      1.360
REMARK  Name = 
REMARK  7 active torsions:
REMARK  status: ('A' for Active; 'I' for Inactive)
REMARK    1  A    between atoms: C_1  and  O_2
REMARK    2  A    between atoms: O_2  and  C_3
REMARK    3  A    between atoms: C_6  and  C_7
REMARK    4  A    between atoms: C_8  and  C_9
REMARK    5  A    between atoms: C_11  and  C_12
REMARK    6  A    between atoms: C_17  and  O_18
REMARK    7  A    between atoms: O_18  and  C_19
REMARK                            x       y       z     vdW  Elec       q    Type
REMARK                         _______ _______ _______ _____ _____    ______ ____
ROOT
ATOM      1  C   UNL     1       3.406   5.659  17.820  0.00  0.00    +0.000 A 
ATOM      2  C   UNL     1       4.705   6.113  17.493  0.00  0.00    +0.000 A 
ATOM      3  C   UNL     1       5.574   5.326  16.728  0.00  0.00    +0.000 A 
ATOM      4  C   UNL     1       5.163   4.051  16.341  0.00  0.00    +0.000 A 
ATOM      5  C   UNL     1       3.891   3.588  16.681  0.00  0.00    +0.000 A 
ATOM      6  C   UNL     1       2.992   4.383  17.396  0.00  0.00    +0.000 A 
ENDROOT
BRANCH   3   7
ATOM      7  C   UNL     1       6.913   5.790  16.247  0.00  0.00    +0.000 C 
ATOM      8  N   UNL     1       7.518   6.832  16.890  0.00  0.00    +0.000 N 
ATOM      9  O   UNL     1       7.456   5.277  15.278  0.00  0.00    +0.000 OA
ATOM     10  H   UNL     1       7.113   7.370  17.641  0.00  0.00    +0.000 HD
ATOM     11  H   UNL     1       8.390   7.158  16.494  0.00  0.00    +0.000 HD
ENDBRANCH   3   7
BRANCH   1  13
ATOM     12  C   UNL     1       2.269   7.845  18.063  0.00  0.00    +0.000 C 
ATOM     13  C   UNL     1       2.536   6.610  18.517  0.00  0.00    +0.000 C 
BRANCH  12  17
ATOM     14  C   UNL     1       0.617  11.001  20.463  0.00  0.00    +0.000 A 
ATOM     15  C   UNL     1       0.951  11.207  19.125  0.00  0.00    +0.000 A 
ATOM     16  C   UNL     1       1.447  10.157  18.346  0.00  0.00    +0.000 A 
ATOM     17  C   UNL     1       1.644   8.885  18.901  0.00  0.00    +0.000 A 
ATOM     18  C   UNL     1       1.297   8.688  20.244  0.00  0.00    +0.000 A 
ATOM     19  C   UNL     1       0.799   9.741  21.025  0.00  0.00    +0.000 A 
BRANCH  14  21
ATOM     20  C   UNL     1      -0.687  11.838  22.243  0.00  0.00    +0.000 C 
ATOM     21  O   UNL     1       0.160  12.104  21.128  0.00  0.00    +0.000 OA
ENDBRANCH  14  21
ENDBRANCH  12  17
ENDBRANCH   1  13
BRANCH   6  22
ATOM     22  O   UNL     1       1.785   3.751  17.532  0.00  0.00    +0.000 OA
ATOM     23  C   UNL     1       1.528   2.845  18.590  0.00  0.00    +0.000 C 
ENDBRANCH   6  22
TORSDOF 5
ENDMDL
MODEL 8
REMARK VINA RESULT:      -7.1      2.045      3.516
REMARK  Name = 
REMARK  7 active torsions:
REMARK  status: ('A' for Active; 'I' for Inactive)
REMARK    1  A    between atoms: C_1  and  O_2
REMARK    2  A    between atoms: O_2  and  C_3
REMARK    3  A    between atoms: C_6  and  C_7
REMARK    4  A    between atoms: C_8  and  C_9
REMARK    5  A    between atoms: C_11  and  C_12
REMARK    6  A    between atoms: C_17  and  O_18
REMARK    7  A    between atoms: O_18  and  C_19
REMARK                            x       y       z     vdW  Elec       q    Type
REMARK                         _______ _______ _______ _____ _____    ______ ____
ROOT
ATOM      1  C   UNL     1       3.803   6.160  17.487  0.00  0.00    +0.000 A 
ATOM      2  C   UNL     1       3.072   4.972  17.723  0.00  0.00    +0.000 A 
ATOM      3  C   UNL     1       3.627   3.715  17.454  0.00  0.00    +0.000 A 
ATOM      4  C   UNL     1       4.899   3.650  16.886  0.00  0.00    +0.000 A 
ATOM      5  C   UNL     1       5.617   4.819  16.628  0.00  0.00    +0.000 A 
ATOM      6  C   UNL     1       5.098   6.078  16.943  0.00  0.00    +0.000 A 
ENDROOT
BRANCH   3   7
ATOM      7  C   UNL     1       2.958   2.420  17.788  0.00  0.00    +0.000 C 
ATOM      8  N   UNL     1       3.732   1.333  18.074  0.00  0.00    +0.000 N 
ATOM      9  O   UNL     1       1.738   2.312  17.781  0.00  0.00    +0.000 OA
ATOM     10  H   UNL     1       4.739   1.303  18.025  0.00  0.00    +0.000 HD
ATOM     11  H   UNL     1       3.242   0.462  18.230  0.00  0.00    +0.000 HD
ENDBRANCH   3   7
BRANCH   1  13
ATOM     12  C   UNL     1       2.385   7.514  18.999  0.00  0.00    +0.000 C 
ATOM     13  C   UNL     1       3.177   7.412  17.920  0.00  0.00    +0.000 C 
BRANCH  12  17
ATOM     14  C   UNL     1      -0.245  10.807  19.828  0.00  0.00    +0.000 A 
ATOM     15  C   UNL     1       0.164   9.934  20.835  0.00  0.00    +0.000 A 
ATOM     16  C   UNL     1       1.055   8.893  20.557  0.00  0.00    +0.000 A 
ATOM     17  C   UNL     1       1.534   8.690  19.255  0.00  0.00    +0.000 A 
ATOM     18  C   UNL     1       1.123   9.578  18.252  0.00  0.00    +0.000 A 
ATOM     19  C   UNL     1       0.229  10.622  18.532  0.00  0.00    +0.000 A 
BRANCH  14  21
ATOM     20  C   UNL     1      -2.244  11.965  19.347  0.00  0.00    +0.000 C 
ATOM     21  O   UNL     1      -1.130  11.774  20.214  0.00  0.00    +0.000 OA
ENDBRANCH  14  21
ENDBRANCH  12  17
ENDBRANCH   1  13
BRANCH   6  22
ATOM     22  O   UNL     1       6.015   7.061  16.683  0.00  0.00    +0.000 OA
ATOM     23  C   UNL     1       7.253   7.130  17.366  0.00  0.00    +0.000 C 
ENDBRANCH   6  22
TORSDOF 5
ENDMDL
MODEL 9
REMARK VINA RESULT:      -7.1      1.564      1.601
REMARK  Name = 
REMARK  7 active torsions:
REMARK  status: ('A' for Active; 'I' for Inactive)
REMARK    1  A    between atoms: C_1  and  O_2
REMARK    2  A    between atoms: O_2  and  C_3
REMARK    3  A    between atoms: C_6  and  C_7
REMARK    4  A    between atoms: C_8  and  C_9
REMARK    5  A    between atoms: C_11  and  C_12
REMARK    6  A    between atoms: C_17  and  O_18
REMARK    7  A    between atoms: O_18  and  C_19
REMARK                            x       y       z     vdW  Elec       q    Type
REMARK                         _______ _______ _______ _____ _____    ______ ____
ROOT
ATOM      1  C   UNL     1       3.163   5.618  18.915  0.00  0.00    +0.000 A 
ATOM      2  C   UNL     1       4.037   6.256  18.003  0.00  0.00    +0.000 A 
ATOM      3  C   UNL     1       4.835   5.512  17.126  0.00  0.00    +0.000 A 
ATOM      4  C   UNL     1       4.806   4.120  17.206  0.00  0.00    +0.000 A 
ATOM      5  C   UNL     1       3.965   3.485  18.120  0.00  0.00    +0.000 A 
ATOM      6  C   UNL     1       3.121   4.213  18.963  0.00  0.00    +0.000 A 
ENDROOT
BRANCH   3   7
ATOM      7  C   UNL     1       5.690   6.120  16.059  0.00  0.00    +0.000 C 
ATOM      8  N   UNL     1       7.037   5.903  16.092  0.00  0.00    +0.000 N 
ATOM      9  O   UNL     1       5.209   6.827  15.183  0.00  0.00    +0.000 OA
ATOM     10  H   UNL     1       7.532   5.407  16.817  0.00  0.00    +0.000 HD
ATOM     11  H   UNL     1       7.586   6.386  15.392  0.00  0.00    +0.000 HD
ENDBRANCH   3   7
BRANCH   1  13
ATOM     12  C   UNL     1       1.997   7.756  19.360  0.00  0.00    +0.000 C 
ATOM     13  C   UNL     1       2.284   6.489  19.698  0.00  0.00    +0.000 C 
BRANCH  12  17
ATOM     14  C   UNL     1       0.035  10.358  22.157  0.00  0.00    +0.000 A 
ATOM     15  C   UNL     1       0.780   9.261  22.588  0.00  0.00    +0.000 A 
ATOM     16  C   UNL     1       1.449   8.449  21.666  0.00  0.00    +0.000 A 
ATOM     17  C   UNL     1       1.361   8.706  20.290  0.00  0.00    +0.000 A 
ATOM     18  C   UNL     1       0.616   9.816  19.870  0.00  0.00    +0.000 A 
ATOM     19  C   UNL     1      -0.054  10.630  20.795  0.00  0.00    +0.000 A 
BRANCH  14  21
ATOM     20  C   UNL     1      -1.080  12.348  22.763  0.00  0.00    +0.000 C 
ATOM     21  O   UNL     1      -0.588  11.067  23.146  0.00  0.00    +0.000 OA
ENDBRANCH  14  21
ENDBRANCH  12  17
ENDBRANCH   1  13
BRANCH   6  22
ATOM     22  O   UNL     1       2.331   3.374  19.704  0.00  0.00    +0.000 OA
ATOM     23  C   UNL     1       2.768   2.825  20.934  0.00  0.00    +0.000 C 
ENDBRANCH   6  22
TORSDOF 5
ENDMDL
