MODEL 1
REMARK VINA RESULT:      -7.8      0.000      0.000
REMARK  Name = 
REMARK  10 active torsions:
REMARK  status: ('A' for Active; 'I' for Inactive)
REMARK    1  A    between atoms: C_1  and  O_2
REMARK    2  A    between atoms: O_2  and  C_3
REMARK    3  A    between atoms: C_7  and  C_8
REMARK    4  A    between atoms: C_8  and  C_9
REMARK    5  A    between atoms: N_11  and  C_12
REMARK    6  A    between atoms: C_12  and  C_13
REMARK    7  A    between atoms: C_12  and  C_17
REMARK    8  A    between atoms: C_13  and  C_14
REMARK    9  A    between atoms: C_14  and  S_15
REMARK   10  A    between atoms: S_15  and  C_16
REMARK                            x       y       z     vdW  Elec       q    Type
REMARK                         _______ _______ _______ _____ _____    ______ ____
ROOT
ATOM      1  C   UNL     1       6.777   6.203  17.368  0.00  0.00    +0.000 C 
ENDROOT
BRANCH   1   2
ATOM      2  C   UNL     1       6.891   5.440  16.083  0.00  0.00    +0.000 A 
ATOM      3  N   UNL     1       7.742   5.672  15.100  0.00  0.00    +0.000 NA
ATOM      4  C   UNL     1       7.266   4.957  14.028  0.00  0.00    +0.000 A 
ATOM      5  C   UNL     1       7.718   4.927  12.703  0.00  0.00    +0.000 A 
ATOM      6  C   UNL     1       7.026   4.139  11.771  0.00  0.00    +0.000 A 
ATOM      7  C   UNL     1       5.911   3.393  12.157  0.00  0.00    +0.000 A 
ATOM      8  C   UNL     1       5.444   3.410  13.477  0.00  0.00    +0.000 A 
ATOM      9  C   UNL     1       6.149   4.209  14.382  0.00  0.00    +0.000 A 
ATOM     10  N   UNL     1       5.959   4.498  15.711  0.00  0.00    +0.000 N 
ATOM     11  H   UNL     1       5.184   4.175  16.279  0.00  0.00    +0.000 HD
ENDBRANCH   1   2
BRANCH   1  14
ATOM     12  C   UNL     1       7.944   8.305  17.892  0.00  0.00    +0.000 C 
ATOM     13  O   UNL     1       8.607   7.766  18.778  0.00  0.00    +0.000 OA
ATOM     14  N   UNL     1       7.043   7.611  17.111  0.00  0.00    +0.000 N 
ATOM     15  H   UNL     1       6.352   8.114  16.565  0.00  0.00    +0.000 HD
BRANCH  12  16
ATOM     16  C   UNL     1       8.089   9.783  17.571  0.00  0.00    +0.000 C 
BRANCH  16  21
ATOM     17  C   UNL     1      11.194  11.785  18.527  0.00  0.00    +0.000 A 
ATOM     18  C   UNL     1      11.115  11.769  19.919  0.00  0.00    +0.000 A 
ATOM     19  C   UNL     1      10.058  11.118  20.558  0.00  0.00    +0.000 A 
ATOM     20  C   UNL     1       9.073  10.481  19.806  0.00  0.00    +0.000 A 
ATOM     21  C   UNL     1       9.126  10.499  18.405  0.00  0.00    +0.000 A 
ATOM     22  C   UNL     1      10.201  11.144  17.778  0.00  0.00    +0.000 A 
BRANCH  17  24
ATOM     23  C   UNL     1      12.270  13.863  18.119  0.00  0.00    +0.000 C 
ATOM     24  O   UNL     1      12.281  12.444  18.021  0.00  0.00    +0.000 OA
ENDBRANCH  17  24
ENDBRANCH  16  21
ENDBRANCH  12  16
ENDBRANCH   1  14
BRANCH   1  25
ATOM     25  C   UNL     1       5.365   6.015  17.956  0.00  0.00    +0.000 C 
BRANCH  25  26
ATOM     26  C   UNL     1       4.349   7.071  17.509  0.00  0.00    +0.000 C 
BRANCH  26  27
ATOM     27  S   UNL     1       2.693   6.900  18.260  0.00  0.00    +0.000 S 
ATOM     28  C   UNL     1       2.021   8.537  17.863  0.00  0.00    +0.000 C 
ENDBRANCH  26  27
ENDBRANCH  25  26
ENDBRANCH   1  25
TORSDOF 8
ENDMDL
MODEL 2
REMARK VINA RESULT:      -7.7      3.340      7.194
REMARK  Name = 
REMARK  10 active torsions:
REMARK  status: ('A' for Active; 'I' for Inactive)
REMARK    1  A    between atoms: C_1  and  O_2
REMARK    2  A    between atoms: O_2  and  C_3
REMARK    3  A    between atoms: C_7  and  C_8
REMARK    4  A    between atoms: C_8  and  C_9
REMARK    5  A    between atoms: N_11  and  C_12
REMARK    6  A    between atoms: C_12  and  C_13
REMARK    7  A    between atoms: C_12  and  C_17
REMARK    8  A    between atoms: C_13  and  C_14
REMARK    9  A    between atoms: C_14  and  S_15
REMARK   10  A    between atoms: S_15  and  C_16
REMARK                            x       y       z     vdW  Elec       q    Type
REMARK                         _______ _______ _______ _____ _____    ______ ____
ROOT
ATOM      1  C   UNL     1       5.902   6.178  17.241  0.00  0.00    +0.000 C 
ENDROOT
BRANCH   1   2
ATOM      2  C   UNL     1       6.233   5.394  16.007  0.00  0.00    +0.000 A 
ATOM      3  N   UNL     1       7.265   5.584  15.205  0.00  0.00    +0.000 NA
ATOM      4  C   UNL     1       6.978   4.871  14.066  0.00  0.00    +0.000 A 
ATOM      5  C   UNL     1       7.675   4.808  12.852  0.00  0.00    +0.000 A 
ATOM      6  C   UNL     1       7.146   4.033  11.810  0.00  0.00    +0.000 A 
ATOM      7  C   UNL     1       5.952   3.331  11.978  0.00  0.00    +0.000 A 
ATOM      8  C   UNL     1       5.240   3.382  13.184  0.00  0.00    +0.000 A 
ATOM      9  C   UNL     1       5.787   4.167  14.202  0.00  0.00    +0.000 A 
ATOM     10  N   UNL     1       5.356   4.481  15.468  0.00  0.00    +0.000 N 
ATOM     11  H   UNL     1       4.475   4.192  15.879  0.00  0.00    +0.000 HD
ENDBRANCH   1   2
BRANCH   1  14
ATOM     12  C   UNL     1       3.616   6.920  17.768  0.00  0.00    +0.000 C 
ATOM     13  O   UNL     1       3.890   8.090  17.504  0.00  0.00    +0.000 OA
ATOM     14  N   UNL     1       4.529   5.894  17.631  0.00  0.00    +0.000 N 
ATOM     15  H   UNL     1       4.356   4.999  18.074  0.00  0.00    +0.000 HD
BRANCH  12  16
ATOM     16  C   UNL     1       2.233   6.508  18.244  0.00  0.00    +0.000 C 
BRANCH  16  21
ATOM     17  C   UNL     1       2.356   2.809  19.179  0.00  0.00    +0.000 A 
ATOM     18  C   UNL     1       2.108   2.863  20.551  0.00  0.00    +0.000 A 
ATOM     19  C   UNL     1       1.904   4.091  21.183  0.00  0.00    +0.000 A 
ATOM     20  C   UNL     1       1.951   5.274  20.445  0.00  0.00    +0.000 A 
ATOM     21  C   UNL     1       2.215   5.242  19.069  0.00  0.00    +0.000 A 
ATOM     22  C   UNL     1       2.403   4.000  18.445  0.00  0.00    +0.000 A 
BRANCH  17  24
ATOM     23  C   UNL     1       3.867   1.094  18.534  0.00  0.00    +0.000 C 
ATOM     24  O   UNL     1       2.527   1.549  18.675  0.00  0.00    +0.000 OA
ENDBRANCH  17  24
ENDBRANCH  16  21
ENDBRANCH  12  16
ENDBRANCH   1  14
BRANCH   1  25
ATOM     25  C   UNL     1       6.879   5.796  18.371  0.00  0.00    +0.000 C 
BRANCH  25  26
ATOM     26  C   UNL     1       7.939   6.860  18.675  0.00  0.00    +0.000 C 
BRANCH  26  27
ATOM     27  S   UNL     1       7.806   8.377  17.668  0.00  0.00    +0.000 S 
ATOM     28  C   UNL     1       8.798   9.496  18.693  0.00  0.00    +0.000 C 
ENDBRANCH  26  27
ENDBRANCH  25  26
ENDBRANCH   1  25
TORSDOF 8
ENDMDL
MODEL 3
REMARK VINA RESULT:      -7.5      3.345      7.286
REMARK  Name = 
REMARK  10 active torsions:
REMARK  status: ('A' for Active; 'I' for Inactive)
REMARK    1  A    between atoms: C_1  and  O_2
REMARK    2  A    between atoms: O_2  and  C_3
REMARK    3  A    between atoms: C_7  and  C_8
REMARK    4  A    between atoms: C_8  and  C_9
REMARK    5  A    between atoms: N_11  and  C_12
REMARK    6  A    between atoms: C_12  and  C_13
REMARK    7  A    between atoms: C_12  and  C_17
REMARK    8  A    between atoms: C_13  and  C_14
REMARK    9  A    between atoms: C_14  and  S_15
REMARK   10  A    between atoms: S_15  and  C_16
REMARK                            x       y       z     vdW  Elec       q    Type
REMARK                         _______ _______ _______ _____ _____    ______ ____
ROOT
ATOM      1  C   UNL     1       5.892   6.303  17.141  0.00  0.00    +0.000 C 
ENDROOT
BRANCH   1   2
ATOM      2  C   UNL     1       6.222   5.478  15.933  0.00  0.00    +0.000 A 
ATOM      3  N   UNL     1       7.266   5.625  15.138  0.00  0.00    +0.000 NA
ATOM      4  C   UNL     1       6.978   4.886  14.017  0.00  0.00    +0.000 A 
ATOM      5  C   UNL     1       7.687   4.774  12.814  0.00  0.00    +0.000 A 
ATOM      6  C   UNL     1       7.156   3.980  11.787  0.00  0.00    +0.000 A 
ATOM      7  C   UNL     1       5.946   3.306  11.962  0.00  0.00    +0.000 A 
ATOM      8  C   UNL     1       5.222   3.404  13.157  0.00  0.00    +0.000 A 
ATOM      9  C   UNL     1       5.772   4.208  14.159  0.00  0.00    +0.000 A 
ATOM     10  N   UNL     1       5.333   4.566  15.410  0.00  0.00    +0.000 N 
ATOM     11  H   UNL     1       4.442   4.306  15.818  0.00  0.00    +0.000 HD
ENDBRANCH   1   2
BRANCH   1  14
ATOM     12  C   UNL     1       3.677   7.237  17.667  0.00  0.00    +0.000 C 
ATOM     13  O   UNL     1       4.082   8.389  17.521  0.00  0.00    +0.000 OA
ATOM     14  N   UNL     1       4.482   6.135  17.461  0.00  0.00    +0.000 N 
ATOM     15  H   UNL     1       4.199   5.227  17.813  0.00  0.00    +0.000 HD
BRANCH  12  16
ATOM     16  C   UNL     1       2.241   6.935  18.060  0.00  0.00    +0.000 C 
BRANCH  16  21
ATOM     17  C   UNL     1       2.004   3.961  20.441  0.00  0.00    +0.000 A 
ATOM     18  C   UNL     1       1.706   2.924  19.557  0.00  0.00    +0.000 A 
ATOM     19  C   UNL     1       1.573   3.177  18.191  0.00  0.00    +0.000 A 
ATOM     20  C   UNL     1       1.738   4.472  17.701  0.00  0.00    +0.000 A 
ATOM     21  C   UNL     1       2.023   5.531  18.574  0.00  0.00    +0.000 A 
ATOM     22  C   UNL     1       2.167   5.259  19.942  0.00  0.00    +0.000 A 
BRANCH  17  24
ATOM     23  C   UNL     1       1.546   2.333  22.108  0.00  0.00    +0.000 C 
ATOM     24  O   UNL     1       2.120   3.584  21.751  0.00  0.00    +0.000 OA
ENDBRANCH  17  24
ENDBRANCH  16  21
ENDBRANCH  12  16
ENDBRANCH   1  14
BRANCH   1  25
ATOM     25  C   UNL     1       6.776   5.860  18.323  0.00  0.00    +0.000 C 
BRANCH  25  26
ATOM     26  C   UNL     1       7.922   6.823  18.650  0.00  0.00    +0.000 C 
BRANCH  26  27
ATOM     27  S   UNL     1       7.901   8.382  17.699  0.00  0.00    +0.000 S 
ATOM     28  C   UNL     1       8.871   9.423  18.822  0.00  0.00    +0.000 C 
ENDBRANCH  26  27
ENDBRANCH  25  26
ENDBRANCH   1  25
TORSDOF 8
ENDMDL
MODEL 4
REMARK VINA RESULT:      -7.4      3.628      7.398
REMARK  Name = 
REMARK  10 active torsions:
REMARK  status: ('A' for Active; 'I' for Inactive)
REMARK    1  A    between atoms: C_1  and  O_2
REMARK    2  A    between atoms: O_2  and  C_3
REMARK    3  A    between atoms: C_7  and  C_8
REMARK    4  A    between atoms: C_8  and  C_9
REMARK    5  A    between atoms: N_11  and  C_12
REMARK    6  A    between atoms: C_12  and  C_13
REMARK    7  A    between atoms: C_12  and  C_17
REMARK    8  A    between atoms: C_13  and  C_14
REMARK    9  A    between atoms: C_14  and  S_15
REMARK   10  A    between atoms: S_15  and  C_16
REMARK                            x       y       z     vdW  Elec       q    Type
REMARK                         _______ _______ _______ _____ _____    ______ ____
ROOT
ATOM      1  C   UNL     1       2.372   5.834  19.295  0.00  0.00    +0.000 C 
ENDROOT
BRANCH   1   2
ATOM      2  C   UNL     1       2.037   7.265  19.594  0.00  0.00    +0.000 A 
ATOM      3  N   UNL     1       1.570   7.744  20.732  0.00  0.00    +0.000 NA
ATOM      4  C   UNL     1       1.115   9.006  20.438  0.00  0.00    +0.000 A 
ATOM      5  C   UNL     1       0.425   9.918  21.247  0.00  0.00    +0.000 A 
ATOM      6  C   UNL     1       0.023  11.143  20.693  0.00  0.00    +0.000 A 
ATOM      7  C   UNL     1       0.309  11.451  19.362  0.00  0.00    +0.000 A 
ATOM      8  C   UNL     1       0.998  10.551  18.537  0.00  0.00    +0.000 A 
ATOM      9  C   UNL     1       1.380   9.337  19.114  0.00  0.00    +0.000 A 
ATOM     10  N   UNL     1       2.012   8.227  18.611  0.00  0.00    +0.000 N 
ATOM     11  H   UNL     1       2.289   8.094  17.644  0.00  0.00    +0.000 HD
ENDBRANCH   1   2
BRANCH   1  14
ATOM     12  C   UNL     1       3.710   4.849  17.480  0.00  0.00    +0.000 C 
ATOM     13  O   UNL     1       2.807   4.069  17.181  0.00  0.00    +0.000 OA
ATOM     14  N   UNL     1       3.579   5.788  18.482  0.00  0.00    +0.000 N 
ATOM     15  H   UNL     1       4.401   6.245  18.860  0.00  0.00    +0.000 HD
BRANCH  12  16
ATOM     16  C   UNL     1       5.039   4.856  16.745  0.00  0.00    +0.000 C 
BRANCH  16  21
ATOM     17  C   UNL     1       7.497   7.635  17.640  0.00  0.00    +0.000 A 
ATOM     18  C   UNL     1       8.211   7.046  18.684  0.00  0.00    +0.000 A 
ATOM     19  C   UNL     1       7.901   5.754  19.110  0.00  0.00    +0.000 A 
ATOM     20  C   UNL     1       6.872   5.042  18.493  0.00  0.00    +0.000 A 
ATOM     21  C   UNL     1       6.133   5.622  17.452  0.00  0.00    +0.000 A 
ATOM     22  C   UNL     1       6.466   6.916  17.026  0.00  0.00    +0.000 A 
BRANCH  17  24
ATOM     23  C   UNL     1       8.597   9.631  18.310  0.00  0.00    +0.000 C 
ATOM     24  O   UNL     1       7.903   8.899  17.308  0.00  0.00    +0.000 OA
ENDBRANCH  17  24
ENDBRANCH  16  21
ENDBRANCH  12  16
ENDBRANCH   1  14
BRANCH   1  25
ATOM     25  C   UNL     1       2.575   5.066  20.615  0.00  0.00    +0.000 C 
BRANCH  25  26
ATOM     26  C   UNL     1       1.503   4.010  20.903  0.00  0.00    +0.000 C 
BRANCH  26  27
ATOM     27  S   UNL     1       1.863   2.354  20.224  0.00  0.00    +0.000 S 
ATOM     28  C   UNL     1       0.651   2.319  18.878  0.00  0.00    +0.000 C 
ENDBRANCH  26  27
ENDBRANCH  25  26
ENDBRANCH   1  25
TORSDOF 8
ENDMDL
MODEL 5
REMARK VINA RESULT:      -7.3      1.594      2.308
REMARK  Name = 
REMARK  10 active torsions:
REMARK  status: ('A' for Active; 'I' for Inactive)
REMARK    1  A    between atoms: C_1  and  O_2
REMARK    2  A    between atoms: O_2  and  C_3
REMARK    3  A    between atoms: C_7  and  C_8
REMARK    4  A    between atoms: C_8  and  C_9
REMARK    5  A    between atoms: N_11  and  C_12
REMARK    6  A    between atoms: C_12  and  C_13
REMARK    7  A    between atoms: C_12  and  C_17
REMARK    8  A    between atoms: C_13  and  C_14
REMARK    9  A    between atoms: C_14  and  S_15
REMARK   10  A    between atoms: S_15  and  C_16
REMARK                            x       y       z     vdW  Elec       q    Type
REMARK                         _______ _______ _______ _____ _____    ______ ____
ROOT
ATOM      1  C   UNL     1       6.276   6.537  17.331  0.00  0.00    +0.000 C 
ENDROOT
BRANCH   1   2
ATOM      2  C   UNL     1       6.495   5.666  16.130  0.00  0.00    +0.000 A 
ATOM      3  N   UNL     1       7.504   5.733  15.281  0.00  0.00    +0.000 NA
ATOM      4  C   UNL     1       7.118   4.986  14.195  0.00  0.00    +0.000 A 
ATOM      5  C   UNL     1       7.757   4.805  12.962  0.00  0.00    +0.000 A 
ATOM      6  C   UNL     1       7.129   4.019  11.985  0.00  0.00    +0.000 A 
ATOM      7  C   UNL     1       5.893   3.421  12.237  0.00  0.00    +0.000 A 
ATOM      8  C   UNL     1       5.238   3.590  13.464  0.00  0.00    +0.000 A 
ATOM      9  C   UNL     1       5.884   4.384  14.416  0.00  0.00    +0.000 A 
ATOM     10  N   UNL     1       5.531   4.796  15.677  0.00  0.00    +0.000 N 
ATOM     11  H   UNL     1       4.648   4.598  16.136  0.00  0.00    +0.000 HD
ENDBRANCH   1   2
BRANCH   1  14
ATOM     12  C   UNL     1       7.853   8.371  17.780  0.00  0.00    +0.000 C 
ATOM     13  O   UNL     1       8.448   7.708  18.629  0.00  0.00    +0.000 OA
ATOM     14  N   UNL     1       6.793   7.869  17.053  0.00  0.00    +0.000 N 
ATOM     15  H   UNL     1       6.182   8.499  16.546  0.00  0.00    +0.000 HD
BRANCH  12  16
ATOM     16  C   UNL     1       8.261   9.796  17.445  0.00  0.00    +0.000 C 
BRANCH  16  21
ATOM     17  C   UNL     1       9.457  11.291  20.747  0.00  0.00    +0.000 A 
ATOM     18  C   UNL     1      10.742  11.715  20.409  0.00  0.00    +0.000 A 
ATOM     19  C   UNL     1      11.233  11.517  19.117  0.00  0.00    +0.000 A 
ATOM     20  C   UNL     1      10.440  10.891  18.156  0.00  0.00    +0.000 A 
ATOM     21  C   UNL     1       9.152  10.443  18.481  0.00  0.00    +0.000 A 
ATOM     22  C   UNL     1       8.667  10.662  19.778  0.00  0.00    +0.000 A 
BRANCH  17  24
ATOM     23  C   UNL     1       9.023  12.921  22.419  0.00  0.00    +0.000 C 
ATOM     24  O   UNL     1       9.088  11.552  22.038  0.00  0.00    +0.000 OA
ENDBRANCH  17  24
ENDBRANCH  16  21
ENDBRANCH  12  16
ENDBRANCH   1  14
BRANCH   1  25
ATOM     25  C   UNL     1       4.771   6.595  17.657  0.00  0.00    +0.000 C 
BRANCH  25  26
ATOM     26  C   UNL     1       4.360   5.782  18.889  0.00  0.00    +0.000 C 
BRANCH  26  27
ATOM     27  S   UNL     1       5.430   4.345  19.244  0.00  0.00    +0.000 S 
ATOM     28  C   UNL     1       4.152   3.083  19.493  0.00  0.00    +0.000 C 
ENDBRANCH  26  27
ENDBRANCH  25  26
ENDBRANCH   1  25
TORSDOF 8
ENDMDL
MODEL 6
REMARK VINA RESULT:      -7.2      5.490      8.429
REMARK  Name = 
REMARK  10 active torsions:
REMARK  status: ('A' for Active; 'I' for Inactive)
REMARK    1  A    between atoms: C_1  and  O_2
REMARK    2  A    between atoms: O_2  and  C_3
REMARK    3  A    between atoms: C_7  and  C_8
REMARK    4  A    between atoms: C_8  and  C_9
REMARK    5  A    between atoms: N_11  and  C_12
REMARK    6  A    between atoms: C_12  and  C_13
REMARK    7  A    between atoms: C_12  and  C_17
REMARK    8  A    between atoms: C_13  and  C_14
REMARK    9  A    between atoms: C_14  and  S_15
REMARK   10  A    between atoms: S_15  and  C_16
REMARK                            x       y       z     vdW  Elec       q    Type
REMARK                         _______ _______ _______ _____ _____    ______ ____
ROOT
ATOM      1  C   UNL     1       3.746   5.000  18.405  0.00  0.00    +0.000 C 
ENDROOT
BRANCH   1   2
ATOM      2  C   UNL     1       3.181   6.335  18.789  0.00  0.00    +0.000 A 
ATOM      3  N   UNL     1       2.603   6.647  19.935  0.00  0.00    +0.000 NA
ATOM      4  C   UNL     1       1.966   7.843  19.709  0.00  0.00    +0.000 A 
ATOM      5  C   UNL     1       1.113   8.573  20.547  0.00  0.00    +0.000 A 
ATOM      6  C   UNL     1       0.545   9.761  20.063  0.00  0.00    +0.000 A 
ATOM      7  C   UNL     1       0.829  10.212  18.773  0.00  0.00    +0.000 A 
ATOM      8  C   UNL     1       1.680   9.496  17.920  0.00  0.00    +0.000 A 
ATOM      9  C   UNL     1       2.225   8.314  18.427  0.00  0.00    +0.000 A 
ATOM     10  N   UNL     1       3.042   7.356  17.877  0.00  0.00    +0.000 N 
ATOM     11  H   UNL     1       3.372   7.343  16.918  0.00  0.00    +0.000 HD
ENDBRANCH   1   2
BRANCH   1  14
ATOM     12  C   UNL     1       5.375   4.454  16.644  0.00  0.00    +0.000 C 
ATOM     13  O   UNL     1       4.601   3.656  16.117  0.00  0.00    +0.000 OA
ATOM     14  N   UNL     1       5.033   5.199  17.755  0.00  0.00    +0.000 N 
ATOM     15  H   UNL     1       5.754   5.658  18.299  0.00  0.00    +0.000 HD
BRANCH  12  16
ATOM     16  C   UNL     1       6.769   4.702  16.093  0.00  0.00    +0.000 C 
BRANCH  16  21
ATOM     17  C   UNL     1       6.184   3.524  12.509  0.00  0.00    +0.000 A 
ATOM     18  C   UNL     1       7.072   4.336  11.804  0.00  0.00    +0.000 A 
ATOM     19  C   UNL     1       7.860   5.272  12.477  0.00  0.00    +0.000 A 
ATOM     20  C   UNL     1       7.762   5.401  13.862  0.00  0.00    +0.000 A 
ATOM     21  C   UNL     1       6.865   4.605  14.588  0.00  0.00    +0.000 A 
ATOM     22  C   UNL     1       6.091   3.659  13.899  0.00  0.00    +0.000 A 
BRANCH  17  24
ATOM     23  C   UNL     1       4.197   3.065  11.293  0.00  0.00    +0.000 C 
ATOM     24  O   UNL     1       5.478   2.640  11.740  0.00  0.00    +0.000 OA
ENDBRANCH  17  24
ENDBRANCH  16  21
ENDBRANCH  12  16
ENDBRANCH   1  14
BRANCH   1  25
ATOM     25  C   UNL     1       3.902   4.125  19.665  0.00  0.00    +0.000 C 
BRANCH  25  26
ATOM     26  C   UNL     1       3.464   2.669  19.480  0.00  0.00    +0.000 C 
BRANCH  26  27
ATOM     27  S   UNL     1       1.809   2.461  18.736  0.00  0.00    +0.000 S 
ATOM     28  C   UNL     1       0.817   3.326  19.982  0.00  0.00    +0.000 C 
ENDBRANCH  26  27
ENDBRANCH  25  26
ENDBRANCH   1  25
TORSDOF 8
ENDMDL
MODEL 7
REMARK VINA RESULT:      -7.2      5.443      8.286
REMARK  Name = 
REMARK  10 active torsions:
REMARK  status: ('A' for Active; 'I' for Inactive)
REMARK    1  A    between atoms: C_1  and  O_2
REMARK    2  A    between atoms: O_2  and  C_3
REMARK    3  A    between atoms: C_7  and  C_8
REMARK    4  A    between atoms: C_8  and  C_9
REMARK    5  A    between atoms: N_11  and  C_12
REMARK    6  A    between atoms: C_12  and  C_13
REMARK    7  A    between atoms: C_12  and  C_17
REMARK    8  A    between atoms: C_13  and  C_14
REMARK    9  A    between atoms: C_14  and  S_15
REMARK   10  A    between atoms: S_15  and  C_16
REMARK                            x       y       z     vdW  Elec       q    Type
REMARK                         _______ _______ _______ _____ _____    ______ ____
ROOT
ATOM      1  C   UNL     1       2.666   6.398  19.461  0.00  0.00    +0.000 C 
ENDROOT
BRANCH   1   2
ATOM      2  C   UNL     1       3.799   5.663  18.808  0.00  0.00    +0.000 A 
ATOM      3  N   UNL     1       5.041   5.577  19.249  0.00  0.00    +0.000 NA
ATOM      4  C   UNL     1       5.773   5.103  18.187  0.00  0.00    +0.000 A 
ATOM      5  C   UNL     1       7.157   4.925  18.065  0.00  0.00    +0.000 A 
ATOM      6  C   UNL     1       7.673   4.463  16.845  0.00  0.00    +0.000 A 
ATOM      7  C   UNL     1       6.824   4.178  15.774  0.00  0.00    +0.000 A 
ATOM      8  C   UNL     1       5.438   4.349  15.878  0.00  0.00    +0.000 A 
ATOM      9  C   UNL     1       4.953   4.818  17.101  0.00  0.00    +0.000 A 
ATOM     10  N   UNL     1       3.692   5.139  17.541  0.00  0.00    +0.000 N 
ATOM     11  H   UNL     1       2.849   5.119  16.977  0.00  0.00    +0.000 HD
ENDBRANCH   1   2
BRANCH   1  14
ATOM     12  C   UNL     1       1.612   8.598  19.137  0.00  0.00    +0.000 C 
ATOM     13  O   UNL     1       1.419   8.729  20.345  0.00  0.00    +0.000 OA
ATOM     14  N   UNL     1       2.258   7.501  18.603  0.00  0.00    +0.000 N 
ATOM     15  H   UNL     1       2.191   7.307  17.611  0.00  0.00    +0.000 HD
BRANCH  12  16
ATOM     16  C   UNL     1       1.176   9.653  18.136  0.00  0.00    +0.000 C 
BRANCH  16  21
ATOM     17  C   UNL     1      -2.474  10.769  18.209  0.00  0.00    +0.000 A 
ATOM     18  C   UNL     1      -2.431  11.790  19.159  0.00  0.00    +0.000 A 
ATOM     19  C   UNL     1      -1.228  12.122  19.785  0.00  0.00    +0.000 A 
ATOM     20  C   UNL     1      -0.060  11.430  19.465  0.00  0.00    +0.000 A 
ATOM     21  C   UNL     1      -0.085  10.391  18.525  0.00  0.00    +0.000 A 
ATOM     22  C   UNL     1      -1.298  10.079  17.894  0.00  0.00    +0.000 A 
BRANCH  17  24
ATOM     23  C   UNL     1      -3.916  11.043  16.343  0.00  0.00    +0.000 C 
ATOM     24  O   UNL     1      -3.707  10.547  17.659  0.00  0.00    +0.000 OA
ENDBRANCH  17  24
ENDBRANCH  16  21
ENDBRANCH  12  16
ENDBRANCH   1  14
BRANCH   1  25
ATOM     25  C   UNL     1       1.492   5.428  19.697  0.00  0.00    +0.000 C 
BRANCH  25  26
ATOM     26  C   UNL     1       1.692   4.469  20.875  0.00  0.00    +0.000 C 
BRANCH  26  27
ATOM     27  S   UNL     1       1.877   2.714  20.405  0.00  0.00    +0.000 S 
ATOM     28  C   UNL     1       0.955   2.730  18.844  0.00  0.00    +0.000 C 
ENDBRANCH  26  27
ENDBRANCH  25  26
ENDBRANCH   1  25
TORSDOF 8
ENDMDL
MODEL 8
REMARK VINA RESULT:      -7.2      6.849     10.507
REMARK  Name = 
REMARK  10 active torsions:
REMARK  status: ('A' for Active; 'I' for Inactive)
REMARK    1  A    between atoms: C_1  and  O_2
REMARK    2  A    between atoms: O_2  and  C_3
REMARK    3  A    between atoms: C_7  and  C_8
REMARK    4  A    between atoms: C_8  and  C_9
REMARK    5  A    between atoms: N_11  and  C_12
REMARK    6  A    between atoms: C_12  and  C_13
REMARK    7  A    between atoms: C_12  and  C_17
REMARK    8  A    between atoms: C_13  and  C_14
REMARK    9  A    between atoms: C_14  and  S_15
REMARK   10  A    between atoms: S_15  and  C_16
REMARK                            x       y       z     vdW  Elec       q    Type
REMARK                         _______ _______ _______ _____ _____    ______ ____
ROOT
ATOM      1  C   UNL     1       0.286  10.190  18.371  0.00  0.00    +0.000 C 
ENDROOT
BRANCH   1   2
ATOM      2  C   UNL     1       0.854  11.550  18.647  0.00  0.00    +0.000 A 
ATOM      3  N   UNL     1       0.211  12.585  19.153  0.00  0.00    +0.000 NA
ATOM      4  C   UNL     1       1.021  13.669  18.918  0.00  0.00    +0.000 A 
ATOM      5  C   UNL     1       0.782  15.031  19.148  0.00  0.00    +0.000 A 
ATOM      6  C   UNL     1       1.763  15.961  18.776  0.00  0.00    +0.000 A 
ATOM      7  C   UNL     1       2.959  15.540  18.192  0.00  0.00    +0.000 A 
ATOM      8  C   UNL     1       3.217  14.184  17.954  0.00  0.00    +0.000 A 
ATOM      9  C   UNL     1       2.219  13.281  18.329  0.00  0.00    +0.000 A 
ATOM     10  N   UNL     1       2.106  11.917  18.210  0.00  0.00    +0.000 N 
ATOM     11  H   UNL     1       2.778  11.308  17.755  0.00  0.00    +0.000 HD
ENDBRANCH   1   2
BRANCH   1  14
ATOM     12  C   UNL     1       2.058   8.486  18.478  0.00  0.00    +0.000 C 
ATOM     13  O   UNL     1       2.396   8.704  17.315  0.00  0.00    +0.000 OA
ATOM     14  N   UNL     1       1.054   9.196  19.106  0.00  0.00    +0.000 N 
ATOM     15  H   UNL     1       0.643   8.842  19.962  0.00  0.00    +0.000 HD
BRANCH  12  16
ATOM     16  C   UNL     1       2.745   7.431  19.327  0.00  0.00    +0.000 C 
BRANCH  16  21
ATOM     17  C   UNL     1       1.337   3.958  20.056  0.00  0.00    +0.000 A 
ATOM     18  C   UNL     1       1.312   3.397  18.779  0.00  0.00    +0.000 A 
ATOM     19  C   UNL     1       1.743   4.136  17.675  0.00  0.00    +0.000 A 
ATOM     20  C   UNL     1       2.200   5.442  17.844  0.00  0.00    +0.000 A 
ATOM     21  C   UNL     1       2.219   6.029  19.116  0.00  0.00    +0.000 A 
ATOM     22  C   UNL     1       1.796   5.270  20.217  0.00  0.00    +0.000 A 
BRANCH  17  24
ATOM     23  C   UNL     1       1.903   2.484  21.830  0.00  0.00    +0.000 C 
ATOM     24  O   UNL     1       0.901   3.132  21.055  0.00  0.00    +0.000 OA
ENDBRANCH  17  24
ENDBRANCH  16  21
ENDBRANCH  12  16
ENDBRANCH   1  14
BRANCH   1  25
ATOM     25  C   UNL     1      -1.196  10.155  18.795  0.00  0.00    +0.000 C 
BRANCH  25  26
ATOM     26  C   UNL     1      -2.169   9.814  17.662  0.00  0.00    +0.000 C 
BRANCH  26  27
ATOM     27  S   UNL     1      -2.660  11.236  16.627  0.00  0.00    +0.000 S 
ATOM     28  C   UNL     1      -2.962  10.369  15.063  0.00  0.00    +0.000 C 
ENDBRANCH  26  27
ENDBRANCH  25  26
ENDBRANCH   1  25
TORSDOF 8
ENDMDL
MODEL 9
REMARK VINA RESULT:      -7.2      7.443     10.615
REMARK  Name = 
REMARK  10 active torsions:
REMARK  status: ('A' for Active; 'I' for Inactive)
REMARK    1  A    between atoms: C_1  and  O_2
REMARK    2  A    between atoms: O_2  and  C_3
REMARK    3  A    between atoms: C_7  and  C_8
REMARK    4  A    between atoms: C_8  and  C_9
REMARK    5  A    between atoms: N_11  and  C_12
REMARK    6  A    between atoms: C_12  and  C_13
REMARK    7  A    between atoms: C_12  and  C_17
REMARK    8  A    between atoms: C_13  and  C_14
REMARK    9  A    between atoms: C_14  and  S_15
REMARK   10  A    between atoms: S_15  and  C_16
REMARK                            x       y       z     vdW  Elec       q    Type
REMARK                         _______ _______ _______ _____ _____    ______ ____
ROOT
ATOM      1  C   UNL     1       0.051  10.279  20.162  0.00  0.00    +0.000 C 
ENDROOT
BRANCH   1   2
ATOM      2  C   UNL     1      -0.913  10.654  19.075  0.00  0.00    +0.000 A 
ATOM      3  N   UNL     1      -2.030  11.344  19.215  0.00  0.00    +0.000 NA
ATOM      4  C   UNL     1      -2.724  11.156  18.045  0.00  0.00    +0.000 A 
ATOM      5  C   UNL     1      -4.017  11.570  17.697  0.00  0.00    +0.000 A 
ATOM      6  C   UNL     1      -4.525  11.210  16.440  0.00  0.00    +0.000 A 
ATOM      7  C   UNL     1      -3.756  10.460  15.549  0.00  0.00    +0.000 A 
ATOM      8  C   UNL     1      -2.462  10.037  15.879  0.00  0.00    +0.000 A 
ATOM      9  C   UNL     1      -1.985  10.404  17.140  0.00  0.00    +0.000 A 
ATOM     10  N   UNL     1      -0.813  10.137  17.804  0.00  0.00    +0.000 N 
ATOM     11  H   UNL     1      -0.064   9.546  17.462  0.00  0.00    +0.000 HD
ENDBRANCH   1   2
BRANCH   1  14
ATOM     12  C   UNL     1       1.439   8.253  20.317  0.00  0.00    +0.000 C 
ATOM     13  O   UNL     1       0.911   7.923  21.379  0.00  0.00    +0.000 OA
ATOM     14  N   UNL     1       1.055   9.378  19.616  0.00  0.00    +0.000 N 
ATOM     15  H   UNL     1       1.654   9.750  18.887  0.00  0.00    +0.000 HD
BRANCH  12  16
ATOM     16  C   UNL     1       2.541   7.427  19.679  0.00  0.00    +0.000 C 
BRANCH  16  21
ATOM     17  C   UNL     1       1.358   3.802  19.863  0.00  0.00    +0.000 A 
ATOM     18  C   UNL     1       1.380   3.436  18.517  0.00  0.00    +0.000 A 
ATOM     19  C   UNL     1       1.770   4.356  17.542  0.00  0.00    +0.000 A 
ATOM     20  C   UNL     1       2.139   5.649  17.909  0.00  0.00    +0.000 A 
ATOM     21  C   UNL     1       2.110   6.041  19.255  0.00  0.00    +0.000 A 
ATOM     22  C   UNL     1       1.729   5.102  20.224  0.00  0.00    +0.000 A 
BRANCH  17  24
ATOM     23  C   UNL     1       1.740   2.655  21.908  0.00  0.00    +0.000 C 
ATOM     24  O   UNL     1       0.970   2.811  20.722  0.00  0.00    +0.000 OA
ENDBRANCH  17  24
ENDBRANCH  16  21
ENDBRANCH  12  16
ENDBRANCH   1  14
BRANCH   1  25
ATOM     25  C   UNL     1       0.710  11.552  20.726  0.00  0.00    +0.000 C 
BRANCH  25  26
ATOM     26  C   UNL     1       1.582  12.311  19.721  0.00  0.00    +0.000 C 
BRANCH  26  27
ATOM     27  S   UNL     1       1.070  14.038  19.420  0.00  0.00    +0.000 S 
ATOM     28  C   UNL     1      -0.157  14.214  20.744  0.00  0.00    +0.000 C 
ENDBRANCH  26  27
ENDBRANCH  25  26
ENDBRANCH   1  25
TORSDOF 8
ENDMDL
