MODEL 1
REMARK VINA RESULT:      -7.9      0.000      0.000
REMARK  Name = 
REMARK  5 active torsions:
REMARK  status: ('A' for Active; 'I' for Inactive)
REMARK    1  A    between atoms: O_1  and  C_2
REMARK    2  A    between atoms: C_2  and  C_3
REMARK    3  A    between atoms: C_2  and  C_17
REMARK    4  A    between atoms: C_3  and  N_12
REMARK    5  A    between atoms: C_4  and  C_5
REMARK                            x       y       z     vdW  Elec       q    Type
REMARK                         _______ _______ _______ _____ _____    ______ ____
ROOT
ATOM      1  C   UNL     1       5.271   4.634  15.712  0.00  0.00    +0.000 C 
ATOM      2  C   UNL     1       4.594   3.563  16.199  0.00  0.00    +0.000 C 
ENDROOT
BRANCH   2   3
ATOM      3  C   UNL     1       3.766   3.503  17.403  0.00  0.00    +0.000 A 
ATOM      4  C   UNL     1       2.405   3.818  17.308  0.00  0.00    +0.000 A 
ATOM      5  C   UNL     1       1.583   3.715  18.431  0.00  0.00    +0.000 A 
ATOM      6  C   UNL     1       2.119   3.292  19.647  0.00  0.00    +0.000 A 
ATOM      7 CL   UNL     1       1.104   3.167  21.030  0.00  0.00    +0.000 Cl
ATOM      8  C   UNL     1       3.471   2.965  19.746  0.00  0.00    +0.000 A 
ATOM      9  C   UNL     1       4.297   3.073  18.621  0.00  0.00    +0.000 A 
ENDBRANCH   2   3
BRANCH   1  10
ATOM     10  N   UNL     1       5.944   4.496  14.472  0.00  0.00    +0.000 N 
ATOM     11  C   UNL     1       5.624   3.680  13.393  0.00  0.00    +0.000 A 
ATOM     12  N   UNL     1       6.545   3.725  12.457  0.00  0.00    +0.000 NA
ATOM     13  C   UNL     1       7.430   4.615  12.964  0.00  0.00    +0.000 A 
ATOM     14  N   UNL     1       7.085   5.177  14.119  0.00  0.00    +0.000 NA
ENDBRANCH   1  10
BRANCH   1  15
ATOM     15  C   UNL     1       5.213   6.005  16.362  0.00  0.00    +0.000 C 
BRANCH  15  16
ATOM     16  C   UNL     1       6.353   6.419  17.284  0.00  0.00    +0.000 A 
ATOM     17  C   UNL     1       6.916   7.705  17.118  0.00  0.00    +0.000 A 
ATOM     18  C   UNL     1       7.962   8.150  17.928  0.00  0.00    +0.000 A 
ATOM     19  C   UNL     1       8.462   7.322  18.927  0.00  0.00    +0.000 A 
ATOM     20  C   UNL     1       7.908   6.058  19.120  0.00  0.00    +0.000 A 
ATOM     21  C   UNL     1       6.861   5.611  18.311  0.00  0.00    +0.000 A 
ENDBRANCH  15  16
BRANCH  15  22
ATOM     22  O   UNL     1       5.103   6.989  15.330  0.00  0.00    +0.000 OA
ATOM     23  H   UNL     1       4.258   6.842  14.873  0.00  0.00    +0.000 HD
ENDBRANCH  15  22
ENDBRANCH   1  15
TORSDOF 5
ENDMDL
MODEL 2
REMARK VINA RESULT:      -7.9      0.082      1.030
REMARK  Name = 
REMARK  5 active torsions:
REMARK  status: ('A' for Active; 'I' for Inactive)
REMARK    1  A    between atoms: O_1  and  C_2
REMARK    2  A    between atoms: C_2  and  C_3
REMARK    3  A    between atoms: C_2  and  C_17
REMARK    4  A    between atoms: C_3  and  N_12
REMARK    5  A    between atoms: C_4  and  C_5
REMARK                            x       y       z     vdW  Elec       q    Type
REMARK                         _______ _______ _______ _____ _____    ______ ____
ROOT
ATOM      1  C   UNL     1       5.297   4.683  15.724  0.00  0.00    +0.000 C 
ATOM      2  C   UNL     1       4.643   3.605  16.226  0.00  0.00    +0.000 C 
ENDROOT
BRANCH   2   3
ATOM      3  C   UNL     1       3.806   3.547  17.423  0.00  0.00    +0.000 A 
ATOM      4  C   UNL     1       2.429   3.773  17.302  0.00  0.00    +0.000 A 
ATOM      5  C   UNL     1       1.603   3.669  18.421  0.00  0.00    +0.000 A 
ATOM      6  C   UNL     1       2.149   3.335  19.660  0.00  0.00    +0.000 A 
ATOM      7 CL   UNL     1       1.127   3.208  21.038  0.00  0.00    +0.000 Cl
ATOM      8  C   UNL     1       3.516   3.096  19.785  0.00  0.00    +0.000 A 
ATOM      9  C   UNL     1       4.348   3.205  18.664  0.00  0.00    +0.000 A 
ENDBRANCH   2   3
BRANCH   1  10
ATOM     10  N   UNL     1       5.986   4.538  14.493  0.00  0.00    +0.000 N 
ATOM     11  C   UNL     1       5.685   3.706  13.420  0.00  0.00    +0.000 A 
ATOM     12  N   UNL     1       6.615   3.751  12.493  0.00  0.00    +0.000 NA
ATOM     13  C   UNL     1       7.486   4.657  12.999  0.00  0.00    +0.000 A 
ATOM     14  N   UNL     1       7.122   5.228  14.144  0.00  0.00    +0.000 NA
ENDBRANCH   1  10
BRANCH   1  15
ATOM     15  C   UNL     1       5.200   6.064  16.347  0.00  0.00    +0.000 C 
BRANCH  15  16
ATOM     16  C   UNL     1       6.341   6.541  17.236  0.00  0.00    +0.000 A 
ATOM     17  C   UNL     1       6.826   5.664  18.233  0.00  0.00    +0.000 A 
ATOM     18  C   UNL     1       7.870   6.034  19.082  0.00  0.00    +0.000 A 
ATOM     19  C   UNL     1       8.458   7.287  18.948  0.00  0.00    +0.000 A 
ATOM     20  C   UNL     1       8.009   8.159  17.958  0.00  0.00    +0.000 A 
ATOM     21  C   UNL     1       6.965   7.790  17.107  0.00  0.00    +0.000 A 
ENDBRANCH  15  16
BRANCH  15  22
ATOM     22  O   UNL     1       5.031   7.021  15.297  0.00  0.00    +0.000 OA
ATOM     23  H   UNL     1       5.820   7.588  15.288  0.00  0.00    +0.000 HD
ENDBRANCH  15  22
ENDBRANCH   1  15
TORSDOF 5
ENDMDL
MODEL 3
REMARK VINA RESULT:      -7.8      0.074      1.034
REMARK  Name = 
REMARK  5 active torsions:
REMARK  status: ('A' for Active; 'I' for Inactive)
REMARK    1  A    between atoms: O_1  and  C_2
REMARK    2  A    between atoms: C_2  and  C_3
REMARK    3  A    between atoms: C_2  and  C_17
REMARK    4  A    between atoms: C_3  and  N_12
REMARK    5  A    between atoms: C_4  and  C_5
REMARK                            x       y       z     vdW  Elec       q    Type
REMARK                         _______ _______ _______ _____ _____    ______ ____
ROOT
ATOM      1  C   UNL     1       5.258   4.616  15.703  0.00  0.00    +0.000 C 
ATOM      2  C   UNL     1       4.575   3.537  16.162  0.00  0.00    +0.000 C 
ENDROOT
BRANCH   2   3
ATOM      3  C   UNL     1       3.727   3.456  17.350  0.00  0.00    +0.000 A 
ATOM      4  C   UNL     1       4.296   3.053  18.565  0.00  0.00    +0.000 A 
ATOM      5  C   UNL     1       3.520   3.021  19.724  0.00  0.00    +0.000 A 
ATOM      6  C   UNL     1       2.177   3.394  19.672  0.00  0.00    +0.000 A 
ATOM      7 CL   UNL     1       1.223   3.352  21.102  0.00  0.00    +0.000 Cl
ATOM      8  C   UNL     1       1.608   3.807  18.468  0.00  0.00    +0.000 A 
ATOM      9  C   UNL     1       2.384   3.836  17.304  0.00  0.00    +0.000 A 
ENDBRANCH   2   3
BRANCH   1  10
ATOM     10  N   UNL     1       5.954   4.499  14.474  0.00  0.00    +0.000 N 
ATOM     11  C   UNL     1       5.658   3.692  13.380  0.00  0.00    +0.000 A 
ATOM     12  N   UNL     1       6.594   3.757  12.460  0.00  0.00    +0.000 NA
ATOM     13  C   UNL     1       7.463   4.649  12.992  0.00  0.00    +0.000 A 
ATOM     14  N   UNL     1       7.094   5.194  14.148  0.00  0.00    +0.000 NA
ENDBRANCH   1  10
BRANCH   1  15
ATOM     15  C   UNL     1       5.186   5.977  16.373  0.00  0.00    +0.000 C 
BRANCH  15  16
ATOM     16  C   UNL     1       6.329   6.395  17.290  0.00  0.00    +0.000 A 
ATOM     17  C   UNL     1       6.903   7.674  17.105  0.00  0.00    +0.000 A 
ATOM     18  C   UNL     1       7.952   8.122  17.909  0.00  0.00    +0.000 A 
ATOM     19  C   UNL     1       8.444   7.306  18.922  0.00  0.00    +0.000 A 
ATOM     20  C   UNL     1       7.879   6.050  19.133  0.00  0.00    +0.000 A 
ATOM     21  C   UNL     1       6.828   5.599  18.330  0.00  0.00    +0.000 A 
ENDBRANCH  15  16
BRANCH  15  22
ATOM     22  O   UNL     1       5.051   6.974  15.356  0.00  0.00    +0.000 OA
ATOM     23  H   UNL     1       4.171   7.374  15.453  0.00  0.00    +0.000 HD
ENDBRANCH  15  22
ENDBRANCH   1  15
TORSDOF 5
ENDMDL
MODEL 4
REMARK VINA RESULT:      -7.8      0.133      1.460
REMARK  Name = 
REMARK  5 active torsions:
REMARK  status: ('A' for Active; 'I' for Inactive)
REMARK    1  A    between atoms: O_1  and  C_2
REMARK    2  A    between atoms: C_2  and  C_3
REMARK    3  A    between atoms: C_2  and  C_17
REMARK    4  A    between atoms: C_3  and  N_12
REMARK    5  A    between atoms: C_4  and  C_5
REMARK                            x       y       z     vdW  Elec       q    Type
REMARK                         _______ _______ _______ _____ _____    ______ ____
ROOT
ATOM      1  C   UNL     1       5.294   4.655  15.690  0.00  0.00    +0.000 C 
ATOM      2  C   UNL     1       4.612   3.579  16.156  0.00  0.00    +0.000 C 
ENDROOT
BRANCH   2   3
ATOM      3  C   UNL     1       3.752   3.508  17.336  0.00  0.00    +0.000 A 
ATOM      4  C   UNL     1       4.291   3.047  18.543  0.00  0.00    +0.000 A 
ATOM      5  C   UNL     1       3.506   3.021  19.695  0.00  0.00    +0.000 A 
ATOM      6  C   UNL     1       2.183   3.461  19.644  0.00  0.00    +0.000 A 
ATOM      7 CL   UNL     1       1.216   3.427  21.067  0.00  0.00    +0.000 Cl
ATOM      8  C   UNL     1       1.643   3.932  18.449  0.00  0.00    +0.000 A 
ATOM      9  C   UNL     1       2.429   3.953  17.290  0.00  0.00    +0.000 A 
ENDBRANCH   2   3
BRANCH   1  10
ATOM     10  N   UNL     1       6.003   4.527  14.469  0.00  0.00    +0.000 N 
ATOM     11  C   UNL     1       5.718   3.712  13.379  0.00  0.00    +0.000 A 
ATOM     12  N   UNL     1       6.664   3.767  12.470  0.00  0.00    +0.000 NA
ATOM     13  C   UNL     1       7.530   4.660  13.004  0.00  0.00    +0.000 A 
ATOM     14  N   UNL     1       7.149   5.215  14.151  0.00  0.00    +0.000 NA
ENDBRANCH   1  10
BRANCH   1  15
ATOM     15  C   UNL     1       5.207   6.024  16.341  0.00  0.00    +0.000 C 
BRANCH  15  16
ATOM     16  C   UNL     1       6.340   6.464  17.259  0.00  0.00    +0.000 A 
ATOM     17  C   UNL     1       6.783   5.565  18.256  0.00  0.00    +0.000 A 
ATOM     18  C   UNL     1       7.818   5.901  19.130  0.00  0.00    +0.000 A 
ATOM     19  C   UNL     1       8.438   7.141  19.023  0.00  0.00    +0.000 A 
ATOM     20  C   UNL     1       8.030   8.035  18.035  0.00  0.00    +0.000 A 
ATOM     21  C   UNL     1       6.995   7.699  17.158  0.00  0.00    +0.000 A 
ENDBRANCH  15  16
BRANCH  15  22
ATOM     22  O   UNL     1       5.070   7.006  15.311  0.00  0.00    +0.000 OA
ATOM     23  H   UNL     1       5.595   6.708  14.550  0.00  0.00    +0.000 HD
ENDBRANCH  15  22
ENDBRANCH   1  15
TORSDOF 5
ENDMDL
MODEL 5
REMARK VINA RESULT:      -7.4      3.447      5.508
REMARK  Name = 
REMARK  5 active torsions:
REMARK  status: ('A' for Active; 'I' for Inactive)
REMARK    1  A    between atoms: O_1  and  C_2
REMARK    2  A    between atoms: C_2  and  C_3
REMARK    3  A    between atoms: C_2  and  C_17
REMARK    4  A    between atoms: C_3  and  N_12
REMARK    5  A    between atoms: C_4  and  C_5
REMARK                            x       y       z     vdW  Elec       q    Type
REMARK                         _______ _______ _______ _____ _____    ______ ____
ROOT
ATOM      1  C   UNL     1       4.350   6.085  17.891  0.00  0.00    +0.000 C 
ATOM      2  C   UNL     1       3.702   7.220  17.528  0.00  0.00    +0.000 C 
ENDROOT
BRANCH   2   3
ATOM      3  C   UNL     1       2.662   7.931  18.270  0.00  0.00    +0.000 A 
ATOM      4  C   UNL     1       2.392   7.554  19.592  0.00  0.00    +0.000 A 
ATOM      5  C   UNL     1       1.442   8.252  20.338  0.00  0.00    +0.000 A 
ATOM      6  C   UNL     1       0.765   9.330  19.767  0.00  0.00    +0.000 A 
ATOM      7 CL   UNL     1      -0.406  10.188  20.689  0.00  0.00    +0.000 Cl
ATOM      8  C   UNL     1       1.037   9.717  18.456  0.00  0.00    +0.000 A 
ATOM      9  C   UNL     1       1.986   9.015  17.704  0.00  0.00    +0.000 A 
ENDBRANCH   2   3
BRANCH   1  10
ATOM     10  N   UNL     1       5.395   5.611  17.058  0.00  0.00    +0.000 N 
ATOM     11  C   UNL     1       6.573   6.252  16.689  0.00  0.00    +0.000 A 
ATOM     12  N   UNL     1       7.250   5.554  15.806  0.00  0.00    +0.000 NA
ATOM     13  C   UNL     1       6.484   4.448  15.659  0.00  0.00    +0.000 A 
ATOM     14  N   UNL     1       5.412   4.382  16.444  0.00  0.00    +0.000 NA
ENDBRANCH   1  10
BRANCH   1  15
ATOM     15  C   UNL     1       4.105   5.390  19.219  0.00  0.00    +0.000 C 
BRANCH  15  16
ATOM     16  C   UNL     1       2.916   4.444  19.333  0.00  0.00    +0.000 A 
ATOM     17  C   UNL     1       2.432   4.128  20.623  0.00  0.00    +0.000 A 
ATOM     18  C   UNL     1       1.346   3.269  20.802  0.00  0.00    +0.000 A 
ATOM     19  C   UNL     1       0.715   2.714  19.694  0.00  0.00    +0.000 A 
ATOM     20  C   UNL     1       1.164   3.028  18.412  0.00  0.00    +0.000 A 
ATOM     21  C   UNL     1       2.250   3.889  18.232  0.00  0.00    +0.000 A 
ENDBRANCH  15  16
BRANCH  15  22
ATOM     22  O   UNL     1       5.283   4.660  19.571  0.00  0.00    +0.000 OA
ATOM     23  H   UNL     1       5.088   3.715  19.453  0.00  0.00    +0.000 HD
ENDBRANCH  15  22
ENDBRANCH   1  15
TORSDOF 5
ENDMDL
MODEL 6
REMARK VINA RESULT:      -7.4      3.302      5.311
REMARK  Name = 
REMARK  5 active torsions:
REMARK  status: ('A' for Active; 'I' for Inactive)
REMARK    1  A    between atoms: O_1  and  C_2
REMARK    2  A    between atoms: C_2  and  C_3
REMARK    3  A    between atoms: C_2  and  C_17
REMARK    4  A    between atoms: C_3  and  N_12
REMARK    5  A    between atoms: C_4  and  C_5
REMARK                            x       y       z     vdW  Elec       q    Type
REMARK                         _______ _______ _______ _____ _____    ______ ____
ROOT
ATOM      1  C   UNL     1       4.478   5.861  17.800  0.00  0.00    +0.000 C 
ATOM      2  C   UNL     1       3.854   7.025  17.487  0.00  0.00    +0.000 C 
ENDROOT
BRANCH   2   3
ATOM      3  C   UNL     1       2.872   7.755  18.287  0.00  0.00    +0.000 A 
ATOM      4  C   UNL     1       2.191   8.833  17.709  0.00  0.00    +0.000 A 
ATOM      5  C   UNL     1       1.210   9.510  18.434  0.00  0.00    +0.000 A 
ATOM      6  C   UNL     1       0.905   9.109  19.734  0.00  0.00    +0.000 A 
ATOM      7 CL   UNL     1      -0.304   9.946  20.626  0.00  0.00    +0.000 Cl
ATOM      8  C   UNL     1       1.571   8.029  20.312  0.00  0.00    +0.000 A 
ATOM      9  C   UNL     1       2.559   7.351  19.588  0.00  0.00    +0.000 A 
ENDBRANCH   2   3
BRANCH   1  10
ATOM     10  N   UNL     1       5.469   5.370  16.914  0.00  0.00    +0.000 N 
ATOM     11  C   UNL     1       6.663   5.968  16.525  0.00  0.00    +0.000 A 
ATOM     12  N   UNL     1       7.275   5.272  15.594  0.00  0.00    +0.000 NA
ATOM     13  C   UNL     1       6.452   4.209  15.436  0.00  0.00    +0.000 A 
ATOM     14  N   UNL     1       5.406   4.165  16.256  0.00  0.00    +0.000 NA
ENDBRANCH   1  10
BRANCH   1  15
ATOM     15  C   UNL     1       4.265   5.148  19.123  0.00  0.00    +0.000 C 
BRANCH  15  16
ATOM     16  C   UNL     1       3.029   4.272  19.284  0.00  0.00    +0.000 A 
ATOM     17  C   UNL     1       2.585   3.973  20.593  0.00  0.00    +0.000 A 
ATOM     18  C   UNL     1       1.459   3.179  20.814  0.00  0.00    +0.000 A 
ATOM     19  C   UNL     1       0.747   2.672  19.732  0.00  0.00    +0.000 A 
ATOM     20  C   UNL     1       1.156   2.971  18.434  0.00  0.00    +0.000 A 
ATOM     21  C   UNL     1       2.282   3.767  18.211  0.00  0.00    +0.000 A 
ENDBRANCH  15  16
BRANCH  15  22
ATOM     22  O   UNL     1       5.414   4.338  19.389  0.00  0.00    +0.000 OA
ATOM     23  H   UNL     1       5.734   4.565  20.278  0.00  0.00    +0.000 HD
ENDBRANCH  15  22
ENDBRANCH   1  15
TORSDOF 5
ENDMDL
MODEL 7
REMARK VINA RESULT:      -7.4      3.293      5.250
REMARK  Name = 
REMARK  5 active torsions:
REMARK  status: ('A' for Active; 'I' for Inactive)
REMARK    1  A    between atoms: O_1  and  C_2
REMARK    2  A    between atoms: C_2  and  C_3
REMARK    3  A    between atoms: C_2  and  C_17
REMARK    4  A    between atoms: C_3  and  N_12
REMARK    5  A    between atoms: C_4  and  C_5
REMARK                            x       y       z     vdW  Elec       q    Type
REMARK                         _______ _______ _______ _____ _____    ______ ____
ROOT
ATOM      1  C   UNL     1       4.483   5.826  17.803  0.00  0.00    +0.000 C 
ATOM      2  C   UNL     1       3.848   6.981  17.479  0.00  0.00    +0.000 C 
ENDROOT
BRANCH   2   3
ATOM      3  C   UNL     1       2.876   7.721  18.283  0.00  0.00    +0.000 A 
ATOM      4  C   UNL     1       2.195   8.799  17.704  0.00  0.00    +0.000 A 
ATOM      5  C   UNL     1       1.225   9.486  18.433  0.00  0.00    +0.000 A 
ATOM      6  C   UNL     1       0.929   9.094  19.739  0.00  0.00    +0.000 A 
ATOM      7 CL   UNL     1      -0.268   9.944  20.636  0.00  0.00    +0.000 Cl
ATOM      8  C   UNL     1       1.594   8.015  20.317  0.00  0.00    +0.000 A 
ATOM      9  C   UNL     1       2.572   7.327  19.589  0.00  0.00    +0.000 A 
ENDBRANCH   2   3
BRANCH   1  10
ATOM     10  N   UNL     1       5.460   5.323  16.908  0.00  0.00    +0.000 N 
ATOM     11  C   UNL     1       6.632   5.929  16.467  0.00  0.00    +0.000 A 
ATOM     12  N   UNL     1       7.233   5.213  15.545  0.00  0.00    +0.000 NA
ATOM     13  C   UNL     1       6.427   4.130  15.445  0.00  0.00    +0.000 A 
ATOM     14  N   UNL     1       5.403   4.095  16.293  0.00  0.00    +0.000 NA
ENDBRANCH   1  10
BRANCH   1  15
ATOM     15  C   UNL     1       4.298   5.137  19.143  0.00  0.00    +0.000 C 
BRANCH  15  16
ATOM     16  C   UNL     1       3.058   4.276  19.350  0.00  0.00    +0.000 A 
ATOM     17  C   UNL     1       2.353   3.829  18.209  0.00  0.00    +0.000 A 
ATOM     18  C   UNL     1       1.210   3.036  18.325  0.00  0.00    +0.000 A 
ATOM     19  C   UNL     1       0.750   2.667  19.584  0.00  0.00    +0.000 A 
ATOM     20  C   UNL     1       1.441   3.081  20.721  0.00  0.00    +0.000 A 
ATOM     21  C   UNL     1       2.586   3.873  20.607  0.00  0.00    +0.000 A 
ENDBRANCH  15  16
BRANCH  15  22
ATOM     22  O   UNL     1       5.446   4.321  19.393  0.00  0.00    +0.000 OA
ATOM     23  H   UNL     1       5.225   3.414  19.124  0.00  0.00    +0.000 HD
ENDBRANCH  15  22
ENDBRANCH   1  15
TORSDOF 5
ENDMDL
MODEL 8
REMARK VINA RESULT:      -7.3      3.299      5.349
REMARK  Name = 
REMARK  5 active torsions:
REMARK  status: ('A' for Active; 'I' for Inactive)
REMARK    1  A    between atoms: O_1  and  C_2
REMARK    2  A    between atoms: C_2  and  C_3
REMARK    3  A    between atoms: C_2  and  C_17
REMARK    4  A    between atoms: C_3  and  N_12
REMARK    5  A    between atoms: C_4  and  C_5
REMARK                            x       y       z     vdW  Elec       q    Type
REMARK                         _______ _______ _______ _____ _____    ______ ____
ROOT
ATOM      1  C   UNL     1       4.471   5.742  17.836  0.00  0.00    +0.000 C 
ATOM      2  C   UNL     1       3.829   6.879  17.466  0.00  0.00    +0.000 C 
ENDROOT
BRANCH   2   3
ATOM      3  C   UNL     1       2.834   7.631  18.229  0.00  0.00    +0.000 A 
ATOM      4  C   UNL     1       2.580   7.267  19.558  0.00  0.00    +0.000 A 
ATOM      5  C   UNL     1       1.675   8.003  20.323  0.00  0.00    +0.000 A 
ATOM      6  C   UNL     1       1.027   9.104  19.764  0.00  0.00    +0.000 A 
ATOM      7 CL   UNL     1      -0.090  10.009  20.710  0.00  0.00    +0.000 Cl
ATOM      8  C   UNL     1       1.284   9.478  18.446  0.00  0.00    +0.000 A 
ATOM      9  C   UNL     1       2.188   8.738  17.675  0.00  0.00    +0.000 A 
ENDBRANCH   2   3
BRANCH   1  10
ATOM     10  N   UNL     1       5.471   5.224  16.974  0.00  0.00    +0.000 N 
ATOM     11  C   UNL     1       6.691   5.790  16.617  0.00  0.00    +0.000 A 
ATOM     12  N   UNL     1       7.308   5.078  15.702  0.00  0.00    +0.000 NA
ATOM     13  C   UNL     1       6.460   4.038  15.521  0.00  0.00    +0.000 A 
ATOM     14  N   UNL     1       5.392   4.021  16.315  0.00  0.00    +0.000 NA
ENDBRANCH   1  10
BRANCH   1  15
ATOM     15  C   UNL     1       4.269   5.091  19.192  0.00  0.00    +0.000 C 
BRANCH  15  16
ATOM     16  C   UNL     1       3.031   4.229  19.405  0.00  0.00    +0.000 A 
ATOM     17  C   UNL     1       2.390   3.684  18.268  0.00  0.00    +0.000 A 
ATOM     18  C   UNL     1       1.252   2.884  18.389  0.00  0.00    +0.000 A 
ATOM     19  C   UNL     1       0.734   2.606  19.650  0.00  0.00    +0.000 A 
ATOM     20  C   UNL     1       1.362   3.117  20.784  0.00  0.00    +0.000 A 
ATOM     21  C   UNL     1       2.502   3.917  20.665  0.00  0.00    +0.000 A 
ENDBRANCH  15  16
BRANCH  15  22
ATOM     22  O   UNL     1       5.417   4.289  19.484  0.00  0.00    +0.000 OA
ATOM     23  H   UNL     1       6.050   4.409  18.756  0.00  0.00    +0.000 HD
ENDBRANCH  15  22
ENDBRANCH   1  15
TORSDOF 5
ENDMDL
MODEL 9
REMARK VINA RESULT:      -7.0      3.743      4.772
REMARK  Name = 
REMARK  5 active torsions:
REMARK  status: ('A' for Active; 'I' for Inactive)
REMARK    1  A    between atoms: O_1  and  C_2
REMARK    2  A    between atoms: C_2  and  C_3
REMARK    3  A    between atoms: C_2  and  C_17
REMARK    4  A    between atoms: C_3  and  N_12
REMARK    5  A    between atoms: C_4  and  C_5
REMARK                            x       y       z     vdW  Elec       q    Type
REMARK                         _______ _______ _______ _____ _____    ______ ____
ROOT
ATOM      1  C   UNL     1       3.529   4.801  18.576  0.00  0.00    +0.000 C 
ATOM      2  C   UNL     1       2.580   5.467  19.281  0.00  0.00    +0.000 C 
ENDROOT
BRANCH   2   3
ATOM      3  C   UNL     1       2.226   6.882  19.187  0.00  0.00    +0.000 A 
ATOM      4  C   UNL     1       2.333   7.529  17.950  0.00  0.00    +0.000 A 
ATOM      5  C   UNL     1       1.950   8.864  17.823  0.00  0.00    +0.000 A 
ATOM      6  C   UNL     1       1.456   9.553  18.930  0.00  0.00    +0.000 A 
ATOM      7 CL   UNL     1       0.985  11.200  18.772  0.00  0.00    +0.000 Cl
ATOM      8  C   UNL     1       1.335   8.912  20.162  0.00  0.00    +0.000 A 
ATOM      9  C   UNL     1       1.724   7.574  20.292  0.00  0.00    +0.000 A 
ENDBRANCH   2   3
BRANCH   1  10
ATOM     10  N   UNL     1       3.647   3.401  18.762  0.00  0.00    +0.000 N 
ATOM     11  C   UNL     1       4.279   2.709  19.790  0.00  0.00    +0.000 A 
ATOM     12  N   UNL     1       4.291   1.415  19.570  0.00  0.00    +0.000 NA
ATOM     13  C   UNL     1       3.623   1.312  18.397  0.00  0.00    +0.000 A 
ATOM     14  N   UNL     1       3.136   2.450  17.911  0.00  0.00    +0.000 NA
ENDBRANCH   1  10
BRANCH   1  15
ATOM     15  C   UNL     1       4.362   5.466  17.494  0.00  0.00    +0.000 C 
BRANCH  15  16
ATOM     16  C   UNL     1       5.733   6.015  17.871  0.00  0.00    +0.000 A 
ATOM     17  C   UNL     1       6.201   7.167  17.199  0.00  0.00    +0.000 A 
ATOM     18  C   UNL     1       7.446   7.725  17.494  0.00  0.00    +0.000 A 
ATOM     19  C   UNL     1       8.248   7.147  18.472  0.00  0.00    +0.000 A 
ATOM     20  C   UNL     1       7.797   6.021  19.159  0.00  0.00    +0.000 A 
ATOM     21  C   UNL     1       6.551   5.462  18.867  0.00  0.00    +0.000 A 
ENDBRANCH  15  16
BRANCH  15  22
ATOM     22  O   UNL     1       4.541   4.533  16.425  0.00  0.00    +0.000 OA
ATOM     23  H   UNL     1       5.367   4.049  16.593  0.00  0.00    +0.000 HD
ENDBRANCH  15  22
ENDBRANCH   1  15
TORSDOF 5
ENDMDL
