MODEL 1
REMARK VINA RESULT:      -8.0      0.000      0.000
REMARK  Name = 
REMARK  1 active torsions:
REMARK  status: ('A' for Active; 'I' for Inactive)
REMARK    1  A    between atoms: C_4  and  C_5
REMARK                            x       y       z     vdW  Elec       q    Type
REMARK                         _______ _______ _______ _____ _____    ______ ____
ROOT
ATOM      1  O   UNL     1       5.232   1.849  20.906  0.00  0.00    +0.000 OA
ATOM      2  C   UNL     1       4.670   2.556  20.080  0.00  0.00    +0.000 A 
ATOM      3  N   UNL     1       5.310   3.053  18.972  0.00  0.00    +0.000 N 
ATOM      4  C   UNL     1       4.699   3.844  18.028  0.00  0.00    +0.000 A 
ATOM      5  N   UNL     1       3.454   4.199  18.106  0.00  0.00    +0.000 NA
ATOM      6  C   UNL     1       2.708   3.749  19.207  0.00  0.00    +0.000 A 
ATOM      7  C   UNL     1       1.369   4.130  19.304  0.00  0.00    +0.000 A 
ATOM      8  C   UNL     1       0.584   3.705  20.379  0.00  0.00    +0.000 A 
ATOM      9  C   UNL     1       1.136   2.889  21.368  0.00  0.00    +0.000 A 
ATOM     10  C   UNL     1       2.474   2.501  21.286  0.00  0.00    +0.000 A 
ATOM     11  C   UNL     1       3.250   2.935  20.207  0.00  0.00    +0.000 A 
ATOM     12  H   UNL     1       6.288   2.816  18.848  0.00  0.00    +0.000 HD
ENDROOT
BRANCH   4  13
ATOM     13  C   UNL     1       5.563   4.276  16.895  0.00  0.00    +0.000 A 
ATOM     14  C   UNL     1       6.645   5.117  17.130  0.00  0.00    +0.000 A 
ATOM     15  C   UNL     1       7.432   5.494  16.050  0.00  0.00    +0.000 A 
ATOM     16  C   UNL     1       7.112   5.021  14.781  0.00  0.00    +0.000 A 
ATOM     17  C   UNL     1       6.010   4.185  14.642  0.00  0.00    +0.000 A 
ATOM     18 BR   UNL     1       5.574   3.538  12.914  0.00  0.00    +0.000 Br
ATOM     19  N   UNL     1       5.222   3.798  15.670  0.00  0.00    +0.000 NA
ENDBRANCH   4  13
TORSDOF 1
ENDMDL
MODEL 2
REMARK VINA RESULT:      -7.6      1.635      2.267
REMARK  Name = 
REMARK  1 active torsions:
REMARK  status: ('A' for Active; 'I' for Inactive)
REMARK    1  A    between atoms: C_4  and  C_5
REMARK                            x       y       z     vdW  Elec       q    Type
REMARK                         _______ _______ _______ _____ _____    ______ ____
ROOT
ATOM      1  O   UNL     1       0.672   4.123  17.286  0.00  0.00    +0.000 OA
ATOM      2  C   UNL     1       1.795   3.945  17.743  0.00  0.00    +0.000 A 
ATOM      3  N   UNL     1       2.935   4.168  17.013  0.00  0.00    +0.000 N 
ATOM      4  C   UNL     1       4.206   3.981  17.505  0.00  0.00    +0.000 A 
ATOM      5  N   UNL     1       4.438   3.568  18.712  0.00  0.00    +0.000 NA
ATOM      6  C   UNL     1       3.338   3.304  19.543  0.00  0.00    +0.000 A 
ATOM      7  C   UNL     1       3.578   2.853  20.841  0.00  0.00    +0.000 A 
ATOM      8  C   UNL     1       2.516   2.579  21.707  0.00  0.00    +0.000 A 
ATOM      9  C   UNL     1       1.200   2.759  21.278  0.00  0.00    +0.000 A 
ATOM     10  C   UNL     1       0.944   3.208  19.982  0.00  0.00    +0.000 A 
ATOM     11  C   UNL     1       2.015   3.476  19.123  0.00  0.00    +0.000 A 
ATOM     12  H   UNL     1       2.827   4.492  16.058  0.00  0.00    +0.000 HD
ENDROOT
BRANCH   4  13
ATOM     13  C   UNL     1       5.313   4.285  16.557  0.00  0.00    +0.000 A 
ATOM     14  C   UNL     1       6.441   4.964  17.003  0.00  0.00    +0.000 A 
ATOM     15  C   UNL     1       7.456   5.224  16.091  0.00  0.00    +0.000 A 
ATOM     16  C   UNL     1       7.308   4.799  14.775  0.00  0.00    +0.000 A 
ATOM     17  C   UNL     1       6.144   4.128  14.420  0.00  0.00    +0.000 A 
ATOM     18 BR   UNL     1       5.942   3.545  12.626  0.00  0.00    +0.000 Br
ATOM     19  N   UNL     1       5.137   3.858  15.280  0.00  0.00    +0.000 NA
ENDBRANCH   4  13
TORSDOF 1
ENDMDL
MODEL 3
REMARK VINA RESULT:      -7.5      1.313      1.354
REMARK  Name = 
REMARK  1 active torsions:
REMARK  status: ('A' for Active; 'I' for Inactive)
REMARK    1  A    between atoms: C_4  and  C_5
REMARK                            x       y       z     vdW  Elec       q    Type
REMARK                         _______ _______ _______ _____ _____    ______ ____
ROOT
ATOM      1  O   UNL     1       3.559   0.978  18.736  0.00  0.00    +0.000 OA
ATOM      2  C   UNL     1       3.656   2.170  18.471  0.00  0.00    +0.000 A 
ATOM      3  N   UNL     1       4.469   2.643  17.472  0.00  0.00    +0.000 N 
ATOM      4  C   UNL     1       4.590   3.975  17.152  0.00  0.00    +0.000 A 
ATOM      5  N   UNL     1       3.944   4.910  17.777  0.00  0.00    +0.000 NA
ATOM      6  C   UNL     1       3.088   4.534  18.824  0.00  0.00    +0.000 A 
ATOM      7  C   UNL     1       2.394   5.533  19.508  0.00  0.00    +0.000 A 
ATOM      8  C   UNL     1       1.528   5.208  20.555  0.00  0.00    +0.000 A 
ATOM      9  C   UNL     1       1.347   3.875  20.925  0.00  0.00    +0.000 A 
ATOM     10  C   UNL     1       2.035   2.864  20.252  0.00  0.00    +0.000 A 
ATOM     11  C   UNL     1       2.902   3.202  19.208  0.00  0.00    +0.000 A 
ATOM     12  H   UNL     1       5.006   1.965  16.941  0.00  0.00    +0.000 HD
ENDROOT
BRANCH   4  13
ATOM     13  C   UNL     1       5.519   4.285  16.030  0.00  0.00    +0.000 A 
ATOM     14  C   UNL     1       6.617   5.110  16.247  0.00  0.00    +0.000 A 
ATOM     15  C   UNL     1       7.464   5.371  15.178  0.00  0.00    +0.000 A 
ATOM     16  C   UNL     1       7.186   4.803  13.939  0.00  0.00    +0.000 A 
ATOM     17  C   UNL     1       6.064   3.992  13.817  0.00  0.00    +0.000 A 
ATOM     18 BR   UNL     1       5.685   3.216  12.129  0.00  0.00    +0.000 Br
ATOM     19  N   UNL     1       5.218   3.716  14.834  0.00  0.00    +0.000 NA
ENDBRANCH   4  13
TORSDOF 1
ENDMDL
MODEL 4
REMARK VINA RESULT:      -7.4      1.964      2.166
REMARK  Name = 
REMARK  1 active torsions:
REMARK  status: ('A' for Active; 'I' for Inactive)
REMARK    1  A    between atoms: C_4  and  C_5
REMARK                            x       y       z     vdW  Elec       q    Type
REMARK                         _______ _______ _______ _____ _____    ______ ____
ROOT
ATOM      1  O   UNL     1       5.184   1.470  20.787  0.00  0.00    +0.000 OA
ATOM      2  C   UNL     1       4.697   2.418  20.183  0.00  0.00    +0.000 A 
ATOM      3  N   UNL     1       5.400   3.147  19.259  0.00  0.00    +0.000 N 
ATOM      4  C   UNL     1       4.873   4.211  18.564  0.00  0.00    +0.000 A 
ATOM      5  N   UNL     1       3.655   4.625  18.729  0.00  0.00    +0.000 NA
ATOM      6  C   UNL     1       2.849   3.950  19.660  0.00  0.00    +0.000 A 
ATOM      7  C   UNL     1       1.539   4.391  19.850  0.00  0.00    +0.000 A 
ATOM      8  C   UNL     1       0.698   3.750  20.763  0.00  0.00    +0.000 A 
ATOM      9  C   UNL     1       1.163   2.655  21.493  0.00  0.00    +0.000 A 
ATOM     10  C   UNL     1       2.471   2.203  21.315  0.00  0.00    +0.000 A 
ATOM     11  C   UNL     1       3.305   2.855  20.401  0.00  0.00    +0.000 A 
ATOM     12  H   UNL     1       6.362   2.879  19.080  0.00  0.00    +0.000 HD
ENDROOT
BRANCH   4  13
ATOM     13  C   UNL     1       5.796   4.869  17.598  0.00  0.00    +0.000 A 
ATOM     14  C   UNL     1       6.044   4.278  16.364  0.00  0.00    +0.000 A 
ATOM     15  C   UNL     1       6.906   4.923  15.488  0.00  0.00    +0.000 A 
ATOM     16  C   UNL     1       7.486   6.129  15.872  0.00  0.00    +0.000 A 
ATOM     17  C   UNL     1       7.179   6.643  17.127  0.00  0.00    +0.000 A 
ATOM     18 BR   UNL     1       7.965   8.287  17.651  0.00  0.00    +0.000 Br
ATOM     19  N   UNL     1       6.345   6.042  18.005  0.00  0.00    +0.000 NA
ENDBRANCH   4  13
TORSDOF 1
ENDMDL
MODEL 5
REMARK VINA RESULT:      -7.3      1.900      2.180
REMARK  Name = 
REMARK  1 active torsions:
REMARK  status: ('A' for Active; 'I' for Inactive)
REMARK    1  A    between atoms: C_4  and  C_5
REMARK                            x       y       z     vdW  Elec       q    Type
REMARK                         _______ _______ _______ _____ _____    ______ ____
ROOT
ATOM      1  O   UNL     1       2.916   6.794  19.391  0.00  0.00    +0.000 OA
ATOM      2  C   UNL     1       3.117   5.755  18.775  0.00  0.00    +0.000 A 
ATOM      3  N   UNL     1       4.041   5.660  17.766  0.00  0.00    +0.000 N 
ATOM      4  C   UNL     1       4.289   4.503  17.064  0.00  0.00    +0.000 A 
ATOM      5  N   UNL     1       3.660   3.393  17.294  0.00  0.00    +0.000 NA
ATOM      6  C   UNL     1       2.687   3.383  18.305  0.00  0.00    +0.000 A 
ATOM      7  C   UNL     1       2.000   2.194  18.555  0.00  0.00    +0.000 A 
ATOM      8  C   UNL     1       1.024   2.134  19.554  0.00  0.00    +0.000 A 
ATOM      9  C   UNL     1       0.730   3.267  20.314  0.00  0.00    +0.000 A 
ATOM     10  C   UNL     1       1.407   4.463  20.074  0.00  0.00    +0.000 A 
ATOM     11  C   UNL     1       2.379   4.512  19.070  0.00  0.00    +0.000 A 
ATOM     12  H   UNL     1       4.570   6.493  17.531  0.00  0.00    +0.000 HD
ENDROOT
BRANCH   4  13
ATOM     13  C   UNL     1       5.337   4.603  16.010  0.00  0.00    +0.000 A 
ATOM     14  C   UNL     1       6.523   5.280  16.273  0.00  0.00    +0.000 A 
ATOM     15  C   UNL     1       7.478   5.348  15.268  0.00  0.00    +0.000 A 
ATOM     16  C   UNL     1       7.217   4.741  14.043  0.00  0.00    +0.000 A 
ATOM     17  C   UNL     1       6.002   4.087  13.872  0.00  0.00    +0.000 A 
ATOM     18 BR   UNL     1       5.646   3.257  12.204  0.00  0.00    +0.000 Br
ATOM     19  N   UNL     1       5.050   4.002  14.827  0.00  0.00    +0.000 NA
ENDBRANCH   4  13
TORSDOF 1
ENDMDL
MODEL 6
REMARK VINA RESULT:      -7.2      2.908      6.632
REMARK  Name = 
REMARK  1 active torsions:
REMARK  status: ('A' for Active; 'I' for Inactive)
REMARK    1  A    between atoms: C_4  and  C_5
REMARK                            x       y       z     vdW  Elec       q    Type
REMARK                         _______ _______ _______ _____ _____    ______ ____
ROOT
ATOM      1  O   UNL     1       7.599   6.416  16.470  0.00  0.00    +0.000 OA
ATOM      2  C   UNL     1       6.803   5.558  16.108  0.00  0.00    +0.000 A 
ATOM      3  N   UNL     1       5.852   5.030  16.944  0.00  0.00    +0.000 N 
ATOM      4  C   UNL     1       4.944   4.071  16.559  0.00  0.00    +0.000 A 
ATOM      5  N   UNL     1       4.913   3.572  15.362  0.00  0.00    +0.000 NA
ATOM      6  C   UNL     1       5.851   4.040  14.428  0.00  0.00    +0.000 A 
ATOM      7  C   UNL     1       5.829   3.505  13.139  0.00  0.00    +0.000 A 
ATOM      8  C   UNL     1       6.740   3.941  12.173  0.00  0.00    +0.000 A 
ATOM      9  C   UNL     1       7.681   4.921  12.491  0.00  0.00    +0.000 A 
ATOM     10  C   UNL     1       7.716   5.465  13.776  0.00  0.00    +0.000 A 
ATOM     11  C   UNL     1       6.801   5.019  14.735  0.00  0.00    +0.000 A 
ATOM     12  H   UNL     1       5.820   5.374  17.897  0.00  0.00    +0.000 HD
ENDROOT
BRANCH   4  13
ATOM     13  C   UNL     1       3.987   3.632  17.612  0.00  0.00    +0.000 A 
ATOM     14  C   UNL     1       3.655   2.287  17.730  0.00  0.00    +0.000 A 
ATOM     15  C   UNL     1       2.764   1.914  18.728  0.00  0.00    +0.000 A 
ATOM     16  C   UNL     1       2.239   2.893  19.567  0.00  0.00    +0.000 A 
ATOM     17  C   UNL     1       2.629   4.213  19.372  0.00  0.00    +0.000 A 
ATOM     18 BR   UNL     1       1.916   5.547  20.516  0.00  0.00    +0.000 Br
ATOM     19  N   UNL     1       3.493   4.611  18.412  0.00  0.00    +0.000 NA
ENDBRANCH   4  13
TORSDOF 1
ENDMDL
MODEL 7
REMARK VINA RESULT:      -7.1      4.619      6.662
REMARK  Name = 
REMARK  1 active torsions:
REMARK  status: ('A' for Active; 'I' for Inactive)
REMARK    1  A    between atoms: C_4  and  C_5
REMARK                            x       y       z     vdW  Elec       q    Type
REMARK                         _______ _______ _______ _____ _____    ______ ____
ROOT
ATOM      1  O   UNL     1       2.337   3.597  18.254  0.00  0.00    +0.000 OA
ATOM      2  C   UNL     1       2.813   4.697  18.004  0.00  0.00    +0.000 A 
ATOM      3  N   UNL     1       2.238   5.867  18.434  0.00  0.00    +0.000 N 
ATOM      4  C   UNL     1       2.756   7.114  18.171  0.00  0.00    +0.000 A 
ATOM      5  N   UNL     1       3.840   7.294  17.482  0.00  0.00    +0.000 NA
ATOM      6  C   UNL     1       4.505   6.160  16.989  0.00  0.00    +0.000 A 
ATOM      7  C   UNL     1       5.668   6.344  16.241  0.00  0.00    +0.000 A 
ATOM      8  C   UNL     1       6.367   5.246  15.731  0.00  0.00    +0.000 A 
ATOM      9  C   UNL     1       5.905   3.951  15.970  0.00  0.00    +0.000 A 
ATOM     10  C   UNL     1       4.742   3.751  16.715  0.00  0.00    +0.000 A 
ATOM     11  C   UNL     1       4.050   4.858  17.217  0.00  0.00    +0.000 A 
ATOM     12  H   UNL     1       1.385   5.800  18.978  0.00  0.00    +0.000 HD
ENDROOT
BRANCH   4  13
ATOM     13  C   UNL     1       1.988   8.260  18.732  0.00  0.00    +0.000 A 
ATOM     14  C   UNL     1       1.598   9.305  17.901  0.00  0.00    +0.000 A 
ATOM     15  C   UNL     1       0.878  10.354  18.458  0.00  0.00    +0.000 A 
ATOM     16  C   UNL     1       0.576  10.322  19.816  0.00  0.00    +0.000 A 
ATOM     17  C   UNL     1       1.009   9.235  20.568  0.00  0.00    +0.000 A 
ATOM     18 BR   UNL     1       0.596   9.189  22.418  0.00  0.00    +0.000 Br
ATOM     19  N   UNL     1       1.712   8.199  20.060  0.00  0.00    +0.000 NA
ENDBRANCH   4  13
TORSDOF 1
ENDMDL
MODEL 8
REMARK VINA RESULT:      -7.0      2.466      3.039
REMARK  Name = 
REMARK  1 active torsions:
REMARK  status: ('A' for Active; 'I' for Inactive)
REMARK    1  A    between atoms: C_4  and  C_5
REMARK                            x       y       z     vdW  Elec       q    Type
REMARK                         _______ _______ _______ _____ _____    ______ ____
ROOT
ATOM      1  O   UNL     1       0.760   4.136  17.231  0.00  0.00    +0.000 OA
ATOM      2  C   UNL     1       1.816   4.067  17.847  0.00  0.00    +0.000 A 
ATOM      3  N   UNL     1       3.013   4.469  17.311  0.00  0.00    +0.000 N 
ATOM      4  C   UNL     1       4.211   4.407  17.984  0.00  0.00    +0.000 A 
ATOM      5  N   UNL     1       4.315   3.953  19.194  0.00  0.00    +0.000 NA
ATOM      6  C   UNL     1       3.147   3.509  19.834  0.00  0.00    +0.000 A 
ATOM      7  C   UNL     1       3.249   3.012  21.134  0.00  0.00    +0.000 A 
ATOM      8  C   UNL     1       2.115   2.561  21.814  0.00  0.00    +0.000 A 
ATOM      9  C   UNL     1       0.865   2.607  21.196  0.00  0.00    +0.000 A 
ATOM     10  C   UNL     1       0.747   3.099  19.896  0.00  0.00    +0.000 A 
ATOM     11  C   UNL     1       1.889   3.545  19.224  0.00  0.00    +0.000 A 
ATOM     12  H   UNL     1       3.006   4.835  16.364  0.00  0.00    +0.000 HD
ENDROOT
BRANCH   4  13
ATOM     13  C   UNL     1       5.398   4.899  17.230  0.00  0.00    +0.000 A 
ATOM     14  C   UNL     1       5.844   4.206  16.110  0.00  0.00    +0.000 A 
ATOM     15  C   UNL     1       6.950   4.697  15.430  0.00  0.00    +0.000 A 
ATOM     16  C   UNL     1       7.568   5.856  15.890  0.00  0.00    +0.000 A 
ATOM     17  C   UNL     1       7.052   6.480  17.020  0.00  0.00    +0.000 A 
ATOM     18 BR   UNL     1       7.891   8.061  17.646  0.00  0.00    +0.000 Br
ATOM     19  N   UNL     1       5.978   6.031  17.706  0.00  0.00    +0.000 NA
ENDBRANCH   4  13
TORSDOF 1
ENDMDL
MODEL 9
REMARK VINA RESULT:      -7.0      2.960      6.409
REMARK  Name = 
REMARK  1 active torsions:
REMARK  status: ('A' for Active; 'I' for Inactive)
REMARK    1  A    between atoms: C_4  and  C_5
REMARK                            x       y       z     vdW  Elec       q    Type
REMARK                         _______ _______ _______ _____ _____    ______ ____
ROOT
ATOM      1  O   UNL     1       7.758   6.610  16.385  0.00  0.00    +0.000 OA
ATOM      2  C   UNL     1       6.792   5.891  16.163  0.00  0.00    +0.000 A 
ATOM      3  N   UNL     1       5.772   5.721  17.065  0.00  0.00    +0.000 N 
ATOM      4  C   UNL     1       4.674   4.924  16.836  0.00  0.00    +0.000 A 
ATOM      5  N   UNL     1       4.510   4.252  15.740  0.00  0.00    +0.000 NA
ATOM      6  C   UNL     1       5.501   4.350  14.751  0.00  0.00    +0.000 A 
ATOM      7  C   UNL     1       5.337   3.625  13.569  0.00  0.00    +0.000 A 
ATOM      8  C   UNL     1       6.295   3.693  12.554  0.00  0.00    +0.000 A 
ATOM      9  C   UNL     1       7.427   4.492  12.713  0.00  0.00    +0.000 A 
ATOM     10  C   UNL     1       7.607   5.222  13.889  0.00  0.00    +0.000 A 
ATOM     11  C   UNL     1       6.643   5.144  14.900  0.00  0.00    +0.000 A 
ATOM     12  H   UNL     1       5.836   6.218  17.947  0.00  0.00    +0.000 HD
ENDROOT
BRANCH   4  13
ATOM     13  C   UNL     1       3.673   4.877  17.937  0.00  0.00    +0.000 A 
ATOM     14  C   UNL     1       3.621   5.907  18.871  0.00  0.00    +0.000 A 
ATOM     15  C   UNL     1       2.671   5.832  19.880  0.00  0.00    +0.000 A 
ATOM     16  C   UNL     1       1.811   4.738  19.921  0.00  0.00    +0.000 A 
ATOM     17  C   UNL     1       1.938   3.757  18.945  0.00  0.00    +0.000 A 
ATOM     18 BR   UNL     1       0.766   2.267  18.998  0.00  0.00    +0.000 Br
ATOM     19  N   UNL     1       2.851   3.797  17.949  0.00  0.00    +0.000 NA
ENDBRANCH   4  13
TORSDOF 1
ENDMDL
