MODEL 1
REMARK VINA RESULT:      -7.8      0.000      0.000
REMARK  Name = 
REMARK  8 active torsions:
REMARK  status: ('A' for Active; 'I' for Inactive)
REMARK    1  A    between atoms: N_1  and  C_2
REMARK    2  A    between atoms: C_2  and  C_3
REMARK    3  A    between atoms: C_6  and  C_7
REMARK    4  A    between atoms: C_10  and  O_11
REMARK    5  A    between atoms: O_11  and  C_12
REMARK    6  A    between atoms: C_12  and  C_13
REMARK    7  A    between atoms: C_20  and  C_21
REMARK    8  A    between atoms: C_24  and  C_25
REMARK                            x       y       z     vdW  Elec       q    Type
REMARK                         _______ _______ _______ _____ _____    ______ ____
ROOT
ATOM      1  C   UNL     1      -0.235  12.054  19.091  0.00  0.00    +0.000 A 
ATOM      2  N   UNL     1      -1.277  12.922  19.033  0.00  0.00    +0.000 NA
ATOM      3  C   UNL     1      -2.466  12.399  18.694  0.00  0.00    +0.000 A 
ATOM      4  C   UNL     1      -2.662  11.057  18.388  0.00  0.00    +0.000 A 
ATOM      5  N   UNL     1      -1.646  10.169  18.490  0.00  0.00    +0.000 NA
ATOM      6  C   UNL     1      -0.427  10.663  18.878  0.00  0.00    +0.000 A 
ENDROOT
BRANCH   1  10
ATOM      7  C   UNL     1       3.446  14.176  19.822  0.00  0.00    +0.000 A 
ATOM      8  C   UNL     1       3.064  13.811  18.526  0.00  0.00    +0.000 A 
ATOM      9  C   UNL     1       1.882  13.116  18.303  0.00  0.00    +0.000 A 
ATOM     10  C   UNL     1       1.044  12.738  19.374  0.00  0.00    +0.000 A 
ATOM     11  C   UNL     1       1.480  13.034  20.672  0.00  0.00    +0.000 A 
ATOM     12  C   UNL     1       2.644  13.775  20.896  0.00  0.00    +0.000 A 
BRANCH   7  13
ATOM     13  C   UNL     1       4.715  14.960  20.055  0.00  0.00    +0.000 C 
BRANCH  13  14
ATOM     14  N   UNL     1       5.331  14.596  21.325  0.00  0.00    +0.000 NA
ATOM     15  H   UNL     1       6.341  14.553  21.201  0.00  0.00    +0.000 HD
ATOM     16  H   UNL     1       5.028  13.658  21.582  0.00  0.00    +0.000 HD
ENDBRANCH  13  14
ENDBRANCH   7  13
ENDBRANCH   1  10
BRANCH   6  17
ATOM     17  C   UNL     1       0.652   9.655  19.020  0.00  0.00    +0.000 A 
ATOM     18  C   UNL     1       0.908   9.026  20.244  0.00  0.00    +0.000 A 
ATOM     19  C   UNL     1       1.748   7.904  20.323  0.00  0.00    +0.000 A 
ATOM     20  C   UNL     1       2.365   7.371  19.181  0.00  0.00    +0.000 A 
ATOM     21  C   UNL     1       2.168   8.050  17.975  0.00  0.00    +0.000 A 
ATOM     22  C   UNL     1       1.394   9.209  17.916  0.00  0.00    +0.000 A 
BRANCH  20  23
ATOM     23  C   UNL     1       3.171   6.072  19.178  0.00  0.00    +0.000 C 
ATOM     24  C   UNL     1       3.098   5.238  17.884  0.00  0.00    +0.000 C 
ATOM     25  C   UNL     1       1.748   4.531  17.738  0.00  0.00    +0.000 C 
ATOM     26  N   UNL     1       1.440   3.687  18.894  0.00  0.00    +0.000 NA
ATOM     27  C   UNL     1       1.464   4.458  20.138  0.00  0.00    +0.000 C 
ATOM     28  C   UNL     1       2.818   5.134  20.352  0.00  0.00    +0.000 C 
ATOM     29  H   UNL     1       2.130   2.938  18.953  0.00  0.00    +0.000 HD
ENDBRANCH  20  23
ENDBRANCH   6  17
BRANCH   4  30
ATOM     30  O   UNL     1      -3.858  10.526  17.952  0.00  0.00    +0.000 OA
BRANCH  30  31
ATOM     31  C   UNL     1      -4.748  11.510  17.421  0.00  0.00    +0.000 C 
BRANCH  31  32
ATOM     32  C   UNL     1      -6.204  11.324  17.859  0.00  0.00    +0.000 C 
ATOM     33  C   UNL     1      -6.987  12.616  17.555  0.00  0.00    +0.000 C 
ATOM     34  C   UNL     1      -6.594  13.757  18.498  0.00  0.00    +0.000 C 
ATOM     35  N   UNL     1      -6.761  13.380  19.898  0.00  0.00    +0.000 NA
ATOM     36  C   UNL     1      -5.988  12.178  20.242  0.00  0.00    +0.000 C 
ATOM     37  C   UNL     1      -6.340  10.987  19.349  0.00  0.00    +0.000 C 
ATOM     38  H   UNL     1      -7.747  13.194  20.075  0.00  0.00    +0.000 HD
ENDBRANCH  31  32
ENDBRANCH  30  31
ENDBRANCH   4  30
TORSDOF 8
ENDMDL
MODEL 2
REMARK VINA RESULT:      -7.2      3.379      5.572
REMARK  Name = 
REMARK  8 active torsions:
REMARK  status: ('A' for Active; 'I' for Inactive)
REMARK    1  A    between atoms: N_1  and  C_2
REMARK    2  A    between atoms: C_2  and  C_3
REMARK    3  A    between atoms: C_6  and  C_7
REMARK    4  A    between atoms: C_10  and  O_11
REMARK    5  A    between atoms: O_11  and  C_12
REMARK    6  A    between atoms: C_12  and  C_13
REMARK    7  A    between atoms: C_20  and  C_21
REMARK    8  A    between atoms: C_24  and  C_25
REMARK                            x       y       z     vdW  Elec       q    Type
REMARK                         _______ _______ _______ _____ _____    ______ ____
ROOT
ATOM      1  C   UNL     1      -1.497  11.796  19.850  0.00  0.00    +0.000 A 
ATOM      2  N   UNL     1      -2.002  13.026  20.122  0.00  0.00    +0.000 NA
ATOM      3  C   UNL     1      -1.615  13.582  21.281  0.00  0.00    +0.000 A 
ATOM      4  C   UNL     1      -0.768  12.961  22.192  0.00  0.00    +0.000 A 
ATOM      5  N   UNL     1      -0.215  11.758  21.914  0.00  0.00    +0.000 NA
ATOM      6  C   UNL     1      -0.554  11.182  20.716  0.00  0.00    +0.000 A 
ENDROOT
BRANCH   1  10
ATOM      7  C   UNL     1      -2.979  10.132  16.159  0.00  0.00    +0.000 A 
ATOM      8  C   UNL     1      -2.280  11.345  16.179  0.00  0.00    +0.000 A 
ATOM      9  C   UNL     1      -1.818  11.878  17.376  0.00  0.00    +0.000 A 
ATOM     10  C   UNL     1      -2.057  11.228  18.606  0.00  0.00    +0.000 A 
ATOM     11  C   UNL     1      -2.831  10.060  18.580  0.00  0.00    +0.000 A 
ATOM     12  C   UNL     1      -3.255   9.497  17.374  0.00  0.00    +0.000 A 
BRANCH   7  13
ATOM     13  C   UNL     1      -3.449   9.541  14.852  0.00  0.00    +0.000 C 
BRANCH  13  14
ATOM     14  N   UNL     1      -2.959  10.317  13.719  0.00  0.00    +0.000 NA
ATOM     15  H   UNL     1      -1.956  10.454  13.821  0.00  0.00    +0.000 HD
ATOM     16  H   UNL     1      -3.386  11.241  13.743  0.00  0.00    +0.000 HD
ENDBRANCH  13  14
ENDBRANCH   7  13
ENDBRANCH   1  10
BRANCH   6  17
ATOM     17  C   UNL     1       0.102   9.884  20.426  0.00  0.00    +0.000 A 
ATOM     18  C   UNL     1       0.857   9.691  19.263  0.00  0.00    +0.000 A 
ATOM     19  C   UNL     1       1.678   8.563  19.108  0.00  0.00    +0.000 A 
ATOM     20  C   UNL     1       1.773   7.585  20.110  0.00  0.00    +0.000 A 
ATOM     21  C   UNL     1       0.958   7.743  21.234  0.00  0.00    +0.000 A 
ATOM     22  C   UNL     1       0.087   8.827  21.349  0.00  0.00    +0.000 A 
BRANCH  20  23
ATOM     23  C   UNL     1       2.753   6.412  20.064  0.00  0.00    +0.000 C 
ATOM     24  C   UNL     1       3.140   5.912  18.659  0.00  0.00    +0.000 C 
ATOM     25  C   UNL     1       2.001   5.131  17.999  0.00  0.00    +0.000 C 
ATOM     26  N   UNL     1       1.554   4.007  18.823  0.00  0.00    +0.000 NA
ATOM     27  C   UNL     1       1.143   4.452  20.155  0.00  0.00    +0.000 C 
ATOM     28  C   UNL     1       2.274   5.188  20.873  0.00  0.00    +0.000 C 
ATOM     29  H   UNL     1       2.319   3.338  18.917  0.00  0.00    +0.000 HD
ENDBRANCH  20  23
ENDBRANCH   6  17
BRANCH   4  30
ATOM     30  O   UNL     1      -0.435  13.484  23.425  0.00  0.00    +0.000 OA
BRANCH  30  31
ATOM     31  C   UNL     1      -1.189  14.650  23.761  0.00  0.00    +0.000 C 
BRANCH  31  32
ATOM     32  C   UNL     1      -2.015  14.501  25.043  0.00  0.00    +0.000 C 
ATOM     33  C   UNL     1      -3.363  13.841  24.695  0.00  0.00    +0.000 C 
ATOM     34  C   UNL     1      -4.283  14.792  23.924  0.00  0.00    +0.000 C 
ATOM     35  N   UNL     1      -4.500  16.038  24.652  0.00  0.00    +0.000 NA
ATOM     36  C   UNL     1      -3.239  16.726  24.959  0.00  0.00    +0.000 C 
ATOM     37  C   UNL     1      -2.272  15.839  25.746  0.00  0.00    +0.000 C 
ATOM     38  H   UNL     1      -4.979  15.831  25.527  0.00  0.00    +0.000 HD
ENDBRANCH  31  32
ENDBRANCH  30  31
ENDBRANCH   4  30
TORSDOF 8
ENDMDL
MODEL 3
REMARK VINA RESULT:      -7.1      3.994      8.487
REMARK  Name = 
REMARK  8 active torsions:
REMARK  status: ('A' for Active; 'I' for Inactive)
REMARK    1  A    between atoms: N_1  and  C_2
REMARK    2  A    between atoms: C_2  and  C_3
REMARK    3  A    between atoms: C_6  and  C_7
REMARK    4  A    between atoms: C_10  and  O_11
REMARK    5  A    between atoms: O_11  and  C_12
REMARK    6  A    between atoms: C_12  and  C_13
REMARK    7  A    between atoms: C_20  and  C_21
REMARK    8  A    between atoms: C_24  and  C_25
REMARK                            x       y       z     vdW  Elec       q    Type
REMARK                         _______ _______ _______ _____ _____    ______ ____
ROOT
ATOM      1  C   UNL     1       0.702  13.699  21.537  0.00  0.00    +0.000 A 
ATOM      2  N   UNL     1       1.485  14.546  22.251  0.00  0.00    +0.000 NA
ATOM      3  C   UNL     1       2.728  14.742  21.784  0.00  0.00    +0.000 A 
ATOM      4  C   UNL     1       3.235  14.116  20.650  0.00  0.00    +0.000 A 
ATOM      5  N   UNL     1       2.453  13.309  19.898  0.00  0.00    +0.000 NA
ATOM      6  C   UNL     1       1.162  13.123  20.324  0.00  0.00    +0.000 A 
ENDROOT
BRANCH   1  10
ATOM      7  C   UNL     1      -3.191  13.091  23.289  0.00  0.00    +0.000 A 
ATOM      8  C   UNL     1      -2.780  14.357  22.855  0.00  0.00    +0.000 A 
ATOM      9  C   UNL     1      -1.518  14.544  22.304  0.00  0.00    +0.000 A 
ATOM     10  C   UNL     1      -0.607  13.473  22.184  0.00  0.00    +0.000 A 
ATOM     11  C   UNL     1      -0.999  12.230  22.700  0.00  0.00    +0.000 A 
ATOM     12  C   UNL     1      -2.284  12.028  23.210  0.00  0.00    +0.000 A 
BRANCH   7  13
ATOM     13  C   UNL     1      -4.574  12.888  23.855  0.00  0.00    +0.000 C 
BRANCH  13  14
ATOM     14  N   UNL     1      -4.513  12.423  25.236  0.00  0.00    +0.000 NA
ATOM     15  H   UNL     1      -3.575  12.078  25.427  0.00  0.00    +0.000 HD
ATOM     16  H   UNL     1      -5.145  11.631  25.346  0.00  0.00    +0.000 HD
ENDBRANCH  13  14
ENDBRANCH   7  13
ENDBRANCH   1  10
BRANCH   6  17
ATOM     17  C   UNL     1       0.321  12.266  19.452  0.00  0.00    +0.000 A 
ATOM     18  C   UNL     1       0.385  10.870  19.520  0.00  0.00    +0.000 A 
ATOM     19  C   UNL     1      -0.576  10.066  18.887  0.00  0.00    +0.000 A 
ATOM     20  C   UNL     1      -1.637  10.630  18.161  0.00  0.00    +0.000 A 
ATOM     21  C   UNL     1      -1.651  12.022  18.032  0.00  0.00    +0.000 A 
ATOM     22  C   UNL     1      -0.651  12.811  18.599  0.00  0.00    +0.000 A 
BRANCH  20  23
ATOM     23  C   UNL     1      -2.791   9.819  17.573  0.00  0.00    +0.000 C 
ATOM     24  C   UNL     1      -2.761   9.615  16.045  0.00  0.00    +0.000 C 
ATOM     25  C   UNL     1      -3.129  10.896  15.293  0.00  0.00    +0.000 C 
ATOM     26  N   UNL     1      -4.434  11.419  15.700  0.00  0.00    +0.000 NA
ATOM     27  C   UNL     1      -4.485  11.659  17.143  0.00  0.00    +0.000 C 
ATOM     28  C   UNL     1      -4.180  10.388  17.934  0.00  0.00    +0.000 C 
ATOM     29  H   UNL     1      -5.157  10.743  15.450  0.00  0.00    +0.000 HD
ENDBRANCH  20  23
ENDBRANCH   6  17
BRANCH   4  30
ATOM     30  O   UNL     1       4.537  14.240  20.211  0.00  0.00    +0.000 OA
BRANCH  30  31
ATOM     31  C   UNL     1       5.006  15.590  20.222  0.00  0.00    +0.000 C 
BRANCH  31  32
ATOM     32  C   UNL     1       5.088  16.224  18.829  0.00  0.00    +0.000 C 
ATOM     33  C   UNL     1       5.187  15.105  17.775  0.00  0.00    +0.000 C 
ATOM     34  C   UNL     1       6.552  14.411  17.805  0.00  0.00    +0.000 C 
ATOM     35  N   UNL     1       7.644  15.364  17.639  0.00  0.00    +0.000 NA
ATOM     36  C   UNL     1       7.615  16.422  18.659  0.00  0.00    +0.000 C 
ATOM     37  C   UNL     1       6.283  17.173  18.676  0.00  0.00    +0.000 C 
ATOM     38  H   UNL     1       7.569  15.797  16.720  0.00  0.00    +0.000 HD
ENDBRANCH  31  32
ENDBRANCH  30  31
ENDBRANCH   4  30
TORSDOF 8
ENDMDL
MODEL 4
REMARK VINA RESULT:      -6.9      3.360      5.792
REMARK  Name = 
REMARK  8 active torsions:
REMARK  status: ('A' for Active; 'I' for Inactive)
REMARK    1  A    between atoms: N_1  and  C_2
REMARK    2  A    between atoms: C_2  and  C_3
REMARK    3  A    between atoms: C_6  and  C_7
REMARK    4  A    between atoms: C_10  and  O_11
REMARK    5  A    between atoms: O_11  and  C_12
REMARK    6  A    between atoms: C_12  and  C_13
REMARK    7  A    between atoms: C_20  and  C_21
REMARK    8  A    between atoms: C_24  and  C_25
REMARK                            x       y       z     vdW  Elec       q    Type
REMARK                         _______ _______ _______ _____ _____    ______ ____
ROOT
ATOM      1  C   UNL     1      -1.380  11.791  19.800  0.00  0.00    +0.000 A 
ATOM      2  N   UNL     1      -1.874  13.023  20.084  0.00  0.00    +0.000 NA
ATOM      3  C   UNL     1      -1.519  13.545  21.268  0.00  0.00    +0.000 A 
ATOM      4  C   UNL     1      -0.713  12.890  22.193  0.00  0.00    +0.000 A 
ATOM      5  N   UNL     1      -0.170  11.685  21.905  0.00  0.00    +0.000 NA
ATOM      6  C   UNL     1      -0.477  11.142  20.683  0.00  0.00    +0.000 A 
ENDROOT
BRANCH   1  10
ATOM      7  C   UNL     1      -3.064  10.255  16.140  0.00  0.00    +0.000 A 
ATOM      8  C   UNL     1      -3.224   9.576  17.354  0.00  0.00    +0.000 A 
ATOM      9  C   UNL     1      -2.666  10.074  18.526  0.00  0.00    +0.000 A 
ATOM     10  C   UNL     1      -1.905  11.262  18.524  0.00  0.00    +0.000 A 
ATOM     11  C   UNL     1      -1.681  11.886  17.290  0.00  0.00    +0.000 A 
ATOM     12  C   UNL     1      -2.280  11.414  16.119  0.00  0.00    +0.000 A 
BRANCH   7  13
ATOM     13  C   UNL     1      -3.700   9.728  14.878  0.00  0.00    +0.000 C 
BRANCH  13  14
ATOM     14  N   UNL     1      -3.039  10.262  13.693  0.00  0.00    +0.000 NA
ATOM     15  H   UNL     1      -2.830  11.247  13.847  0.00  0.00    +0.000 HD
ATOM     16  H   UNL     1      -3.685  10.219  12.907  0.00  0.00    +0.000 HD
ENDBRANCH  13  14
ENDBRANCH   7  13
ENDBRANCH   1  10
BRANCH   6  17
ATOM     17  C   UNL     1       0.169   9.841  20.384  0.00  0.00    +0.000 A 
ATOM     18  C   UNL     1       0.924   9.650  19.221  0.00  0.00    +0.000 A 
ATOM     19  C   UNL     1       1.736   8.516  19.059  0.00  0.00    +0.000 A 
ATOM     20  C   UNL     1       1.822   7.530  20.054  0.00  0.00    +0.000 A 
ATOM     21  C   UNL     1       1.006   7.687  21.178  0.00  0.00    +0.000 A 
ATOM     22  C   UNL     1       0.145   8.778  21.300  0.00  0.00    +0.000 A 
BRANCH  20  23
ATOM     23  C   UNL     1       2.792   6.350  20.001  0.00  0.00    +0.000 C 
ATOM     24  C   UNL     1       3.141   5.828  18.594  0.00  0.00    +0.000 C 
ATOM     25  C   UNL     1       1.982   5.046  17.972  0.00  0.00    +0.000 C 
ATOM     26  N   UNL     1       1.547   3.937  18.821  0.00  0.00    +0.000 NA
ATOM     27  C   UNL     1       1.170   4.403  20.156  0.00  0.00    +0.000 C 
ATOM     28  C   UNL     1       2.323   5.140  20.838  0.00  0.00    +0.000 C 
ATOM     29  H   UNL     1       2.308   3.264  18.906  0.00  0.00    +0.000 HD
ENDBRANCH  20  23
ENDBRANCH   6  17
BRANCH   4  30
ATOM     30  O   UNL     1      -0.414  13.378  23.448  0.00  0.00    +0.000 OA
BRANCH  30  31
ATOM     31  C   UNL     1      -1.496  14.101  24.040  0.00  0.00    +0.000 C 
BRANCH  31  32
ATOM     32  C   UNL     1      -1.064  15.395  24.737  0.00  0.00    +0.000 C 
ATOM     33  C   UNL     1      -2.295  16.043  25.397  0.00  0.00    +0.000 C 
ATOM     34  C   UNL     1      -3.254  16.636  24.360  0.00  0.00    +0.000 C 
ATOM     35  N   UNL     1      -2.581  17.594  23.490  0.00  0.00    +0.000 NA
ATOM     36  C   UNL     1      -1.427  17.000  22.801  0.00  0.00    +0.000 C 
ATOM     37  C   UNL     1      -0.414  16.400  23.777  0.00  0.00    +0.000 C 
ATOM     38  H   UNL     1      -2.254  18.378  24.053  0.00  0.00    +0.000 HD
ENDBRANCH  31  32
ENDBRANCH  30  31
ENDBRANCH   4  30
TORSDOF 8
ENDMDL
MODEL 5
REMARK VINA RESULT:      -6.9      2.858      8.122
REMARK  Name = 
REMARK  8 active torsions:
REMARK  status: ('A' for Active; 'I' for Inactive)
REMARK    1  A    between atoms: N_1  and  C_2
REMARK    2  A    between atoms: C_2  and  C_3
REMARK    3  A    between atoms: C_6  and  C_7
REMARK    4  A    between atoms: C_10  and  O_11
REMARK    5  A    between atoms: O_11  and  C_12
REMARK    6  A    between atoms: C_12  and  C_13
REMARK    7  A    between atoms: C_20  and  C_21
REMARK    8  A    between atoms: C_24  and  C_25
REMARK                            x       y       z     vdW  Elec       q    Type
REMARK                         _______ _______ _______ _____ _____    ______ ____
ROOT
ATOM      1  C   UNL     1       1.384  12.071  19.033  0.00  0.00    +0.000 A 
ATOM      2  N   UNL     1       2.284  11.582  18.143  0.00  0.00    +0.000 NA
ATOM      3  C   UNL     1       2.255  10.257  17.936  0.00  0.00    +0.000 A 
ATOM      4  C   UNL     1       1.385   9.391  18.590  0.00  0.00    +0.000 A 
ATOM      5  N   UNL     1       0.447   9.866  19.441  0.00  0.00    +0.000 NA
ATOM      6  C   UNL     1       0.421  11.223  19.641  0.00  0.00    +0.000 A 
ENDROOT
BRANCH   1  10
ATOM      7  C   UNL     1       1.752  16.302  19.776  0.00  0.00    +0.000 A 
ATOM      8  C   UNL     1       0.745  15.796  18.947  0.00  0.00    +0.000 A 
ATOM      9  C   UNL     1       0.643  14.431  18.703  0.00  0.00    +0.000 A 
ATOM     10  C   UNL     1       1.562  13.519  19.266  0.00  0.00    +0.000 A 
ATOM     11  C   UNL     1       2.615  14.047  20.024  0.00  0.00    +0.000 A 
ATOM     12  C   UNL     1       2.692  15.412  20.309  0.00  0.00    +0.000 A 
BRANCH   7  13
ATOM     13  C   UNL     1       1.837  17.781  20.063  0.00  0.00    +0.000 C 
BRANCH  13  14
ATOM     14  N   UNL     1       3.224  18.213  20.186  0.00  0.00    +0.000 NA
ATOM     15  H   UNL     1       3.256  19.068  20.738  0.00  0.00    +0.000 HD
ATOM     16  H   UNL     1       3.579  18.448  19.261  0.00  0.00    +0.000 HD
ENDBRANCH  13  14
ENDBRANCH   7  13
ENDBRANCH   1  10
BRANCH   6  17
ATOM     17  C   UNL     1      -0.647  11.713  20.547  0.00  0.00    +0.000 A 
ATOM     18  C   UNL     1      -0.443  11.816  21.928  0.00  0.00    +0.000 A 
ATOM     19  C   UNL     1      -1.349  12.508  22.747  0.00  0.00    +0.000 A 
ATOM     20  C   UNL     1      -2.494  13.120  22.216  0.00  0.00    +0.000 A 
ATOM     21  C   UNL     1      -2.733  12.947  20.850  0.00  0.00    +0.000 A 
ATOM     22  C   UNL     1      -1.869  12.195  20.054  0.00  0.00    +0.000 A 
BRANCH  20  23
ATOM     23  C   UNL     1      -3.440  14.006  23.027  0.00  0.00    +0.000 C 
ATOM     24  C   UNL     1      -3.597  13.637  24.516  0.00  0.00    +0.000 C 
ATOM     25  C   UNL     1      -4.440  12.374  24.703  0.00  0.00    +0.000 C 
ATOM     26  N   UNL     1      -5.757  12.491  24.077  0.00  0.00    +0.000 NA
ATOM     27  C   UNL     1      -5.644  12.805  22.652  0.00  0.00    +0.000 C 
ATOM     28  C   UNL     1      -4.857  14.095  22.422  0.00  0.00    +0.000 C 
ATOM     29  H   UNL     1      -6.281  13.234  24.540  0.00  0.00    +0.000 HD
ENDBRANCH  20  23
ENDBRANCH   6  17
BRANCH   4  30
ATOM     30  O   UNL     1       1.404   8.019  18.453  0.00  0.00    +0.000 OA
BRANCH  30  31
ATOM     31  C   UNL     1       2.678   7.443  18.752  0.00  0.00    +0.000 C 
BRANCH  31  32
ATOM     32  C   UNL     1       3.085   6.316  17.797  0.00  0.00    +0.000 C 
ATOM     33  C   UNL     1       2.220   5.076  18.090  0.00  0.00    +0.000 C 
ATOM     34  C   UNL     1       2.601   4.415  19.419  0.00  0.00    +0.000 C 
ATOM     35  N   UNL     1       4.018   4.069  19.460  0.00  0.00    +0.000 NA
ATOM     36  C   UNL     1       4.880   5.238  19.235  0.00  0.00    +0.000 C 
ATOM     37  C   UNL     1       4.567   5.941  17.913  0.00  0.00    +0.000 C 
ATOM     38  H   UNL     1       4.211   3.378  18.736  0.00  0.00    +0.000 HD
ENDBRANCH  31  32
ENDBRANCH  30  31
ENDBRANCH   4  30
TORSDOF 8
ENDMDL
MODEL 6
REMARK VINA RESULT:      -6.9      3.635      5.879
REMARK  Name = 
REMARK  8 active torsions:
REMARK  status: ('A' for Active; 'I' for Inactive)
REMARK    1  A    between atoms: N_1  and  C_2
REMARK    2  A    between atoms: C_2  and  C_3
REMARK    3  A    between atoms: C_6  and  C_7
REMARK    4  A    between atoms: C_10  and  O_11
REMARK    5  A    between atoms: O_11  and  C_12
REMARK    6  A    between atoms: C_12  and  C_13
REMARK    7  A    between atoms: C_20  and  C_21
REMARK    8  A    between atoms: C_24  and  C_25
REMARK                            x       y       z     vdW  Elec       q    Type
REMARK                         _______ _______ _______ _____ _____    ______ ____
ROOT
ATOM      1  C   UNL     1      -1.510  11.841  19.929  0.00  0.00    +0.000 A 
ATOM      2  N   UNL     1      -2.011  13.071  20.207  0.00  0.00    +0.000 NA
ATOM      3  C   UNL     1      -1.621  13.622  21.367  0.00  0.00    +0.000 A 
ATOM      4  C   UNL     1      -0.773  12.996  22.275  0.00  0.00    +0.000 A 
ATOM      5  N   UNL     1      -0.224  11.793  21.991  0.00  0.00    +0.000 NA
ATOM      6  C   UNL     1      -0.567  11.222  20.792  0.00  0.00    +0.000 A 
ENDROOT
BRANCH   1  10
ATOM      7  C   UNL     1      -3.002  10.194  16.235  0.00  0.00    +0.000 A 
ATOM      8  C   UNL     1      -2.299  11.404  16.258  0.00  0.00    +0.000 A 
ATOM      9  C   UNL     1      -1.834  11.933  17.457  0.00  0.00    +0.000 A 
ATOM     10  C   UNL     1      -2.073  11.279  18.684  0.00  0.00    +0.000 A 
ATOM     11  C   UNL     1      -2.851  10.114  18.656  0.00  0.00    +0.000 A 
ATOM     12  C   UNL     1      -3.279   9.556  17.449  0.00  0.00    +0.000 A 
BRANCH   7  13
ATOM     13  C   UNL     1      -3.476   9.609  14.927  0.00  0.00    +0.000 C 
BRANCH  13  14
ATOM     14  N   UNL     1      -2.848  10.278  13.794  0.00  0.00    +0.000 NA
ATOM     15  H   UNL     1      -2.878  11.284  13.947  0.00  0.00    +0.000 HD
ATOM     16  H   UNL     1      -3.397  10.093  12.957  0.00  0.00    +0.000 HD
ENDBRANCH  13  14
ENDBRANCH   7  13
ENDBRANCH   1  10
BRANCH   6  17
ATOM     17  C   UNL     1       0.086   9.923  20.495  0.00  0.00    +0.000 A 
ATOM     18  C   UNL     1       0.891   9.752  19.363  0.00  0.00    +0.000 A 
ATOM     19  C   UNL     1       1.705   8.618  19.214  0.00  0.00    +0.000 A 
ATOM     20  C   UNL     1       1.742   7.611  20.191  0.00  0.00    +0.000 A 
ATOM     21  C   UNL     1       0.877   7.750  21.281  0.00  0.00    +0.000 A 
ATOM     22  C   UNL     1       0.016   8.842  21.387  0.00  0.00    +0.000 A 
BRANCH  20  23
ATOM     23  C   UNL     1       2.708   6.427  20.158  0.00  0.00    +0.000 C 
ATOM     24  C   UNL     1       3.184   5.986  18.760  0.00  0.00    +0.000 C 
ATOM     25  C   UNL     1       2.084   5.253  17.989  0.00  0.00    +0.000 C 
ATOM     26  N   UNL     1       1.568   4.100  18.727  0.00  0.00    +0.000 NA
ATOM     27  C   UNL     1       1.072   4.490  20.047  0.00  0.00    +0.000 C 
ATOM     28  C   UNL     1       2.159   5.175  20.874  0.00  0.00    +0.000 C 
ATOM     29  H   UNL     1       2.316   3.416  18.841  0.00  0.00    +0.000 HD
ENDBRANCH  20  23
ENDBRANCH   6  17
BRANCH   4  30
ATOM     30  O   UNL     1      -0.437  13.513  23.508  0.00  0.00    +0.000 OA
BRANCH  30  31
ATOM     31  C   UNL     1      -0.785  14.892  23.652  0.00  0.00    +0.000 C 
BRANCH  31  32
ATOM     32  C   UNL     1      -2.025  15.126  24.522  0.00  0.00    +0.000 C 
ATOM     33  C   UNL     1      -2.782  16.359  23.992  0.00  0.00    +0.000 C 
ATOM     34  C   UNL     1      -2.030  17.661  24.287  0.00  0.00    +0.000 C 
ATOM     35  N   UNL     1      -1.750  17.809  25.712  0.00  0.00    +0.000 NA
ATOM     36  C   UNL     1      -0.984  16.675  26.246  0.00  0.00    +0.000 C 
ATOM     37  C   UNL     1      -1.684  15.337  26.002  0.00  0.00    +0.000 C 
ATOM     38  H   UNL     1      -2.633  17.872  26.217  0.00  0.00    +0.000 HD
ENDBRANCH  31  32
ENDBRANCH  30  31
ENDBRANCH   4  30
TORSDOF 8
ENDMDL
MODEL 7
REMARK VINA RESULT:      -6.8      2.965      8.017
REMARK  Name = 
REMARK  8 active torsions:
REMARK  status: ('A' for Active; 'I' for Inactive)
REMARK    1  A    between atoms: N_1  and  C_2
REMARK    2  A    between atoms: C_2  and  C_3
REMARK    3  A    between atoms: C_6  and  C_7
REMARK    4  A    between atoms: C_10  and  O_11
REMARK    5  A    between atoms: O_11  and  C_12
REMARK    6  A    between atoms: C_12  and  C_13
REMARK    7  A    between atoms: C_20  and  C_21
REMARK    8  A    between atoms: C_24  and  C_25
REMARK                            x       y       z     vdW  Elec       q    Type
REMARK                         _______ _______ _______ _____ _____    ______ ____
ROOT
ATOM      1  C   UNL     1       1.241  11.761  18.950  0.00  0.00    +0.000 A 
ATOM      2  N   UNL     1       2.123  11.191  18.090  0.00  0.00    +0.000 NA
ATOM      3  C   UNL     1       2.260   9.859  18.177  0.00  0.00    +0.000 A 
ATOM      4  C   UNL     1       1.576   9.070  19.095  0.00  0.00    +0.000 A 
ATOM      5  N   UNL     1       0.656   9.613  19.924  0.00  0.00    +0.000 NA
ATOM      6  C   UNL     1       0.459  10.968  19.830  0.00  0.00    +0.000 A 
ENDROOT
BRANCH   1  10
ATOM      7  C   UNL     1       1.113  16.067  18.762  0.00  0.00    +0.000 A 
ATOM      8  C   UNL     1      -0.031  15.296  18.523  0.00  0.00    +0.000 A 
ATOM      9  C   UNL     1       0.025  13.908  18.573  0.00  0.00    +0.000 A 
ATOM     10  C   UNL     1       1.235  13.235  18.844  0.00  0.00    +0.000 A 
ATOM     11  C   UNL     1       2.389  14.015  18.997  0.00  0.00    +0.000 A 
ATOM     12  C   UNL     1       2.327  15.411  18.994  0.00  0.00    +0.000 A 
BRANCH   7  13
ATOM     13  C   UNL     1       1.039  17.574  18.739  0.00  0.00    +0.000 C 
BRANCH  13  14
ATOM     14  N   UNL     1       1.691  18.114  17.552  0.00  0.00    +0.000 NA
ATOM     15  H   UNL     1       2.360  18.826  17.838  0.00  0.00    +0.000 HD
ATOM     16  H   UNL     1       0.993  18.581  16.976  0.00  0.00    +0.000 HD
ENDBRANCH  13  14
ENDBRANCH   7  13
ENDBRANCH   1  10
BRANCH   6  17
ATOM     17  C   UNL     1      -0.587  11.523  20.724  0.00  0.00    +0.000 A 
ATOM     18  C   UNL     1      -0.316  11.828  22.062  0.00  0.00    +0.000 A 
ATOM     19  C   UNL     1      -1.218  12.580  22.833  0.00  0.00    +0.000 A 
ATOM     20  C   UNL     1      -2.424  13.052  22.294  0.00  0.00    +0.000 A 
ATOM     21  C   UNL     1      -2.724  12.677  20.981  0.00  0.00    +0.000 A 
ATOM     22  C   UNL     1      -1.860  11.867  20.244  0.00  0.00    +0.000 A 
BRANCH  20  23
ATOM     23  C   UNL     1      -3.377  13.991  23.033  0.00  0.00    +0.000 C 
ATOM     24  C   UNL     1      -3.591  13.693  24.529  0.00  0.00    +0.000 C 
ATOM     25  C   UNL     1      -4.466  12.456  24.744  0.00  0.00    +0.000 C 
ATOM     26  N   UNL     1      -5.760  12.572  24.069  0.00  0.00    +0.000 NA
ATOM     27  C   UNL     1      -5.593  12.819  22.636  0.00  0.00    +0.000 C 
ATOM     28  C   UNL     1      -4.772  14.081  22.377  0.00  0.00    +0.000 C 
ATOM     29  H   UNL     1      -6.282  13.345  24.481  0.00  0.00    +0.000 HD
ENDBRANCH  20  23
ENDBRANCH   6  17
BRANCH   4  30
ATOM     30  O   UNL     1       1.774   7.714  19.254  0.00  0.00    +0.000 OA
BRANCH  30  31
ATOM     31  C   UNL     1       2.538   7.131  18.196  0.00  0.00    +0.000 C 
BRANCH  31  32
ATOM     32  C   UNL     1       3.348   5.904  18.625  0.00  0.00    +0.000 C 
ATOM     33  C   UNL     1       3.092   4.760  17.625  0.00  0.00    +0.000 C 
ATOM     34  C   UNL     1       1.681   4.181  17.770  0.00  0.00    +0.000 C 
ATOM     35  N   UNL     1       1.421   3.732  19.133  0.00  0.00    +0.000 NA
ATOM     36  C   UNL     1       1.606   4.809  20.115  0.00  0.00    +0.000 C 
ATOM     37  C   UNL     1       3.003   5.427  20.041  0.00  0.00    +0.000 C 
ATOM     38  H   UNL     1       2.062   2.973  19.360  0.00  0.00    +0.000 HD
ENDBRANCH  31  32
ENDBRANCH  30  31
ENDBRANCH   4  30
TORSDOF 8
ENDMDL
MODEL 8
REMARK VINA RESULT:      -6.8      2.870      8.480
REMARK  Name = 
REMARK  8 active torsions:
REMARK  status: ('A' for Active; 'I' for Inactive)
REMARK    1  A    between atoms: N_1  and  C_2
REMARK    2  A    between atoms: C_2  and  C_3
REMARK    3  A    between atoms: C_6  and  C_7
REMARK    4  A    between atoms: C_10  and  O_11
REMARK    5  A    between atoms: O_11  and  C_12
REMARK    6  A    between atoms: C_12  and  C_13
REMARK    7  A    between atoms: C_20  and  C_21
REMARK    8  A    between atoms: C_24  and  C_25
REMARK                            x       y       z     vdW  Elec       q    Type
REMARK                         _______ _______ _______ _____ _____    ______ ____
ROOT
ATOM      1  C   UNL     1      -0.227  10.854  21.603  0.00  0.00    +0.000 A 
ATOM      2  N   UNL     1       0.866  10.418  22.278  0.00  0.00    +0.000 NA
ATOM      3  C   UNL     1       1.584   9.453  21.684  0.00  0.00    +0.000 A 
ATOM      4  C   UNL     1       1.253   8.885  20.459  0.00  0.00    +0.000 A 
ATOM      5  N   UNL     1       0.197   9.343  19.749  0.00  0.00    +0.000 NA
ATOM      6  C   UNL     1      -0.533  10.361  20.307  0.00  0.00    +0.000 A 
ENDROOT
BRANCH   1  10
ATOM      7  C   UNL     1      -2.510  13.825  23.736  0.00  0.00    +0.000 A 
ATOM      8  C   UNL     1      -1.305  14.153  23.104  0.00  0.00    +0.000 A 
ATOM      9  C   UNL     1      -0.570  13.184  22.430  0.00  0.00    +0.000 A 
ATOM     10  C   UNL     1      -1.004  11.842  22.381  0.00  0.00    +0.000 A 
ATOM     11  C   UNL     1      -2.167  11.511  23.089  0.00  0.00    +0.000 A 
ATOM     12  C   UNL     1      -2.932  12.491  23.726  0.00  0.00    +0.000 A 
BRANCH   7  13
ATOM     13  C   UNL     1      -3.320  14.888  24.437  0.00  0.00    +0.000 C 
BRANCH  13  14
ATOM     14  N   UNL     1      -4.739  14.553  24.437  0.00  0.00    +0.000 NA
ATOM     15  H   UNL     1      -4.843  13.555  24.609  0.00  0.00    +0.000 HD
ATOM     16  H   UNL     1      -5.119  14.731  23.509  0.00  0.00    +0.000 HD
ENDBRANCH  13  14
ENDBRANCH   7  13
ENDBRANCH   1  10
BRANCH   6  17
ATOM     17  C   UNL     1      -1.658  10.866  19.482  0.00  0.00    +0.000 A 
ATOM     18  C   UNL     1      -2.186  10.111  18.428  0.00  0.00    +0.000 A 
ATOM     19  C   UNL     1      -3.398  10.468  17.815  0.00  0.00    +0.000 A 
ATOM     20  C   UNL     1      -4.124  11.594  18.232  0.00  0.00    +0.000 A 
ATOM     21  C   UNL     1      -3.553  12.387  19.231  0.00  0.00    +0.000 A 
ATOM     22  C   UNL     1      -2.312  12.069  19.785  0.00  0.00    +0.000 A 
BRANCH  20  23
ATOM     23  C   UNL     1      -5.514  11.953  17.705  0.00  0.00    +0.000 C 
ATOM     24  C   UNL     1      -6.033  13.355  18.079  0.00  0.00    +0.000 C 
ATOM     25  C   UNL     1      -6.448  13.436  19.550  0.00  0.00    +0.000 C 
ATOM     26  N   UNL     1      -7.448  12.425  19.897  0.00  0.00    +0.000 NA
ATOM     27  C   UNL     1      -6.971  11.076  19.589  0.00  0.00    +0.000 C 
ATOM     28  C   UNL     1      -6.601  10.935  18.114  0.00  0.00    +0.000 C 
ATOM     29  H   UNL     1      -8.301  12.605  19.368  0.00  0.00    +0.000 HD
ENDBRANCH  20  23
ENDBRANCH   6  17
BRANCH   4  30
ATOM     30  O   UNL     1       1.932   7.833  19.881  0.00  0.00    +0.000 OA
BRANCH  30  31
ATOM     31  C   UNL     1       1.563   6.562  20.423  0.00  0.00    +0.000 C 
BRANCH  31  32
ATOM     32  C   UNL     1       2.612   5.468  20.197  0.00  0.00    +0.000 C 
ATOM     33  C   UNL     1       2.794   5.256  18.682  0.00  0.00    +0.000 C 
ATOM     34  C   UNL     1       1.582   4.563  18.052  0.00  0.00    +0.000 C 
ATOM     35  N   UNL     1       1.285   3.295  18.711  0.00  0.00    +0.000 NA
ATOM     36  C   UNL     1       1.054   3.462  20.153  0.00  0.00    +0.000 C 
ATOM     37  C   UNL     1       2.234   4.136  20.855  0.00  0.00    +0.000 C 
ATOM     38  H   UNL     1       2.073   2.662  18.580  0.00  0.00    +0.000 HD
ENDBRANCH  31  32
ENDBRANCH  30  31
ENDBRANCH   4  30
TORSDOF 8
ENDMDL
MODEL 9
REMARK VINA RESULT:      -6.8      3.283      8.834
REMARK  Name = 
REMARK  8 active torsions:
REMARK  status: ('A' for Active; 'I' for Inactive)
REMARK    1  A    between atoms: N_1  and  C_2
REMARK    2  A    between atoms: C_2  and  C_3
REMARK    3  A    between atoms: C_6  and  C_7
REMARK    4  A    between atoms: C_10  and  O_11
REMARK    5  A    between atoms: O_11  and  C_12
REMARK    6  A    between atoms: C_12  and  C_13
REMARK    7  A    between atoms: C_20  and  C_21
REMARK    8  A    between atoms: C_24  and  C_25
REMARK                            x       y       z     vdW  Elec       q    Type
REMARK                         _______ _______ _______ _____ _____    ______ ____
ROOT
ATOM      1  C   UNL     1      -0.447  10.960  21.548  0.00  0.00    +0.000 A 
ATOM      2  N   UNL     1      -0.549   9.772  22.196  0.00  0.00    +0.000 NA
ATOM      3  C   UNL     1       0.217   8.774  21.729  0.00  0.00    +0.000 A 
ATOM      4  C   UNL     1       1.064   8.897  20.632  0.00  0.00    +0.000 A 
ATOM      5  N   UNL     1       1.216  10.086  20.007  0.00  0.00    +0.000 NA
ATOM      6  C   UNL     1       0.481  11.139  20.488  0.00  0.00    +0.000 A 
ENDROOT
BRANCH   1  10
ATOM      7  C   UNL     1      -3.328  13.763  23.107  0.00  0.00    +0.000 A 
ATOM      8  C   UNL     1      -3.623  12.961  21.998  0.00  0.00    +0.000 A 
ATOM      9  C   UNL     1      -2.682  12.070  21.496  0.00  0.00    +0.000 A 
ATOM     10  C   UNL     1      -1.398  11.962  22.072  0.00  0.00    +0.000 A 
ATOM     11  C   UNL     1      -1.087  12.831  23.127  0.00  0.00    +0.000 A 
ATOM     12  C   UNL     1      -2.047  13.693  23.664  0.00  0.00    +0.000 A 
BRANCH   7  13
ATOM     13  C   UNL     1      -4.366  14.705  23.668  0.00  0.00    +0.000 C 
BRANCH  13  14
ATOM     14  N   UNL     1      -3.992  15.164  25.000  0.00  0.00    +0.000 NA
ATOM     15  H   UNL     1      -4.682  15.840  25.322  0.00  0.00    +0.000 HD
ATOM     16  H   UNL     1      -3.103  15.659  24.940  0.00  0.00    +0.000 HD
ENDBRANCH  13  14
ENDBRANCH   7  13
ENDBRANCH   1  10
BRANCH   6  17
ATOM     17  C   UNL     1       0.705  12.437  19.806  0.00  0.00    +0.000 A 
ATOM     18  C   UNL     1      -0.164  12.898  18.810  0.00  0.00    +0.000 A 
ATOM     19  C   UNL     1      -0.102  14.222  18.347  0.00  0.00    +0.000 A 
ATOM     20  C   UNL     1       0.834  15.133  18.860  0.00  0.00    +0.000 A 
ATOM     21  C   UNL     1       1.750  14.645  19.797  0.00  0.00    +0.000 A 
ATOM     22  C   UNL     1       1.731  13.309  20.199  0.00  0.00    +0.000 A 
BRANCH  20  23
ATOM     23  C   UNL     1       0.860  16.619  18.503  0.00  0.00    +0.000 C 
ATOM     24  C   UNL     1       1.398  17.565  19.595  0.00  0.00    +0.000 C 
ATOM     25  C   UNL     1       0.397  17.743  20.738  0.00  0.00    +0.000 C 
ATOM     26  N   UNL     1      -0.903  18.218  20.263  0.00  0.00    +0.000 NA
ATOM     27  C   UNL     1      -1.461  17.322  19.251  0.00  0.00    +0.000 C 
ATOM     28  C   UNL     1      -0.516  17.162  18.061  0.00  0.00    +0.000 C 
ATOM     29  H   UNL     1      -0.790  19.148  19.859  0.00  0.00    +0.000 HD
ENDBRANCH  20  23
ENDBRANCH   6  17
BRANCH   4  30
ATOM     30  O   UNL     1       1.787   7.856  20.088  0.00  0.00    +0.000 OA
BRANCH  30  31
ATOM     31  C   UNL     1       1.417   6.580  20.616  0.00  0.00    +0.000 C 
BRANCH  31  32
ATOM     32  C   UNL     1       2.483   5.497  20.414  0.00  0.00    +0.000 C 
ATOM     33  C   UNL     1       2.849   5.429  18.919  0.00  0.00    +0.000 C 
ATOM     34  C   UNL     1       1.721   4.817  18.082  0.00  0.00    +0.000 C 
ATOM     35  N   UNL     1       1.342   3.496  18.574  0.00  0.00    +0.000 NA
ATOM     36  C   UNL     1       0.937   3.528  19.986  0.00  0.00    +0.000 C 
ATOM     37  C   UNL     1       2.024   4.113  20.888  0.00  0.00    +0.000 C 
ATOM     38  H   UNL     1       2.138   2.867  18.478  0.00  0.00    +0.000 HD
ENDBRANCH  31  32
ENDBRANCH  30  31
ENDBRANCH   4  30
TORSDOF 8
ENDMDL
