MODEL 1
REMARK VINA RESULT:      -5.5      0.000      0.000
REMARK  Name = 
REMARK  1 active torsions:
REMARK  status: ('A' for Active; 'I' for Inactive)
REMARK    1  A    between atoms: S_1  and  C_2
REMARK                            x       y       z     vdW  Elec       q    Type
REMARK                         _______ _______ _______ _____ _____    ______ ____
ROOT
ATOM      1  C   UNL     1       6.399   4.306  16.097  0.00  0.00    +0.000 A 
ATOM      2  N   UNL     1       7.609   4.579  16.646  0.00  0.00    +0.000 NA
ATOM      3  C   UNL     1       7.668   4.747  17.984  0.00  0.00    +0.000 A 
ATOM      4  N   UNL     1       6.660   4.679  18.877  0.00  0.00    +0.000 NA
ATOM      5  C   UNL     1       5.497   4.407  18.270  0.00  0.00    +0.000 A 
ATOM      6  N   UNL     1       4.276   4.266  18.863  0.00  0.00    +0.000 N 
ATOM      7  C   UNL     1       3.390   3.996  17.870  0.00  0.00    +0.000 A 
ATOM      8 CL   UNL     1       1.760   3.758  18.265  0.00  0.00    +0.000 Cl
ATOM      9  N   UNL     1       3.934   3.950  16.679  0.00  0.00    +0.000 NA
ATOM     10  C   UNL     1       5.270   4.208  16.913  0.00  0.00    +0.000 A 
ATOM     11  H   UNL     1       4.074   4.348  19.849  0.00  0.00    +0.000 HD
ENDROOT
BRANCH   1  12
ATOM     12  S   UNL     1       6.270   4.080  14.358  0.00  0.00    +0.000 S 
ATOM     13  H   UNL     1       5.048   4.616  14.259  0.00  0.00    +0.000 HD
ENDBRANCH   1  12
TORSDOF 1
ENDMDL
MODEL 2
REMARK VINA RESULT:      -5.4      2.832      3.525
REMARK  Name = 
REMARK  1 active torsions:
REMARK  status: ('A' for Active; 'I' for Inactive)
REMARK    1  A    between atoms: S_1  and  C_2
REMARK                            x       y       z     vdW  Elec       q    Type
REMARK                         _______ _______ _______ _____ _____    ______ ____
ROOT
ATOM      1  C   UNL     1       5.575   4.396  18.648  0.00  0.00    +0.000 A 
ATOM      2  N   UNL     1       6.305   5.091  19.556  0.00  0.00    +0.000 NA
ATOM      3  C   UNL     1       7.392   5.756  19.111  0.00  0.00    +0.000 A 
ATOM      4  N   UNL     1       7.867   5.826  17.851  0.00  0.00    +0.000 NA
ATOM      5  C   UNL     1       7.102   5.120  17.008  0.00  0.00    +0.000 A 
ATOM      6  N   UNL     1       7.285   4.971  15.664  0.00  0.00    +0.000 N 
ATOM      7  C   UNL     1       6.276   4.178  15.220  0.00  0.00    +0.000 A 
ATOM      8 CL   UNL     1       6.201   3.790  13.573  0.00  0.00    +0.000 Cl
ATOM      9  N   UNL     1       5.452   3.799  16.165  0.00  0.00    +0.000 NA
ATOM     10  C   UNL     1       5.960   4.387  17.306  0.00  0.00    +0.000 A 
ATOM     11  H   UNL     1       8.027   5.373  15.111  0.00  0.00    +0.000 HD
ENDROOT
BRANCH   1  12
ATOM     12  S   UNL     1       4.150   3.513  19.178  0.00  0.00    +0.000 S 
ATOM     13  H   UNL     1       3.274   4.359  18.624  0.00  0.00    +0.000 HD
ENDBRANCH   1  12
TORSDOF 1
ENDMDL
MODEL 3
REMARK VINA RESULT:      -5.1      2.113      2.672
REMARK  Name = 
REMARK  1 active torsions:
REMARK  status: ('A' for Active; 'I' for Inactive)
REMARK    1  A    between atoms: S_1  and  C_2
REMARK                            x       y       z     vdW  Elec       q    Type
REMARK                         _______ _______ _______ _____ _____    ______ ____
ROOT
ATOM      1  C   UNL     1       6.971   5.967  16.791  0.00  0.00    +0.000 A 
ATOM      2  N   UNL     1       7.372   5.762  15.511  0.00  0.00    +0.000 NA
ATOM      3  C   UNL     1       6.887   4.680  14.867  0.00  0.00    +0.000 A 
ATOM      4  N   UNL     1       6.033   3.746  15.333  0.00  0.00    +0.000 NA
ATOM      5  C   UNL     1       5.679   4.007  16.598  0.00  0.00    +0.000 A 
ATOM      6  N   UNL     1       4.833   3.276  17.380  0.00  0.00    +0.000 N 
ATOM      7  C   UNL     1       4.766   3.909  18.579  0.00  0.00    +0.000 A 
ATOM      8 CL   UNL     1       3.786   3.259  19.799  0.00  0.00    +0.000 Cl
ATOM      9  N   UNL     1       5.499   4.993  18.642  0.00  0.00    +0.000 NA
ATOM     10  C   UNL     1       6.086   5.071  17.394  0.00  0.00    +0.000 A 
ATOM     11  H   UNL     1       4.351   2.429  17.115  0.00  0.00    +0.000 HD
ENDROOT
BRANCH   1  12
ATOM     12  S   UNL     1       7.574   7.362  17.674  0.00  0.00    +0.000 S 
ATOM     13  H   UNL     1       7.448   6.802  18.882  0.00  0.00    +0.000 HD
ENDBRANCH   1  12
TORSDOF 1
ENDMDL
MODEL 4
REMARK VINA RESULT:      -5.1      3.081      4.100
REMARK  Name = 
REMARK  1 active torsions:
REMARK  status: ('A' for Active; 'I' for Inactive)
REMARK    1  A    between atoms: S_1  and  C_2
REMARK                            x       y       z     vdW  Elec       q    Type
REMARK                         _______ _______ _______ _____ _____    ______ ____
ROOT
ATOM      1  C   UNL     1       6.590   4.956  18.203  0.00  0.00    +0.000 A 
ATOM      2  N   UNL     1       5.596   4.370  18.916  0.00  0.00    +0.000 NA
ATOM      3  C   UNL     1       4.654   3.685  18.235  0.00  0.00    +0.000 A 
ATOM      4  N   UNL     1       4.561   3.498  16.902  0.00  0.00    +0.000 NA
ATOM      5  C   UNL     1       5.570   4.101  16.260  0.00  0.00    +0.000 A 
ATOM      6  N   UNL     1       5.791   4.118  14.914  0.00  0.00    +0.000 N 
ATOM      7  C   UNL     1       6.922   4.843  14.715  0.00  0.00    +0.000 A 
ATOM      8 CL   UNL     1       7.490   5.062  13.133  0.00  0.00    +0.000 Cl
ATOM      9  N   UNL     1       7.456   5.299  15.821  0.00  0.00    +0.000 NA
ATOM     10  C   UNL     1       6.611   4.838  16.812  0.00  0.00    +0.000 A 
ATOM     11  H   UNL     1       5.222   3.677  14.206  0.00  0.00    +0.000 HD
ENDROOT
BRANCH   1  12
ATOM     12  S   UNL     1       7.842   5.860  19.045  0.00  0.00    +0.000 S 
ATOM     13  H   UNL     1       8.861   5.265  18.414  0.00  0.00    +0.000 HD
ENDBRANCH   1  12
TORSDOF 1
ENDMDL
MODEL 5
REMARK VINA RESULT:      -5.0      3.373      4.663
REMARK  Name = 
REMARK  1 active torsions:
REMARK  status: ('A' for Active; 'I' for Inactive)
REMARK    1  A    between atoms: S_1  and  C_2
REMARK                            x       y       z     vdW  Elec       q    Type
REMARK                         _______ _______ _______ _____ _____    ______ ____
ROOT
ATOM      1  C   UNL     1       2.838   5.383  19.836  0.00  0.00    +0.000 A 
ATOM      2  N   UNL     1       2.034   4.535  20.525  0.00  0.00    +0.000 NA
ATOM      3  C   UNL     1       2.454   3.261  20.683  0.00  0.00    +0.000 A 
ATOM      4  N   UNL     1       3.596   2.699  20.237  0.00  0.00    +0.000 NA
ATOM      5  C   UNL     1       4.340   3.589  19.568  0.00  0.00    +0.000 A 
ATOM      6  N   UNL     1       5.553   3.367  18.982  0.00  0.00    +0.000 N 
ATOM      7  C   UNL     1       5.935   4.544  18.422  0.00  0.00    +0.000 A 
ATOM      8 CL   UNL     1       7.417   4.622  17.605  0.00  0.00    +0.000 Cl
ATOM      9  N   UNL     1       5.071   5.513  18.595  0.00  0.00    +0.000 NA
ATOM     10  C   UNL     1       4.053   4.926  19.320  0.00  0.00    +0.000 A 
ATOM     11  H   UNL     1       6.064   2.497  18.969  0.00  0.00    +0.000 HD
ENDROOT
BRANCH   1  12
ATOM     12  S   UNL     1       2.336   7.052  19.603  0.00  0.00    +0.000 S 
ATOM     13  H   UNL     1       1.259   6.750  18.869  0.00  0.00    +0.000 HD
ENDBRANCH   1  12
TORSDOF 1
ENDMDL
MODEL 6
REMARK VINA RESULT:      -5.0      2.031      2.617
REMARK  Name = 
REMARK  1 active torsions:
REMARK  status: ('A' for Active; 'I' for Inactive)
REMARK    1  A    between atoms: S_1  and  C_2
REMARK                            x       y       z     vdW  Elec       q    Type
REMARK                         _______ _______ _______ _____ _____    ______ ____
ROOT
ATOM      1  C   UNL     1       7.031   5.151  17.774  0.00  0.00    +0.000 A 
ATOM      2  N   UNL     1       7.453   5.308  16.494  0.00  0.00    +0.000 NA
ATOM      3  C   UNL     1       6.766   4.669  15.524  0.00  0.00    +0.000 A 
ATOM      4  N   UNL     1       5.687   3.871  15.655  0.00  0.00    +0.000 NA
ATOM      5  C   UNL     1       5.324   3.759  16.940  0.00  0.00    +0.000 A 
ATOM      6  N   UNL     1       4.280   3.035  17.437  0.00  0.00    +0.000 N 
ATOM      7  C   UNL     1       4.289   3.212  18.783  0.00  0.00    +0.000 A 
ATOM      8 CL   UNL     1       3.107   2.443  19.721  0.00  0.00    +0.000 Cl
ATOM      9  N   UNL     1       5.254   3.992  19.203  0.00  0.00    +0.000 NA
ATOM     10  C   UNL     1       5.921   4.349  18.047  0.00  0.00    +0.000 A 
ATOM     11  H   UNL     1       3.628   2.477  16.905  0.00  0.00    +0.000 HD
ENDROOT
BRANCH   1  12
ATOM     12  S   UNL     1       7.892   5.963  19.074  0.00  0.00    +0.000 S 
ATOM     13  H   UNL     1       6.812   6.130  19.846  0.00  0.00    +0.000 HD
ENDBRANCH   1  12
TORSDOF 1
ENDMDL
MODEL 7
REMARK VINA RESULT:      -4.9      3.235      4.311
REMARK  Name = 
REMARK  1 active torsions:
REMARK  status: ('A' for Active; 'I' for Inactive)
REMARK    1  A    between atoms: S_1  and  C_2
REMARK                            x       y       z     vdW  Elec       q    Type
REMARK                         _______ _______ _______ _____ _____    ______ ____
ROOT
ATOM      1  C   UNL     1       5.428   4.320  17.494  0.00  0.00    +0.000 A 
ATOM      2  N   UNL     1       5.130   3.713  16.318  0.00  0.00    +0.000 NA
ATOM      3  C   UNL     1       5.709   4.195  15.198  0.00  0.00    +0.000 A 
ATOM      4  N   UNL     1       6.570   5.227  15.083  0.00  0.00    +0.000 NA
ATOM      5  C   UNL     1       6.821   5.779  16.278  0.00  0.00    +0.000 A 
ATOM      6  N   UNL     1       7.642   6.838  16.535  0.00  0.00    +0.000 N 
ATOM      7  C   UNL     1       7.593   7.051  17.875  0.00  0.00    +0.000 A 
ATOM      8 CL   UNL     1       8.513   8.309  18.541  0.00  0.00    +0.000 Cl
ATOM      9  N   UNL     1       6.808   6.218  18.511  0.00  0.00    +0.000 NA
ATOM     10  C   UNL     1       6.309   5.404  17.514  0.00  0.00    +0.000 A 
ATOM     11  H   UNL     1       8.180   7.359  15.858  0.00  0.00    +0.000 HD
ENDROOT
BRANCH   1  12
ATOM     12  S   UNL     1       4.699   3.730  18.981  0.00  0.00    +0.000 S 
ATOM     13  H   UNL     1       3.762   2.996  18.371  0.00  0.00    +0.000 HD
ENDBRANCH   1  12
TORSDOF 1
ENDMDL
MODEL 8
REMARK VINA RESULT:      -4.9      2.027      2.549
REMARK  Name = 
REMARK  1 active torsions:
REMARK  status: ('A' for Active; 'I' for Inactive)
REMARK    1  A    between atoms: S_1  and  C_2
REMARK                            x       y       z     vdW  Elec       q    Type
REMARK                         _______ _______ _______ _____ _____    ______ ____
ROOT
ATOM      1  C   UNL     1       6.794   6.061  16.710  0.00  0.00    +0.000 A 
ATOM      2  N   UNL     1       7.467   5.558  15.645  0.00  0.00    +0.000 NA
ATOM      3  C   UNL     1       6.906   4.528  14.978  0.00  0.00    +0.000 A 
ATOM      4  N   UNL     1       5.735   3.910  15.232  0.00  0.00    +0.000 NA
ATOM      5  C   UNL     1       5.124   4.454  16.293  0.00  0.00    +0.000 A 
ATOM      6  N   UNL     1       3.926   4.081  16.830  0.00  0.00    +0.000 N 
ATOM      7  C   UNL     1       3.701   4.904  17.886  0.00  0.00    +0.000 A 
ATOM      8 CL   UNL     1       2.279   4.713  18.788  0.00  0.00    +0.000 Cl
ATOM      9  N   UNL     1       4.654   5.781  18.082  0.00  0.00    +0.000 NA
ATOM     10  C   UNL     1       5.566   5.510  17.080  0.00  0.00    +0.000 A 
ATOM     11  H   UNL     1       3.326   3.338  16.502  0.00  0.00    +0.000 HD
ENDROOT
BRANCH   1  12
ATOM     12  S   UNL     1       7.483   7.404  17.612  0.00  0.00    +0.000 S 
ATOM     13  H   UNL     1       8.533   7.568  16.799  0.00  0.00    +0.000 HD
ENDBRANCH   1  12
TORSDOF 1
ENDMDL
MODEL 9
REMARK VINA RESULT:      -4.8      3.424      4.704
REMARK  Name = 
REMARK  1 active torsions:
REMARK  status: ('A' for Active; 'I' for Inactive)
REMARK    1  A    between atoms: S_1  and  C_2
REMARK                            x       y       z     vdW  Elec       q    Type
REMARK                         _______ _______ _______ _____ _____    ______ ____
ROOT
ATOM      1  C   UNL     1       2.550   4.082  19.568  0.00  0.00    +0.000 A 
ATOM      2  N   UNL     1       1.886   3.004  19.082  0.00  0.00    +0.000 NA
ATOM      3  C   UNL     1       2.545   2.194  18.226  0.00  0.00    +0.000 A 
ATOM      4  N   UNL     1       3.810   2.313  17.774  0.00  0.00    +0.000 NA
ATOM      5  C   UNL     1       4.406   3.396  18.292  0.00  0.00    +0.000 A 
ATOM      6  N   UNL     1       5.681   3.822  18.055  0.00  0.00    +0.000 N 
ATOM      7  C   UNL     1       5.855   4.952  18.787  0.00  0.00    +0.000 A 
ATOM      8 CL   UNL     1       7.349   5.749  18.725  0.00  0.00    +0.000 Cl
ATOM      9  N   UNL     1       4.798   5.297  19.480  0.00  0.00    +0.000 NA
ATOM     10  C   UNL     1       3.869   4.321  19.178  0.00  0.00    +0.000 A 
ATOM     11  H   UNL     1       6.360   3.380  17.453  0.00  0.00    +0.000 HD
ENDROOT
BRANCH   1  12
ATOM     12  S   UNL     1       1.734   5.168  20.685  0.00  0.00    +0.000 S 
ATOM     13  H   UNL     1       2.592   6.180  20.514  0.00  0.00    +0.000 HD
ENDBRANCH   1  12
TORSDOF 1
ENDMDL
