MODEL 1
REMARK VINA RESULT:      -8.5      0.000      0.000
REMARK  Name = 
REMARK  9 active torsions:
REMARK  status: ('A' for Active; 'I' for Inactive)
REMARK    1  A    between atoms: C_1  and  C_2
REMARK    2  A    between atoms: C_2  and  O_3
REMARK    3  A    between atoms: O_3  and  C_4
REMARK    4  A    between atoms: C_8  and  O_9
REMARK    5  A    between atoms: O_9  and  C_10
REMARK    6  A    between atoms: C_10  and  C_11
REMARK    7  A    between atoms: C_11  and  C_12
REMARK    8  A    between atoms: C_12  and  N_13
REMARK    9  A    between atoms: C_14  and  C_15
REMARK                            x       y       z     vdW  Elec       q    Type
REMARK                         _______ _______ _______ _____ _____    ______ ____
ROOT
ATOM      1  N   UNL     1       6.304   6.499  18.270  0.00  0.00    +0.000 N 
ATOM      2  C   UNL     1       5.377   6.421  17.254  0.00  0.00    +0.000 A 
ATOM      3  N   UNL     1       4.109   6.560  17.573  0.00  0.00    +0.000 NA
ATOM      4  C   UNL     1       3.740   5.564  18.509  0.00  0.00    +0.000 A 
ATOM      5  C   UNL     1       2.427   5.093  18.485  0.00  0.00    +0.000 A 
ATOM      6  C   UNL     1       2.188   3.739  18.702  0.00  0.00    +0.000 A 
ATOM      7  C   UNL     1       3.263   2.881  18.960  0.00  0.00    +0.000 A 
ATOM      8  C   UNL     1       4.543   3.405  19.202  0.00  0.00    +0.000 A 
ATOM      9  C   UNL     1       4.757   4.779  19.077  0.00  0.00    +0.000 A 
ATOM     10  C   UNL     1       6.117   5.435  19.165  0.00  0.00    +0.000 A 
ATOM     11  O   UNL     1       7.002   4.936  19.852  0.00  0.00    +0.000 OA
ENDROOT
BRANCH   2  12
ATOM     12  C   UNL     1       5.766   5.530  16.069  0.00  0.00    +0.000 A 
ATOM     13  C   UNL     1       4.829   4.631  15.500  0.00  0.00    +0.000 A 
ATOM     14  C   UNL     1       5.109   3.887  14.359  0.00  0.00    +0.000 A 
ATOM     15  C   UNL     1       6.319   4.078  13.717  0.00  0.00    +0.000 A 
ATOM     16 BR   UNL     1       6.682   3.118  12.134  0.00  0.00    +0.000 Br
ATOM     17  C   UNL     1       7.245   5.009  14.216  0.00  0.00    +0.000 A 
ATOM     18  C   UNL     1       6.966   5.734  15.388  0.00  0.00    +0.000 A 
ENDBRANCH   2  12
BRANCH   1  19
ATOM     19  C   UNL     1       7.660   6.976  17.929  0.00  0.00    +0.000 C 
BRANCH  19  20
ATOM     20  C   UNL     1       7.899   8.411  17.432  0.00  0.00    +0.000 C 
BRANCH  20  21
ATOM     21  C   UNL     1       8.674   9.150  18.560  0.00  0.00    +0.000 C 
BRANCH  21  22
ATOM     22  O   UNL     1       8.488  10.566  18.548  0.00  0.00    +0.000 OA
BRANCH  22  27
ATOM     23  C   UNL     1      11.138  13.043  17.612  0.00  0.00    +0.000 A 
ATOM     24  C   UNL     1      12.076  12.736  18.606  0.00  0.00    +0.000 A 
ATOM     25  C   UNL     1      11.796  11.743  19.543  0.00  0.00    +0.000 A 
ATOM     26  C   UNL     1      10.582  11.049  19.490  0.00  0.00    +0.000 A 
ATOM     27  C   UNL     1       9.634  11.337  18.504  0.00  0.00    +0.000 A 
ATOM     28  C   UNL     1       9.923  12.348  17.571  0.00  0.00    +0.000 A 
BRANCH  23  29
ATOM     29  O   UNL     1      11.538  14.033  16.751  0.00  0.00    +0.000 OA
BRANCH  29  31
ATOM     30  C   UNL     1      12.331  16.258  17.158  0.00  0.00    +0.000 C 
ATOM     31  C   UNL     1      11.110  15.360  17.050  0.00  0.00    +0.000 C 
ENDBRANCH  29  31
ENDBRANCH  23  29
ENDBRANCH  22  27
ENDBRANCH  21  22
ENDBRANCH  20  21
ENDBRANCH  19  20
ENDBRANCH   1  19
TORSDOF 8
ENDMDL
MODEL 2
REMARK VINA RESULT:      -8.3      2.908      4.053
REMARK  Name = 
REMARK  9 active torsions:
REMARK  status: ('A' for Active; 'I' for Inactive)
REMARK    1  A    between atoms: C_1  and  C_2
REMARK    2  A    between atoms: C_2  and  O_3
REMARK    3  A    between atoms: O_3  and  C_4
REMARK    4  A    between atoms: C_8  and  O_9
REMARK    5  A    between atoms: O_9  and  C_10
REMARK    6  A    between atoms: C_10  and  C_11
REMARK    7  A    between atoms: C_11  and  C_12
REMARK    8  A    between atoms: C_12  and  N_13
REMARK    9  A    between atoms: C_14  and  C_15
REMARK                            x       y       z     vdW  Elec       q    Type
REMARK                         _______ _______ _______ _____ _____    ______ ____
ROOT
ATOM      1  N   UNL     1       5.438   5.483  17.634  0.00  0.00    +0.000 N 
ATOM      2  C   UNL     1       4.746   5.710  18.803  0.00  0.00    +0.000 A 
ATOM      3  N   UNL     1       4.690   4.730  19.679  0.00  0.00    +0.000 NA
ATOM      4  C   UNL     1       4.087   3.594  19.087  0.00  0.00    +0.000 A 
ATOM      5  C   UNL     1       3.344   2.743  19.905  0.00  0.00    +0.000 A 
ATOM      6  C   UNL     1       2.171   2.180  19.410  0.00  0.00    +0.000 A 
ATOM      7  C   UNL     1       1.770   2.460  18.100  0.00  0.00    +0.000 A 
ATOM      8  C   UNL     1       2.637   3.131  17.224  0.00  0.00    +0.000 A 
ATOM      9  C   UNL     1       3.859   3.612  17.701  0.00  0.00    +0.000 A 
ATOM     10  C   UNL     1       4.802   4.476  16.894  0.00  0.00    +0.000 A 
ATOM     11  O   UNL     1       4.842   4.374  15.673  0.00  0.00    +0.000 OA
ENDROOT
BRANCH   2  12
ATOM     12  C   UNL     1       3.582   6.702  18.703  0.00  0.00    +0.000 A 
ATOM     13  C   UNL     1       2.706   6.905  19.799  0.00  0.00    +0.000 A 
ATOM     14  C   UNL     1       1.708   7.872  19.785  0.00  0.00    +0.000 A 
ATOM     15  C   UNL     1       1.606   8.712  18.691  0.00  0.00    +0.000 A 
ATOM     16 BR   UNL     1       0.294  10.067  18.690  0.00  0.00    +0.000 Br
ATOM     17  C   UNL     1       2.498   8.582  17.614  0.00  0.00    +0.000 A 
ATOM     18  C   UNL     1       3.486   7.580  17.623  0.00  0.00    +0.000 A 
ENDBRANCH   2  12
BRANCH   1  19
ATOM     19  C   UNL     1       6.053   6.647  16.962  0.00  0.00    +0.000 C 
BRANCH  19  20
ATOM     20  C   UNL     1       7.528   7.013  17.192  0.00  0.00    +0.000 C 
BRANCH  20  21
ATOM     21  C   UNL     1       7.541   8.430  17.832  0.00  0.00    +0.000 C 
BRANCH  21  22
ATOM     22  O   UNL     1       8.734   8.716  18.563  0.00  0.00    +0.000 OA
BRANCH  22  27
ATOM     23  C   UNL     1       9.220  12.427  18.374  0.00  0.00    +0.000 A 
ATOM     24  C   UNL     1       9.536  12.668  19.717  0.00  0.00    +0.000 A 
ATOM     25  C   UNL     1       9.565  11.611  20.625  0.00  0.00    +0.000 A 
ATOM     26  C   UNL     1       9.284  10.309  20.197  0.00  0.00    +0.000 A 
ATOM     27  C   UNL     1       8.969  10.045  18.860  0.00  0.00    +0.000 A 
ATOM     28  C   UNL     1       8.932  11.122  17.956  0.00  0.00    +0.000 A 
BRANCH  23  29
ATOM     29  O   UNL     1       9.231  13.549  17.586  0.00  0.00    +0.000 OA
BRANCH  29  31
ATOM     30  C   UNL     1       7.999  15.581  17.898  0.00  0.00    +0.000 C 
ATOM     31  C   UNL     1       9.259  14.808  18.255  0.00  0.00    +0.000 C 
ENDBRANCH  29  31
ENDBRANCH  23  29
ENDBRANCH  22  27
ENDBRANCH  21  22
ENDBRANCH  20  21
ENDBRANCH  19  20
ENDBRANCH   1  19
TORSDOF 8
ENDMDL
MODEL 3
REMARK VINA RESULT:      -8.3      6.088      8.242
REMARK  Name = 
REMARK  9 active torsions:
REMARK  status: ('A' for Active; 'I' for Inactive)
REMARK    1  A    between atoms: C_1  and  C_2
REMARK    2  A    between atoms: C_2  and  O_3
REMARK    3  A    between atoms: O_3  and  C_4
REMARK    4  A    between atoms: C_8  and  O_9
REMARK    5  A    between atoms: O_9  and  C_10
REMARK    6  A    between atoms: C_10  and  C_11
REMARK    7  A    between atoms: C_11  and  C_12
REMARK    8  A    between atoms: C_12  and  N_13
REMARK    9  A    between atoms: C_14  and  C_15
REMARK                            x       y       z     vdW  Elec       q    Type
REMARK                         _______ _______ _______ _____ _____    ______ ____
ROOT
ATOM      1  N   UNL     1       3.705   5.340  17.944  0.00  0.00    +0.000 N 
ATOM      2  C   UNL     1       3.612   5.814  19.234  0.00  0.00    +0.000 A 
ATOM      3  N   UNL     1       3.919   4.988  20.211  0.00  0.00    +0.000 NA
ATOM      4  C   UNL     1       3.078   3.851  20.157  0.00  0.00    +0.000 A 
ATOM      5  C   UNL     1       2.748   3.219  21.356  0.00  0.00    +0.000 A 
ATOM      6  C   UNL     1       1.459   2.722  21.528  0.00  0.00    +0.000 A 
ATOM      7  C   UNL     1       0.527   2.846  20.492  0.00  0.00    +0.000 A 
ATOM      8  C   UNL     1       0.937   3.278  19.221  0.00  0.00    +0.000 A 
ATOM      9  C   UNL     1       2.259   3.686  19.027  0.00  0.00    +0.000 A 
ATOM     10  C   UNL     1       2.774   4.310  17.750  0.00  0.00    +0.000 A 
ATOM     11  O   UNL     1       2.264   4.023  16.672  0.00  0.00    +0.000 OA
ENDROOT
BRANCH   2  12
ATOM     12  C   UNL     1       2.559   6.903  19.466  0.00  0.00    +0.000 A 
ATOM     13  C   UNL     1       1.922   7.039  20.725  0.00  0.00    +0.000 A 
ATOM     14  C   UNL     1       1.044   8.079  21.007  0.00  0.00    +0.000 A 
ATOM     15  C   UNL     1       0.833   9.053  20.049  0.00  0.00    +0.000 A 
ATOM     16 BR   UNL     1      -0.310  10.501  20.445  0.00  0.00    +0.000 Br
ATOM     17  C   UNL     1       1.497   8.986  18.813  0.00  0.00    +0.000 A 
ATOM     18  C   UNL     1       2.361   7.913  18.525  0.00  0.00    +0.000 A 
ENDBRANCH   2  12
BRANCH   1  19
ATOM     19  C   UNL     1       3.996   6.314  16.872  0.00  0.00    +0.000 C 
BRANCH  19  20
ATOM     20  C   UNL     1       5.227   6.160  15.965  0.00  0.00    +0.000 C 
BRANCH  20  21
ATOM     21  C   UNL     1       6.040   4.954  16.519  0.00  0.00    +0.000 C 
BRANCH  21  22
ATOM     22  O   UNL     1       7.217   4.665  15.765  0.00  0.00    +0.000 OA
BRANCH  22  27
ATOM     23  C   UNL     1       6.121   3.539  12.363  0.00  0.00    +0.000 A 
ATOM     24  C   UNL     1       6.940   4.372  11.590  0.00  0.00    +0.000 A 
ATOM     25  C   UNL     1       7.803   5.272  12.214  0.00  0.00    +0.000 A 
ATOM     26  C   UNL     1       7.858   5.340  13.610  0.00  0.00    +0.000 A 
ATOM     27  C   UNL     1       7.053   4.514  14.401  0.00  0.00    +0.000 A 
ATOM     28  C   UNL     1       6.178   3.620  13.759  0.00  0.00    +0.000 A 
BRANCH  23  29
ATOM     29  O   UNL     1       5.324   2.699  11.628  0.00  0.00    +0.000 OA
BRANCH  29  31
ATOM     30  C   UNL     1       3.647   3.745  10.273  0.00  0.00    +0.000 C 
ATOM     31  C   UNL     1       3.934   3.012  11.573  0.00  0.00    +0.000 C 
ENDBRANCH  29  31
ENDBRANCH  23  29
ENDBRANCH  22  27
ENDBRANCH  21  22
ENDBRANCH  20  21
ENDBRANCH  19  20
ENDBRANCH   1  19
TORSDOF 8
ENDMDL
MODEL 4
REMARK VINA RESULT:      -8.2      6.123      8.595
REMARK  Name = 
REMARK  9 active torsions:
REMARK  status: ('A' for Active; 'I' for Inactive)
REMARK    1  A    between atoms: C_1  and  C_2
REMARK    2  A    between atoms: C_2  and  O_3
REMARK    3  A    between atoms: O_3  and  C_4
REMARK    4  A    between atoms: C_8  and  O_9
REMARK    5  A    between atoms: O_9  and  C_10
REMARK    6  A    between atoms: C_10  and  C_11
REMARK    7  A    between atoms: C_11  and  C_12
REMARK    8  A    between atoms: C_12  and  N_13
REMARK    9  A    between atoms: C_14  and  C_15
REMARK                            x       y       z     vdW  Elec       q    Type
REMARK                         _______ _______ _______ _____ _____    ______ ____
ROOT
ATOM      1  N   UNL     1       4.230   3.851  17.511  0.00  0.00    +0.000 N 
ATOM      2  C   UNL     1       4.262   4.647  18.635  0.00  0.00    +0.000 A 
ATOM      3  N   UNL     1       4.396   4.052  19.800  0.00  0.00    +0.000 NA
ATOM      4  C   UNL     1       3.328   3.144  19.999  0.00  0.00    +0.000 A 
ATOM      5  C   UNL     1       2.886   2.925  21.304  0.00  0.00    +0.000 A 
ATOM      6  C   UNL     1       1.523   2.775  21.543  0.00  0.00    +0.000 A 
ATOM      7  C   UNL     1       0.625   2.827  20.471  0.00  0.00    +0.000 A 
ATOM      8  C   UNL     1       1.100   2.823  19.150  0.00  0.00    +0.000 A 
ATOM      9  C   UNL     1       2.476   2.876  18.915  0.00  0.00    +0.000 A 
ATOM     10  C   UNL     1       3.095   3.029  17.544  0.00  0.00    +0.000 A 
ATOM     11  O   UNL     1       2.519   2.593  16.553  0.00  0.00    +0.000 OA
ENDROOT
BRANCH   2  12
ATOM     12  C   UNL     1       3.473   5.958  18.541  0.00  0.00    +0.000 A 
ATOM     13  C   UNL     1       2.625   6.371  19.599  0.00  0.00    +0.000 A 
ATOM     14  C   UNL     1       1.980   7.602  19.600  0.00  0.00    +0.000 A 
ATOM     15  C   UNL     1       2.224   8.484  18.563  0.00  0.00    +0.000 A 
ATOM     16 BR   UNL     1       1.400  10.181  18.586  0.00  0.00    +0.000 Br
ATOM     17  C   UNL     1       3.109   8.134  17.529  0.00  0.00    +0.000 A 
ATOM     18  C   UNL     1       3.734   6.874  17.523  0.00  0.00    +0.000 A 
ENDBRANCH   2  12
BRANCH   1  19
ATOM     19  C   UNL     1       4.710   4.435  16.241  0.00  0.00    +0.000 C 
BRANCH  19  20
ATOM     20  C   UNL     1       5.905   3.831  15.486  0.00  0.00    +0.000 C 
BRANCH  20  21
ATOM     21  C   UNL     1       6.769   5.026  14.990  0.00  0.00    +0.000 C 
BRANCH  21  22
ATOM     22  O   UNL     1       7.290   4.846  13.673  0.00  0.00    +0.000 OA
BRANCH  22  27
ATOM     23  C   UNL     1       4.585   3.140  11.720  0.00  0.00    +0.000 A 
ATOM     24  C   UNL     1       5.354   2.130  11.130  0.00  0.00    +0.000 A 
ATOM     25  C   UNL     1       6.723   2.058  11.386  0.00  0.00    +0.000 A 
ATOM     26  C   UNL     1       7.328   2.990  12.236  0.00  0.00    +0.000 A 
ATOM     27  C   UNL     1       6.578   4.004  12.839  0.00  0.00    +0.000 A 
ATOM     28  C   UNL     1       5.201   4.073  12.563  0.00  0.00    +0.000 A 
BRANCH  23  29
ATOM     29  O   UNL     1       3.254   3.096  11.391  0.00  0.00    +0.000 OA
BRANCH  29  31
ATOM     30  C   UNL     1       2.830   4.482   9.481  0.00  0.00    +0.000 C 
ATOM     31  C   UNL     1       2.934   3.057  10.002  0.00  0.00    +0.000 C 
ENDBRANCH  29  31
ENDBRANCH  23  29
ENDBRANCH  22  27
ENDBRANCH  21  22
ENDBRANCH  20  21
ENDBRANCH  19  20
ENDBRANCH   1  19
TORSDOF 8
ENDMDL
MODEL 5
REMARK VINA RESULT:      -8.2      5.239      7.965
REMARK  Name = 
REMARK  9 active torsions:
REMARK  status: ('A' for Active; 'I' for Inactive)
REMARK    1  A    between atoms: C_1  and  C_2
REMARK    2  A    between atoms: C_2  and  O_3
REMARK    3  A    between atoms: O_3  and  C_4
REMARK    4  A    between atoms: C_8  and  O_9
REMARK    5  A    between atoms: O_9  and  C_10
REMARK    6  A    between atoms: C_10  and  C_11
REMARK    7  A    between atoms: C_11  and  C_12
REMARK    8  A    between atoms: C_12  and  N_13
REMARK    9  A    between atoms: C_14  and  C_15
REMARK                            x       y       z     vdW  Elec       q    Type
REMARK                         _______ _______ _______ _____ _____    ______ ____
ROOT
ATOM      1  N   UNL     1       4.361   5.289  18.004  0.00  0.00    +0.000 N 
ATOM      2  C   UNL     1       3.919   5.830  19.192  0.00  0.00    +0.000 A 
ATOM      3  N   UNL     1       3.923   5.054  20.254  0.00  0.00    +0.000 NA
ATOM      4  C   UNL     1       3.110   3.919  20.020  0.00  0.00    +0.000 A 
ATOM      5  C   UNL     1       2.444   3.352  21.106  0.00  0.00    +0.000 A 
ATOM      6  C   UNL     1       1.149   2.870  20.932  0.00  0.00    +0.000 A 
ATOM      7  C   UNL     1       0.549   2.945  19.671  0.00  0.00    +0.000 A 
ATOM      8  C   UNL     1       1.308   3.309  18.547  0.00  0.00    +0.000 A 
ATOM      9  C   UNL     1       2.638   3.700  18.715  0.00  0.00    +0.000 A 
ATOM     10  C   UNL     1       3.503   4.255  17.605  0.00  0.00    +0.000 A 
ATOM     11  O   UNL     1       3.311   3.915  16.442  0.00  0.00    +0.000 OA
ENDROOT
BRANCH   2  12
ATOM     12  C   UNL     1       2.864   6.934  19.064  0.00  0.00    +0.000 A 
ATOM     13  C   UNL     1       2.157   7.396  20.203  0.00  0.00    +0.000 A 
ATOM     14  C   UNL     1       1.274   8.468  20.148  0.00  0.00    +0.000 A 
ATOM     15  C   UNL     1       1.126   9.151  18.954  0.00  0.00    +0.000 A 
ATOM     16 BR   UNL     1      -0.024  10.644  18.885  0.00  0.00    +0.000 Br
ATOM     17  C   UNL     1       1.859   8.761  17.821  0.00  0.00    +0.000 A 
ATOM     18  C   UNL     1       2.728   7.657  17.879  0.00  0.00    +0.000 A 
ENDBRANCH   2  12
BRANCH   1  19
ATOM     19  C   UNL     1       4.960   6.206  17.012  0.00  0.00    +0.000 C 
BRANCH  19  20
ATOM     20  C   UNL     1       6.206   7.042  17.348  0.00  0.00    +0.000 C 
BRANCH  20  21
ATOM     21  C   UNL     1       7.345   6.540  16.414  0.00  0.00    +0.000 C 
BRANCH  21  22
ATOM     22  O   UNL     1       7.279   5.141  16.135  0.00  0.00    +0.000 OA
BRANCH  22  27
ATOM     23  C   UNL     1       6.142   3.519  12.954  0.00  0.00    +0.000 A 
ATOM     24  C   UNL     1       6.959   4.218  12.056  0.00  0.00    +0.000 A 
ATOM     25  C   UNL     1       7.834   5.195  12.528  0.00  0.00    +0.000 A 
ATOM     26  C   UNL     1       7.903   5.475  13.897  0.00  0.00    +0.000 A 
ATOM     27  C   UNL     1       7.100   4.786  14.811  0.00  0.00    +0.000 A 
ATOM     28  C   UNL     1       6.213   3.811  14.322  0.00  0.00    +0.000 A 
BRANCH  23  29
ATOM     29  O   UNL     1       5.333   2.583  12.363  0.00  0.00    +0.000 OA
BRANCH  29  31
ATOM     30  C   UNL     1       6.177   0.666  11.199  0.00  0.00    +0.000 C 
ATOM     31  C   UNL     1       5.724   2.111  11.076  0.00  0.00    +0.000 C 
ENDBRANCH  29  31
ENDBRANCH  23  29
ENDBRANCH  22  27
ENDBRANCH  21  22
ENDBRANCH  20  21
ENDBRANCH  19  20
ENDBRANCH   1  19
TORSDOF 8
ENDMDL
MODEL 6
REMARK VINA RESULT:      -8.1      5.655      8.014
REMARK  Name = 
REMARK  9 active torsions:
REMARK  status: ('A' for Active; 'I' for Inactive)
REMARK    1  A    between atoms: C_1  and  C_2
REMARK    2  A    between atoms: C_2  and  O_3
REMARK    3  A    between atoms: O_3  and  C_4
REMARK    4  A    between atoms: C_8  and  O_9
REMARK    5  A    between atoms: O_9  and  C_10
REMARK    6  A    between atoms: C_10  and  C_11
REMARK    7  A    between atoms: C_11  and  C_12
REMARK    8  A    between atoms: C_12  and  N_13
REMARK    9  A    between atoms: C_14  and  C_15
REMARK                            x       y       z     vdW  Elec       q    Type
REMARK                         _______ _______ _______ _____ _____    ______ ____
ROOT
ATOM      1  N   UNL     1       4.702   4.827  18.624  0.00  0.00    +0.000 N 
ATOM      2  C   UNL     1       3.934   5.356  19.638  0.00  0.00    +0.000 A 
ATOM      3  N   UNL     1       3.547   4.543  20.597  0.00  0.00    +0.000 NA
ATOM      4  C   UNL     1       2.784   3.484  20.047  0.00  0.00    +0.000 A 
ATOM      5  C   UNL     1       1.770   2.930  20.827  0.00  0.00    +0.000 A 
ATOM      6  C   UNL     1       0.574   2.557  20.221  0.00  0.00    +0.000 A 
ATOM      7  C   UNL     1       0.418   2.726  18.841  0.00  0.00    +0.000 A 
ATOM      8  C   UNL     1       1.520   3.072  18.043  0.00  0.00    +0.000 A 
ATOM      9  C   UNL     1       2.746   3.352  18.649  0.00  0.00    +0.000 A 
ATOM     10  C   UNL     1       3.956   3.879  17.910  0.00  0.00    +0.000 A 
ATOM     11  O   UNL     1       4.129   3.599  16.728  0.00  0.00    +0.000 OA
ENDROOT
BRANCH   2  12
ATOM     12  C   UNL     1       3.046   6.543  19.249  0.00  0.00    +0.000 A 
ATOM     13  C   UNL     1       2.183   7.145  20.198  0.00  0.00    +0.000 A 
ATOM     14  C   UNL     1       1.445   8.288  19.915  0.00  0.00    +0.000 A 
ATOM     15  C   UNL     1       1.608   8.900  18.685  0.00  0.00    +0.000 A 
ATOM     16 BR   UNL     1       0.657  10.487  18.314  0.00  0.00    +0.000 Br
ATOM     17  C   UNL     1       2.504   8.368  17.743  0.00  0.00    +0.000 A 
ATOM     18  C   UNL     1       3.223   7.193  18.028  0.00  0.00    +0.000 A 
ENDBRANCH   2  12
BRANCH   1  19
ATOM     19  C   UNL     1       5.644   5.731  17.932  0.00  0.00    +0.000 C 
BRANCH  19  20
ATOM     20  C   UNL     1       7.123   5.354  17.750  0.00  0.00    +0.000 C 
BRANCH  20  21
ATOM     21  C   UNL     1       7.385   5.308  16.217  0.00  0.00    +0.000 C 
BRANCH  21  22
ATOM     22  O   UNL     1       6.194   5.206  15.436  0.00  0.00    +0.000 OA
BRANCH  22  27
ATOM     23  C   UNL     1       5.738   3.372  12.201  0.00  0.00    +0.000 A 
ATOM     24  C   UNL     1       6.893   3.812  11.543  0.00  0.00    +0.000 A 
ATOM     25  C   UNL     1       7.762   4.697  12.180  0.00  0.00    +0.000 A 
ATOM     26  C   UNL     1       7.485   5.141  13.478  0.00  0.00    +0.000 A 
ATOM     27  C   UNL     1       6.340   4.711  14.154  0.00  0.00    +0.000 A 
ATOM     28  C   UNL     1       5.466   3.828  13.496  0.00  0.00    +0.000 A 
BRANCH  23  29
ATOM     29  O   UNL     1       4.973   2.502  11.467  0.00  0.00    +0.000 OA
BRANCH  29  31
ATOM     30  C   UNL     1       3.568   3.973  10.198  0.00  0.00    +0.000 C 
ATOM     31  C   UNL     1       3.613   2.869  11.243  0.00  0.00    +0.000 C 
ENDBRANCH  29  31
ENDBRANCH  23  29
ENDBRANCH  22  27
ENDBRANCH  21  22
ENDBRANCH  20  21
ENDBRANCH  19  20
ENDBRANCH   1  19
TORSDOF 8
ENDMDL
MODEL 7
REMARK VINA RESULT:      -8.0      3.020      4.115
REMARK  Name = 
REMARK  9 active torsions:
REMARK  status: ('A' for Active; 'I' for Inactive)
REMARK    1  A    between atoms: C_1  and  C_2
REMARK    2  A    between atoms: C_2  and  O_3
REMARK    3  A    between atoms: O_3  and  C_4
REMARK    4  A    between atoms: C_8  and  O_9
REMARK    5  A    between atoms: O_9  and  C_10
REMARK    6  A    between atoms: C_10  and  C_11
REMARK    7  A    between atoms: C_11  and  C_12
REMARK    8  A    between atoms: C_12  and  N_13
REMARK    9  A    between atoms: C_14  and  C_15
REMARK                            x       y       z     vdW  Elec       q    Type
REMARK                         _______ _______ _______ _____ _____    ______ ____
ROOT
ATOM      1  N   UNL     1       5.674   5.096  17.724  0.00  0.00    +0.000 N 
ATOM      2  C   UNL     1       4.992   5.331  18.898  0.00  0.00    +0.000 A 
ATOM      3  N   UNL     1       4.796   4.310  19.704  0.00  0.00    +0.000 NA
ATOM      4  C   UNL     1       4.068   3.301  19.029  0.00  0.00    +0.000 A 
ATOM      5  C   UNL     1       3.207   2.498  19.777  0.00  0.00    +0.000 A 
ATOM      6  C   UNL     1       1.983   2.122  19.232  0.00  0.00    +0.000 A 
ATOM      7  C   UNL     1       1.648   2.537  17.939  0.00  0.00    +0.000 A 
ATOM      8  C   UNL     1       2.610   3.149  17.121  0.00  0.00    +0.000 A 
ATOM      9  C   UNL     1       3.872   3.439  17.644  0.00  0.00    +0.000 A 
ATOM     10  C   UNL     1       4.933   4.228  16.910  0.00  0.00    +0.000 A 
ATOM     11  O   UNL     1       4.985   4.203  15.685  0.00  0.00    +0.000 OA
ENDROOT
BRANCH   2  12
ATOM     12  C   UNL     1       3.964   6.467  18.851  0.00  0.00    +0.000 A 
ATOM     13  C   UNL     1       3.831   7.276  17.695  0.00  0.00    +0.000 A 
ATOM     14  C   UNL     1       2.839   8.243  17.573  0.00  0.00    +0.000 A 
ATOM     15  C   UNL     1       1.909   8.377  18.587  0.00  0.00    +0.000 A 
ATOM     16 BR   UNL     1       0.523   9.644  18.403  0.00  0.00    +0.000 Br
ATOM     17  C   UNL     1       1.972   7.547  19.719  0.00  0.00    +0.000 A 
ATOM     18  C   UNL     1       2.997   6.593  19.847  0.00  0.00    +0.000 A 
ENDBRANCH   2  12
BRANCH   1  19
ATOM     19  C   UNL     1       6.444   6.214  17.141  0.00  0.00    +0.000 C 
BRANCH  19  20
ATOM     20  C   UNL     1       7.616   6.857  17.899  0.00  0.00    +0.000 C 
BRANCH  20  21
ATOM     21  C   UNL     1       7.474   8.396  17.719  0.00  0.00    +0.000 C 
BRANCH  21  22
ATOM     22  O   UNL     1       8.723   9.071  17.569  0.00  0.00    +0.000 OA
BRANCH  22  27
ATOM     23  C   UNL     1       8.822  12.687  18.548  0.00  0.00    +0.000 A 
ATOM     24  C   UNL     1       9.280  12.538  19.863  0.00  0.00    +0.000 A 
ATOM     25  C   UNL     1       9.524  11.264  20.375  0.00  0.00    +0.000 A 
ATOM     26  C   UNL     1       9.318  10.135  19.575  0.00  0.00    +0.000 A 
ATOM     27  C   UNL     1       8.865  10.261  18.258  0.00  0.00    +0.000 A 
ATOM     28  C   UNL     1       8.611  11.550  17.758  0.00  0.00    +0.000 A 
BRANCH  23  29
ATOM     29  O   UNL     1       8.626  13.990  18.167  0.00  0.00    +0.000 OA
BRANCH  29  31
ATOM     30  C   UNL     1       6.691  15.168  18.949  0.00  0.00    +0.000 C 
ATOM     31  C   UNL     1       7.298  14.366  17.810  0.00  0.00    +0.000 C 
ENDBRANCH  29  31
ENDBRANCH  23  29
ENDBRANCH  22  27
ENDBRANCH  21  22
ENDBRANCH  20  21
ENDBRANCH  19  20
ENDBRANCH   1  19
TORSDOF 8
ENDMDL
MODEL 8
REMARK VINA RESULT:      -7.9      3.219      4.546
REMARK  Name = 
REMARK  9 active torsions:
REMARK  status: ('A' for Active; 'I' for Inactive)
REMARK    1  A    between atoms: C_1  and  C_2
REMARK    2  A    between atoms: C_2  and  O_3
REMARK    3  A    between atoms: O_3  and  C_4
REMARK    4  A    between atoms: C_8  and  O_9
REMARK    5  A    between atoms: O_9  and  C_10
REMARK    6  A    between atoms: C_10  and  C_11
REMARK    7  A    between atoms: C_11  and  C_12
REMARK    8  A    between atoms: C_12  and  N_13
REMARK    9  A    between atoms: C_14  and  C_15
REMARK                            x       y       z     vdW  Elec       q    Type
REMARK                         _______ _______ _______ _____ _____    ______ ____
ROOT
ATOM      1  N   UNL     1       5.343   5.353  17.955  0.00  0.00    +0.000 N 
ATOM      2  C   UNL     1       4.587   5.622  19.075  0.00  0.00    +0.000 A 
ATOM      3  N   UNL     1       4.442   4.658  19.959  0.00  0.00    +0.000 NA
ATOM      4  C   UNL     1       3.837   3.534  19.345  0.00  0.00    +0.000 A 
ATOM      5  C   UNL     1       3.014   2.722  20.125  0.00  0.00    +0.000 A 
ATOM      6  C   UNL     1       1.856   2.192  19.564  0.00  0.00    +0.000 A 
ATOM      7  C   UNL     1       1.548   2.466  18.227  0.00  0.00    +0.000 A 
ATOM      8  C   UNL     1       2.493   3.093  17.399  0.00  0.00    +0.000 A 
ATOM      9  C   UNL     1       3.698   3.539  17.947  0.00  0.00    +0.000 A 
ATOM     10  C   UNL     1       4.720   4.357  17.191  0.00  0.00    +0.000 A 
ATOM     11  O   UNL     1       4.833   4.235  15.975  0.00  0.00    +0.000 OA
ENDROOT
BRANCH   2  12
ATOM     12  C   UNL     1       3.468   6.652  18.888  0.00  0.00    +0.000 A 
ATOM     13  C   UNL     1       2.572   6.949  19.946  0.00  0.00    +0.000 A 
ATOM     14  C   UNL     1       1.615   7.952  19.852  0.00  0.00    +0.000 A 
ATOM     15  C   UNL     1       1.576   8.734  18.711  0.00  0.00    +0.000 A 
ATOM     16 BR   UNL     1       0.321  10.138  18.600  0.00  0.00    +0.000 Br
ATOM     17  C   UNL     1       2.491   8.510  17.669  0.00  0.00    +0.000 A 
ATOM     18  C   UNL     1       3.437   7.472  17.761  0.00  0.00    +0.000 A 
ENDBRANCH   2  12
BRANCH   1  19
ATOM     19  C   UNL     1       6.040   6.484  17.309  0.00  0.00    +0.000 C 
BRANCH  19  20
ATOM     20  C   UNL     1       7.461   6.891  17.729  0.00  0.00    +0.000 C 
BRANCH  20  21
ATOM     21  C   UNL     1       7.487   8.446  17.768  0.00  0.00    +0.000 C 
BRANCH  21  22
ATOM     22  O   UNL     1       8.805   8.994  17.810  0.00  0.00    +0.000 OA
BRANCH  22  27
ATOM     23  C   UNL     1       9.407  11.702  20.330  0.00  0.00    +0.000 A 
ATOM     24  C   UNL     1       9.108  12.809  19.527  0.00  0.00    +0.000 A 
ATOM     25  C   UNL     1       8.735  12.623  18.196  0.00  0.00    +0.000 A 
ATOM     26  C   UNL     1       8.653  11.332  17.664  0.00  0.00    +0.000 A 
ATOM     27  C   UNL     1       8.944  10.212  18.449  0.00  0.00    +0.000 A 
ATOM     28  C   UNL     1       9.330  10.414  19.786  0.00  0.00    +0.000 A 
BRANCH  23  29
ATOM     29  O   UNL     1       9.755  12.021  21.617  0.00  0.00    +0.000 OA
BRANCH  29  31
ATOM     30  C   UNL     1       8.473  12.938  23.423  0.00  0.00    +0.000 C 
ATOM     31  C   UNL     1       9.235  13.240  22.143  0.00  0.00    +0.000 C 
ENDBRANCH  29  31
ENDBRANCH  23  29
ENDBRANCH  22  27
ENDBRANCH  21  22
ENDBRANCH  20  21
ENDBRANCH  19  20
ENDBRANCH   1  19
TORSDOF 8
ENDMDL
MODEL 9
REMARK VINA RESULT:      -7.9      1.058      1.262
REMARK  Name = 
REMARK  9 active torsions:
REMARK  status: ('A' for Active; 'I' for Inactive)
REMARK    1  A    between atoms: C_1  and  C_2
REMARK    2  A    between atoms: C_2  and  O_3
REMARK    3  A    between atoms: O_3  and  C_4
REMARK    4  A    between atoms: C_8  and  O_9
REMARK    5  A    between atoms: O_9  and  C_10
REMARK    6  A    between atoms: C_10  and  C_11
REMARK    7  A    between atoms: C_11  and  C_12
REMARK    8  A    between atoms: C_12  and  N_13
REMARK    9  A    between atoms: C_14  and  C_15
REMARK                            x       y       z     vdW  Elec       q    Type
REMARK                         _______ _______ _______ _____ _____    ______ ____
ROOT
ATOM      1  N   UNL     1       6.267   6.535  18.285  0.00  0.00    +0.000 N 
ATOM      2  C   UNL     1       5.318   6.401  17.294  0.00  0.00    +0.000 A 
ATOM      3  N   UNL     1       4.053   6.464  17.649  0.00  0.00    +0.000 NA
ATOM      4  C   UNL     1       3.771   5.448  18.594  0.00  0.00    +0.000 A 
ATOM      5  C   UNL     1       2.490   4.898  18.606  0.00  0.00    +0.000 A 
ATOM      6  C   UNL     1       2.339   3.532  18.828  0.00  0.00    +0.000 A 
ATOM      7  C   UNL     1       3.470   2.741  19.055  0.00  0.00    +0.000 A 
ATOM      8  C   UNL     1       4.722   3.341  19.262  0.00  0.00    +0.000 A 
ATOM      9  C   UNL     1       4.850   4.726  19.133  0.00  0.00    +0.000 A 
ATOM     10  C   UNL     1       6.169   5.463  19.183  0.00  0.00    +0.000 A 
ATOM     11  O   UNL     1       7.101   5.018  19.845  0.00  0.00    +0.000 OA
ENDROOT
BRANCH   2  12
ATOM     12  C   UNL     1       5.727   5.534  16.098  0.00  0.00    +0.000 A 
ATOM     13  C   UNL     1       4.819   4.605  15.532  0.00  0.00    +0.000 A 
ATOM     14  C   UNL     1       5.113   3.881  14.383  0.00  0.00    +0.000 A 
ATOM     15  C   UNL     1       6.308   4.122  13.729  0.00  0.00    +0.000 A 
ATOM     16 BR   UNL     1       6.689   3.189  12.134  0.00  0.00    +0.000 Br
ATOM     17  C   UNL     1       7.204   5.083  14.225  0.00  0.00    +0.000 A 
ATOM     18  C   UNL     1       6.911   5.789  15.406  0.00  0.00    +0.000 A 
ENDBRANCH   2  12
BRANCH   1  19
ATOM     19  C   UNL     1       7.581   7.094  17.906  0.00  0.00    +0.000 C 
BRANCH  19  20
ATOM     20  C   UNL     1       7.773   8.602  17.683  0.00  0.00    +0.000 C 
BRANCH  20  21
ATOM     21  C   UNL     1       8.974   9.036  18.572  0.00  0.00    +0.000 C 
BRANCH  21  22
ATOM     22  O   UNL     1       8.718  10.208  19.346  0.00  0.00    +0.000 OA
BRANCH  22  27
ATOM     23  C   UNL     1       9.919  13.740  18.998  0.00  0.00    +0.000 A 
ATOM     24  C   UNL     1      10.857  13.545  17.976  0.00  0.00    +0.000 A 
ATOM     25  C   UNL     1      11.063  12.268  17.456  0.00  0.00    +0.000 A 
ATOM     26  C   UNL     1      10.331  11.182  17.948  0.00  0.00    +0.000 A 
ATOM     27  C   UNL     1       9.387  11.355  18.965  0.00  0.00    +0.000 A 
ATOM     28  C   UNL     1       9.197  12.646  19.489  0.00  0.00    +0.000 A 
BRANCH  23  29
ATOM     29  O   UNL     1       9.810  15.041  19.417  0.00  0.00    +0.000 OA
BRANCH  29  31
ATOM     30  C   UNL     1       8.634  16.625  18.055  0.00  0.00    +0.000 C 
ATOM     31  C   UNL     1       9.993  16.055  18.431  0.00  0.00    +0.000 C 
ENDBRANCH  29  31
ENDBRANCH  23  29
ENDBRANCH  22  27
ENDBRANCH  21  22
ENDBRANCH  20  21
ENDBRANCH  19  20
ENDBRANCH   1  19
TORSDOF 8
ENDMDL
