MODEL 1
REMARK VINA RESULT:      -5.4      0.000      0.000
REMARK  Name = 
REMARK  1 active torsions:
REMARK  status: ('A' for Active; 'I' for Inactive)
REMARK    1  A    between atoms: N_5  and  C_6
REMARK                            x       y       z     vdW  Elec       q    Type
REMARK                         _______ _______ _______ _____ _____    ______ ____
ROOT
ATOM      1  C   UNL     1       7.394   6.654  17.867  0.00  0.00    +0.000 A 
ATOM      2  C   UNL     1       7.571   5.890  18.992  0.00  0.00    +0.000 A 
ATOM      3  N   UNL     1       6.579   5.179  19.575  0.00  0.00    +0.000 NA
ATOM      4  C   UNL     1       5.357   5.267  19.015  0.00  0.00    +0.000 A 
ATOM      5  N   UNL     1       4.331   4.548  19.649  0.00  0.00    +0.000 N 
ATOM      6  N   UNL     1       5.093   5.985  17.920  0.00  0.00    +0.000 NA
ATOM      7  C   UNL     1       6.126   6.655  17.357  0.00  0.00    +0.000 A 
ATOM      8  H   UNL     1       4.709   4.078  20.462  0.00  0.00    +0.000 HD
ENDROOT
BRANCH   5   9
ATOM      9  C   UNL     1       2.953   4.921  19.644  0.00  0.00    +0.000 C 
ATOM     10  C   UNL     1       2.027   3.873  18.974  0.00  0.00    +0.000 C 
ATOM     11  C   UNL     1       1.032   4.087  20.131  0.00  0.00    +0.000 C 
ATOM     12  C   UNL     1       2.202   4.645  20.968  0.00  0.00    +0.000 C 
ENDBRANCH   5   9
TORSDOF 1
ENDMDL
MODEL 2
REMARK VINA RESULT:      -5.4      1.529      1.618
REMARK  Name = 
REMARK  1 active torsions:
REMARK  status: ('A' for Active; 'I' for Inactive)
REMARK    1  A    between atoms: N_5  and  C_6
REMARK                            x       y       z     vdW  Elec       q    Type
REMARK                         _______ _______ _______ _____ _____    ______ ____
ROOT
ATOM      1  C   UNL     1       7.499   7.014  17.764  0.00  0.00    +0.000 A 
ATOM      2  C   UNL     1       7.882   6.232  18.824  0.00  0.00    +0.000 A 
ATOM      3  N   UNL     1       7.208   5.128  19.218  0.00  0.00    +0.000 NA
ATOM      4  C   UNL     1       6.091   4.819  18.533  0.00  0.00    +0.000 A 
ATOM      5  N   UNL     1       5.386   3.687  18.974  0.00  0.00    +0.000 N 
ATOM      6  N   UNL     1       5.644   5.521  17.489  0.00  0.00    +0.000 NA
ATOM      7  C   UNL     1       6.369   6.601  17.115  0.00  0.00    +0.000 A 
ATOM      8  H   UNL     1       5.860   3.293  19.776  0.00  0.00    +0.000 HD
ENDROOT
BRANCH   5   9
ATOM      9  C   UNL     1       3.975   3.506  18.847  0.00  0.00    +0.000 C 
ATOM     10  C   UNL     1       3.580   2.342  17.902  0.00  0.00    +0.000 C 
ATOM     11  C   UNL     1       2.515   1.932  18.938  0.00  0.00    +0.000 C 
ATOM     12  C   UNL     1       3.318   2.712  19.999  0.00  0.00    +0.000 C 
ENDBRANCH   5   9
TORSDOF 1
ENDMDL
MODEL 3
REMARK VINA RESULT:      -5.4      1.569      1.769
REMARK  Name = 
REMARK  1 active torsions:
REMARK  status: ('A' for Active; 'I' for Inactive)
REMARK    1  A    between atoms: N_5  and  C_6
REMARK                            x       y       z     vdW  Elec       q    Type
REMARK                         _______ _______ _______ _____ _____    ______ ____
ROOT
ATOM      1  C   UNL     1       7.618   6.687  18.031  0.00  0.00    +0.000 A 
ATOM      2  C   UNL     1       7.593   5.700  18.982  0.00  0.00    +0.000 A 
ATOM      3  N   UNL     1       6.740   4.650  18.946  0.00  0.00    +0.000 NA
ATOM      4  C   UNL     1       5.862   4.614  17.926  0.00  0.00    +0.000 A 
ATOM      5  N   UNL     1       4.963   3.535  17.920  0.00  0.00    +0.000 N 
ATOM      6  N   UNL     1       5.814   5.530  16.956  0.00  0.00    +0.000 NA
ATOM      7  C   UNL     1       6.708   6.546  17.020  0.00  0.00    +0.000 A 
ATOM      8  H   UNL     1       5.136   2.955  18.730  0.00  0.00    +0.000 HD
ENDROOT
BRANCH   5   9
ATOM      9  C   UNL     1       3.647   3.576  17.366  0.00  0.00    +0.000 C 
ATOM     10  C   UNL     1       2.730   2.426  17.856  0.00  0.00    +0.000 C 
ATOM     11  C   UNL     1       1.599   3.462  18.009  0.00  0.00    +0.000 C 
ATOM     12  C   UNL     1       2.681   4.560  18.065  0.00  0.00    +0.000 C 
ENDBRANCH   5   9
TORSDOF 1
ENDMDL
MODEL 4
REMARK VINA RESULT:      -5.4      3.954      5.580
REMARK  Name = 
REMARK  1 active torsions:
REMARK  status: ('A' for Active; 'I' for Inactive)
REMARK    1  A    between atoms: N_5  and  C_6
REMARK                            x       y       z     vdW  Elec       q    Type
REMARK                         _______ _______ _______ _____ _____    ______ ____
ROOT
ATOM      1  C   UNL     1       7.795   6.070  18.846  0.00  0.00    +0.000 A 
ATOM      2  C   UNL     1       7.624   7.106  17.964  0.00  0.00    +0.000 A 
ATOM      3  N   UNL     1       7.214   6.939  16.686  0.00  0.00    +0.000 NA
ATOM      4  C   UNL     1       6.997   5.674  16.277  0.00  0.00    +0.000 A 
ATOM      5  N   UNL     1       6.602   5.514  14.939  0.00  0.00    +0.000 N 
ATOM      6  N   UNL     1       7.138   4.605  17.066  0.00  0.00    +0.000 NA
ATOM      7  C   UNL     1       7.522   4.828  18.345  0.00  0.00    +0.000 A 
ATOM      8  H   UNL     1       6.560   6.422  14.495  0.00  0.00    +0.000 HD
ENDROOT
BRANCH   5   9
ATOM      9  C   UNL     1       6.883   4.365  14.140  0.00  0.00    +0.000 C 
ATOM     10  C   UNL     1       5.618   3.699  13.540  0.00  0.00    +0.000 C 
ATOM     11  C   UNL     1       6.386   3.554  12.212  0.00  0.00    +0.000 C 
ATOM     12  C   UNL     1       7.329   4.676  12.692  0.00  0.00    +0.000 C 
ENDBRANCH   5   9
TORSDOF 1
ENDMDL
MODEL 5
REMARK VINA RESULT:      -5.4      1.579      1.589
REMARK  Name = 
REMARK  1 active torsions:
REMARK  status: ('A' for Active; 'I' for Inactive)
REMARK    1  A    between atoms: N_5  and  C_6
REMARK                            x       y       z     vdW  Elec       q    Type
REMARK                         _______ _______ _______ _____ _____    ______ ____
ROOT
ATOM      1  C   UNL     1       7.076   4.520  16.471  0.00  0.00    +0.000 A 
ATOM      2  C   UNL     1       7.363   4.681  17.802  0.00  0.00    +0.000 A 
ATOM      3  N   UNL     1       6.461   4.481  18.790  0.00  0.00    +0.000 NA
ATOM      4  C   UNL     1       5.215   4.133  18.415  0.00  0.00    +0.000 A 
ATOM      5  N   UNL     1       4.282   3.959  19.450  0.00  0.00    +0.000 N 
ATOM      6  N   UNL     1       4.846   3.953  17.144  0.00  0.00    +0.000 NA
ATOM      7  C   UNL     1       5.793   4.137  16.194  0.00  0.00    +0.000 A 
ATOM      8  H   UNL     1       4.731   4.147  20.336  0.00  0.00    +0.000 HD
ENDROOT
BRANCH   5   9
ATOM      9  C   UNL     1       2.877   4.183  19.325  0.00  0.00    +0.000 C 
ATOM     10  C   UNL     1       2.015   2.954  19.713  0.00  0.00    +0.000 C 
ATOM     11  C   UNL     1       1.073   3.916  20.463  0.00  0.00    +0.000 C 
ATOM     12  C   UNL     1       2.233   4.932  20.514  0.00  0.00    +0.000 C 
ENDBRANCH   5   9
TORSDOF 1
ENDMDL
MODEL 6
REMARK VINA RESULT:      -5.4      1.819      4.911
REMARK  Name = 
REMARK  1 active torsions:
REMARK  status: ('A' for Active; 'I' for Inactive)
REMARK    1  A    between atoms: N_5  and  C_6
REMARK                            x       y       z     vdW  Elec       q    Type
REMARK                         _______ _______ _______ _____ _____    ______ ____
ROOT
ATOM      1  C   UNL     1       1.927   3.796  20.770  0.00  0.00    +0.000 A 
ATOM      2  C   UNL     1       2.664   2.657  20.571  0.00  0.00    +0.000 A 
ATOM      3  N   UNL     1       3.870   2.646  19.959  0.00  0.00    +0.000 NA
ATOM      4  C   UNL     1       4.335   3.826  19.507  0.00  0.00    +0.000 A 
ATOM      5  N   UNL     1       5.574   3.793  18.847  0.00  0.00    +0.000 N 
ATOM      6  N   UNL     1       3.687   4.984  19.657  0.00  0.00    +0.000 NA
ATOM      7  C   UNL     1       2.497   4.947  20.302  0.00  0.00    +0.000 A 
ATOM      8  H   UNL     1       5.908   2.839  18.816  0.00  0.00    +0.000 HD
ENDROOT
BRANCH   5   9
ATOM      9  C   UNL     1       5.971   4.699  17.817  0.00  0.00    +0.000 C 
ATOM     10  C   UNL     1       7.455   4.546  17.392  0.00  0.00    +0.000 C 
ATOM     11  C   UNL     1       6.994   4.676  15.927  0.00  0.00    +0.000 C 
ATOM     12  C   UNL     1       5.581   4.263  16.386  0.00  0.00    +0.000 C 
ENDBRANCH   5   9
TORSDOF 1
ENDMDL
MODEL 7
REMARK VINA RESULT:      -5.3      1.405      4.950
REMARK  Name = 
REMARK  1 active torsions:
REMARK  status: ('A' for Active; 'I' for Inactive)
REMARK    1  A    between atoms: N_5  and  C_6
REMARK                            x       y       z     vdW  Elec       q    Type
REMARK                         _______ _______ _______ _____ _____    ______ ____
ROOT
ATOM      1  C   UNL     1       1.636   2.968  18.502  0.00  0.00    +0.000 A 
ATOM      2  C   UNL     1       2.615   2.270  17.843  0.00  0.00    +0.000 A 
ATOM      3  N   UNL     1       3.930   2.577  17.918  0.00  0.00    +0.000 NA
ATOM      4  C   UNL     1       4.264   3.648  18.664  0.00  0.00    +0.000 A 
ATOM      5  N   UNL     1       5.629   3.972  18.707  0.00  0.00    +0.000 N 
ATOM      6  N   UNL     1       3.379   4.385  19.340  0.00  0.00    +0.000 NA
ATOM      7  C   UNL     1       2.078   4.019  19.256  0.00  0.00    +0.000 A 
ATOM      8  H   UNL     1       6.144   3.318  18.131  0.00  0.00    +0.000 HD
ENDROOT
BRANCH   5   9
ATOM      9  C   UNL     1       6.147   5.290  18.889  0.00  0.00    +0.000 C 
ATOM     10  C   UNL     1       7.678   5.394  18.667  0.00  0.00    +0.000 C 
ATOM     11  C   UNL     1       7.425   6.697  17.884  0.00  0.00    +0.000 C 
ATOM     12  C   UNL     1       5.971   6.228  17.672  0.00  0.00    +0.000 C 
ENDBRANCH   5   9
TORSDOF 1
ENDMDL
MODEL 8
REMARK VINA RESULT:      -5.3      2.406      5.414
REMARK  Name = 
REMARK  1 active torsions:
REMARK  status: ('A' for Active; 'I' for Inactive)
REMARK    1  A    between atoms: N_5  and  C_6
REMARK                            x       y       z     vdW  Elec       q    Type
REMARK                         _______ _______ _______ _____ _____    ______ ____
ROOT
ATOM      1  C   UNL     1       1.195   2.948  18.471  0.00  0.00    +0.000 A 
ATOM      2  C   UNL     1       2.178   2.001  18.605  0.00  0.00    +0.000 A 
ATOM      3  N   UNL     1       3.482   2.236  18.334  0.00  0.00    +0.000 NA
ATOM      4  C   UNL     1       3.799   3.465  17.883  0.00  0.00    +0.000 A 
ATOM      5  N   UNL     1       5.152   3.684  17.577  0.00  0.00    +0.000 N 
ATOM      6  N   UNL     1       2.909   4.448  17.723  0.00  0.00    +0.000 NA
ATOM      7  C   UNL     1       1.621   4.172  18.036  0.00  0.00    +0.000 A 
ATOM      8  H   UNL     1       5.671   2.833  17.746  0.00  0.00    +0.000 HD
ENDROOT
BRANCH   5   9
ATOM      9  C   UNL     1       5.624   4.598  16.587  0.00  0.00    +0.000 C 
ATOM     10  C   UNL     1       7.170   4.690  16.512  0.00  0.00    +0.000 C 
ATOM     11  C   UNL     1       7.045   4.671  14.976  0.00  0.00    +0.000 C 
ATOM     12  C   UNL     1       5.650   4.036  15.146  0.00  0.00    +0.000 C 
ENDBRANCH   5   9
TORSDOF 1
ENDMDL
MODEL 9
REMARK VINA RESULT:      -5.2      1.674      2.148
REMARK  Name = 
REMARK  1 active torsions:
REMARK  status: ('A' for Active; 'I' for Inactive)
REMARK    1  A    between atoms: N_5  and  C_6
REMARK                            x       y       z     vdW  Elec       q    Type
REMARK                         _______ _______ _______ _____ _____    ______ ____
ROOT
ATOM      1  C   UNL     1       7.654   5.291  18.365  0.00  0.00    +0.000 A 
ATOM      2  C   UNL     1       7.293   4.677  17.193  0.00  0.00    +0.000 A 
ATOM      3  N   UNL     1       6.030   4.282  16.917  0.00  0.00    +0.000 NA
ATOM      4  C   UNL     1       5.104   4.488  17.873  0.00  0.00    +0.000 A 
ATOM      5  N   UNL     1       3.803   4.043  17.583  0.00  0.00    +0.000 N 
ATOM      6  N   UNL     1       5.364   5.077  19.043  0.00  0.00    +0.000 NA
ATOM      7  C   UNL     1       6.638   5.482  19.260  0.00  0.00    +0.000 A 
ATOM      8  H   UNL     1       3.796   3.615  16.667  0.00  0.00    +0.000 HD
ENDROOT
BRANCH   5   9
ATOM      9  C   UNL     1       2.857   3.606  18.559  0.00  0.00    +0.000 C 
ATOM     10  C   UNL     1       1.382   3.849  18.146  0.00  0.00    +0.000 C 
ATOM     11  C   UNL     1       1.055   2.440  18.679  0.00  0.00    +0.000 C 
ATOM     12  C   UNL     1       2.550   2.091  18.530  0.00  0.00    +0.000 C 
ENDBRANCH   5   9
TORSDOF 1
ENDMDL
