MODEL 1
REMARK VINA RESULT:      -7.9      0.000      0.000
REMARK  Name = 
REMARK  3 active torsions:
REMARK  status: ('A' for Active; 'I' for Inactive)
REMARK    1  A    between atoms: C_1  and  N_2
REMARK    2  A    between atoms: N_5  and  N_6
REMARK    3  A    between atoms: C_7  and  C_8
REMARK                            x       y       z     vdW  Elec       q    Type
REMARK                         _______ _______ _______ _____ _____    ______ ____
ROOT
ATOM      1  C   UNL     1       2.977   5.915  18.904  0.00  0.00    +0.000 A 
ATOM      2  C   UNL     1       3.814   5.777  17.740  0.00  0.00    +0.000 A 
ATOM      3  C   UNL     1       4.368   6.889  17.046  0.00  0.00    +0.000 A 
ATOM      4  C   UNL     1       5.187   6.726  15.931  0.00  0.00    +0.000 A 
ATOM      5  C   UNL     1       5.490   5.458  15.465  0.00  0.00    +0.000 A 
ATOM      6  C   UNL     1       4.984   4.343  16.120  0.00  0.00    +0.000 A 
ATOM      7  C   UNL     1       4.154   4.474  17.259  0.00  0.00    +0.000 A 
ATOM      8  C   UNL     1       3.683   3.321  17.917  0.00  0.00    +0.000 A 
ATOM      9 CL   UNL     1       4.120   1.706  17.305  0.00  0.00    +0.000 Cl
ATOM     10  C   UNL     1       2.878   3.440  19.066  0.00  0.00    +0.000 A 
ATOM     11  C   UNL     1       2.413   2.278  19.728  0.00  0.00    +0.000 A 
ATOM     12  C   UNL     1       1.611   2.367  20.859  0.00  0.00    +0.000 A 
ATOM     13  C   UNL     1       1.247   3.608  21.351  0.00  0.00    +0.000 A 
ATOM     14  C   UNL     1       1.686   4.769  20.723  0.00  0.00    +0.000 A 
ATOM     15  C   UNL     1       2.520   4.726  19.569  0.00  0.00    +0.000 A 
ENDROOT
BRANCH   1  17
ATOM     16  N   UNL     1       1.603   7.963  19.015  0.00  0.00    +0.000 NA
ATOM     17  C   UNL     1       2.584   7.265  19.475  0.00  0.00    +0.000 C 
BRANCH  16  22
ATOM     18  C   UNL     1      -1.485  12.373  20.179  0.00  0.00    +0.000 C 
ATOM     19  N   UNL     1      -0.311  11.509  20.003  0.00  0.00    +0.000 NA
ATOM     20  C   UNL     1      -0.179  11.043  18.606  0.00  0.00    +0.000 C 
ATOM     21  C   UNL     1       1.157  10.300  18.455  0.00  0.00    +0.000 C 
ATOM     22  N   UNL     1       1.232   9.234  19.438  0.00  0.00    +0.000 N 
ATOM     23  C   UNL     1       0.996   9.616  20.828  0.00  0.00    +0.000 C 
ATOM     24  C   UNL     1      -0.342  10.352  20.921  0.00  0.00    +0.000 C 
ENDBRANCH  16  22
ENDBRANCH   1  17
TORSDOF 2
ENDMDL
MODEL 2
REMARK VINA RESULT:      -7.8      1.043      1.221
REMARK  Name = 
REMARK  3 active torsions:
REMARK  status: ('A' for Active; 'I' for Inactive)
REMARK    1  A    between atoms: C_1  and  N_2
REMARK    2  A    between atoms: N_5  and  N_6
REMARK    3  A    between atoms: C_7  and  C_8
REMARK                            x       y       z     vdW  Elec       q    Type
REMARK                         _______ _______ _______ _____ _____    ______ ____
ROOT
ATOM      1  C   UNL     1       3.012   6.059  18.232  0.00  0.00    +0.000 A 
ATOM      2  C   UNL     1       3.988   5.685  17.241  0.00  0.00    +0.000 A 
ATOM      3  C   UNL     1       4.665   6.633  16.423  0.00  0.00    +0.000 A 
ATOM      4  C   UNL     1       5.617   6.244  15.482  0.00  0.00    +0.000 A 
ATOM      5  C   UNL     1       5.935   4.907  15.320  0.00  0.00    +0.000 A 
ATOM      6  C   UNL     1       5.311   3.948  16.107  0.00  0.00    +0.000 A 
ATOM      7  C   UNL     1       4.344   4.309  17.076  0.00  0.00    +0.000 A 
ATOM      8  C   UNL     1       3.753   3.315  17.878  0.00  0.00    +0.000 A 
ATOM      9 CL   UNL     1       4.211   1.607  17.661  0.00  0.00    +0.000 Cl
ATOM     10  C   UNL     1       2.809   3.666  18.863  0.00  0.00    +0.000 A 
ATOM     11  C   UNL     1       2.223   2.663  19.672  0.00  0.00    +0.000 A 
ATOM     12  C   UNL     1       1.284   2.981  20.645  0.00  0.00    +0.000 A 
ATOM     13  C   UNL     1       0.900   4.298  20.830  0.00  0.00    +0.000 A 
ATOM     14  C   UNL     1       1.457   5.307  20.050  0.00  0.00    +0.000 A 
ATOM     15  C   UNL     1       2.433   5.028  19.050  0.00  0.00    +0.000 A 
ENDROOT
BRANCH   1  17
ATOM     16  N   UNL     1       1.633   8.064  17.822  0.00  0.00    +0.000 NA
ATOM     17  C   UNL     1       2.594   7.498  18.468  0.00  0.00    +0.000 C 
BRANCH  16  22
ATOM     18  C   UNL     1      -0.078  12.831  19.990  0.00  0.00    +0.000 C 
ATOM     19  N   UNL     1       0.334  11.824  19.004  0.00  0.00    +0.000 NA
ATOM     20  C   UNL     1      -0.546  10.636  19.034  0.00  0.00    +0.000 C 
ATOM     21  C   UNL     1      -0.172   9.711  17.866  0.00  0.00    +0.000 C 
ATOM     22  N   UNL     1       1.243   9.394  17.933  0.00  0.00    +0.000 N 
ATOM     23  C   UNL     1       2.159  10.529  18.020  0.00  0.00    +0.000 C 
ATOM     24  C   UNL     1       1.741  11.416  19.195  0.00  0.00    +0.000 C 
ENDBRANCH  16  22
ENDBRANCH   1  17
TORSDOF 2
ENDMDL
MODEL 3
REMARK VINA RESULT:      -7.8      0.918      1.016
REMARK  Name = 
REMARK  3 active torsions:
REMARK  status: ('A' for Active; 'I' for Inactive)
REMARK    1  A    between atoms: C_1  and  N_2
REMARK    2  A    between atoms: N_5  and  N_6
REMARK    3  A    between atoms: C_7  and  C_8
REMARK                            x       y       z     vdW  Elec       q    Type
REMARK                         _______ _______ _______ _____ _____    ______ ____
ROOT
ATOM      1  C   UNL     1       2.900   5.935  18.728  0.00  0.00    +0.000 A 
ATOM      2  C   UNL     1       3.774   5.743  17.599  0.00  0.00    +0.000 A 
ATOM      3  C   UNL     1       4.361   6.822  16.879  0.00  0.00    +0.000 A 
ATOM      4  C   UNL     1       5.216   6.606  15.800  0.00  0.00    +0.000 A 
ATOM      5  C   UNL     1       5.523   5.319  15.397  0.00  0.00    +0.000 A 
ATOM      6  C   UNL     1       4.986   4.235  16.079  0.00  0.00    +0.000 A 
ATOM      7  C   UNL     1       4.119   4.418  17.184  0.00  0.00    +0.000 A 
ATOM      8  C   UNL     1       3.617   3.298  17.872  0.00  0.00    +0.000 A 
ATOM      9 CL   UNL     1       4.059   1.656  17.342  0.00  0.00    +0.000 Cl
ATOM     10  C   UNL     1       2.774   3.469  18.987  0.00  0.00    +0.000 A 
ATOM     11  C   UNL     1       2.278   2.339  19.680  0.00  0.00    +0.000 A 
ATOM     12  C   UNL     1       1.439   2.480  20.779  0.00  0.00    +0.000 A 
ATOM     13  C   UNL     1       1.069   3.743  21.207  0.00  0.00    +0.000 A 
ATOM     14  C   UNL     1       1.539   4.874  20.547  0.00  0.00    +0.000 A 
ATOM     15  C   UNL     1       2.411   4.777  19.424  0.00  0.00    +0.000 A 
ENDROOT
BRANCH   1  17
ATOM     16  N   UNL     1       1.855   7.495  20.330  0.00  0.00    +0.000 NA
ATOM     17  C   UNL     1       2.500   7.310  19.229  0.00  0.00    +0.000 C 
BRANCH  16  22
ATOM     18  C   UNL     1      -1.540  11.438  22.138  0.00  0.00    +0.000 C 
ATOM     19  N   UNL     1      -0.317  10.754  21.702  0.00  0.00    +0.000 NA
ATOM     20  C   UNL     1      -0.436  10.249  20.317  0.00  0.00    +0.000 C 
ATOM     21  C   UNL     1       0.931   9.710  19.866  0.00  0.00    +0.000 C 
ATOM     22  N   UNL     1       1.394   8.714  20.815  0.00  0.00    +0.000 N 
ATOM     23  C   UNL     1       1.426   9.120  22.219  0.00  0.00    +0.000 C 
ATOM     24  C   UNL     1       0.045   9.649  22.614  0.00  0.00    +0.000 C 
ENDBRANCH  16  22
ENDBRANCH   1  17
TORSDOF 2
ENDMDL
MODEL 4
REMARK VINA RESULT:      -7.8      0.503      3.785
REMARK  Name = 
REMARK  3 active torsions:
REMARK  status: ('A' for Active; 'I' for Inactive)
REMARK    1  A    between atoms: C_1  and  N_2
REMARK    2  A    between atoms: N_5  and  N_6
REMARK    3  A    between atoms: C_7  and  C_8
REMARK                            x       y       z     vdW  Elec       q    Type
REMARK                         _______ _______ _______ _____ _____    ______ ____
ROOT
ATOM      1  C   UNL     1       2.991   5.851  18.544  0.00  0.00    +0.000 A 
ATOM      2  C   UNL     1       2.495   4.737  19.311  0.00  0.00    +0.000 A 
ATOM      3  C   UNL     1       1.558   4.881  20.373  0.00  0.00    +0.000 A 
ATOM      4  C   UNL     1       1.083   3.784  21.088  0.00  0.00    +0.000 A 
ATOM      5  C   UNL     1       1.515   2.506  20.778  0.00  0.00    +0.000 A 
ATOM      6  C   UNL     1       2.417   2.315  19.740  0.00  0.00    +0.000 A 
ATOM      7  C   UNL     1       2.915   3.408  18.989  0.00  0.00    +0.000 A 
ATOM      8  C   UNL     1       3.805   3.176  17.923  0.00  0.00    +0.000 A 
ATOM      9 CL   UNL     1       4.313   1.514  17.534  0.00  0.00    +0.000 Cl
ATOM     10  C   UNL     1       4.285   4.253  17.153  0.00  0.00    +0.000 A 
ATOM     11  C   UNL     1       5.174   4.014  16.078  0.00  0.00    +0.000 A 
ATOM     12  C   UNL     1       5.669   5.058  15.308  0.00  0.00    +0.000 A 
ATOM     13  C   UNL     1       5.301   6.361  15.593  0.00  0.00    +0.000 A 
ATOM     14  C   UNL     1       4.429   6.630  16.644  0.00  0.00    +0.000 A 
ATOM     15  C   UNL     1       3.887   5.589  17.452  0.00  0.00    +0.000 A 
ENDROOT
BRANCH   1  17
ATOM     16  N   UNL     1       1.840   7.620  19.824  0.00  0.00    +0.000 NA
ATOM     17  C   UNL     1       2.582   7.284  18.824  0.00  0.00    +0.000 C 
BRANCH  16  22
ATOM     18  C   UNL     1      -1.589  11.881  20.477  0.00  0.00    +0.000 C 
ATOM     19  N   UNL     1      -0.351  11.095  20.404  0.00  0.00    +0.000 NA
ATOM     20  C   UNL     1      -0.164  10.490  19.068  0.00  0.00    +0.000 C 
ATOM     21  C   UNL     1       1.227   9.840  19.007  0.00  0.00    +0.000 C 
ATOM     22  N   UNL     1       1.367   8.897  20.102  0.00  0.00    +0.000 N 
ATOM     23  C   UNL     1       1.084   9.410  21.441  0.00  0.00    +0.000 C 
ATOM     24  C   UNL     1      -0.308  10.047  21.444  0.00  0.00    +0.000 C 
ENDBRANCH  16  22
ENDBRANCH   1  17
TORSDOF 2
ENDMDL
MODEL 5
REMARK VINA RESULT:      -7.8      1.032      3.928
REMARK  Name = 
REMARK  3 active torsions:
REMARK  status: ('A' for Active; 'I' for Inactive)
REMARK    1  A    between atoms: C_1  and  N_2
REMARK    2  A    between atoms: N_5  and  N_6
REMARK    3  A    between atoms: C_7  and  C_8
REMARK                            x       y       z     vdW  Elec       q    Type
REMARK                         _______ _______ _______ _____ _____    ______ ____
ROOT
ATOM      1  C   UNL     1       2.986   6.050  18.310  0.00  0.00    +0.000 A 
ATOM      2  C   UNL     1       2.413   4.995  19.106  0.00  0.00    +0.000 A 
ATOM      3  C   UNL     1       1.423   5.224  20.103  0.00  0.00    +0.000 A 
ATOM      4  C   UNL     1       0.876   4.182  20.848  0.00  0.00    +0.000 A 
ATOM      5  C   UNL     1       1.285   2.878  20.633  0.00  0.00    +0.000 A 
ATOM      6  C   UNL     1       2.238   2.604  19.661  0.00  0.00    +0.000 A 
ATOM      7  C   UNL     1       2.810   3.639  18.881  0.00  0.00    +0.000 A 
ATOM      8  C   UNL     1       3.751   3.323  17.883  0.00  0.00    +0.000 A 
ATOM      9 CL   UNL     1       4.230   1.629  17.615  0.00  0.00    +0.000 Cl
ATOM     10  C   UNL     1       4.307   4.342  17.085  0.00  0.00    +0.000 A 
ATOM     11  C   UNL     1       5.247   4.018  16.077  0.00  0.00    +0.000 A 
ATOM     12  C   UNL     1       5.816   5.004  15.282  0.00  0.00    +0.000 A 
ATOM     13  C   UNL     1       5.472   6.331  15.473  0.00  0.00    +0.000 A 
ATOM     14  C   UNL     1       4.551   6.682  16.456  0.00  0.00    +0.000 A 
ATOM     15  C   UNL     1       3.933   5.703  17.286  0.00  0.00    +0.000 A 
ENDROOT
BRANCH   1  17
ATOM     16  N   UNL     1       1.594   8.045  17.895  0.00  0.00    +0.000 NA
ATOM     17  C   UNL     1       2.605   7.508  18.487  0.00  0.00    +0.000 C 
BRANCH  16  22
ATOM     18  C   UNL     1      -0.004  12.932  19.874  0.00  0.00    +0.000 C 
ATOM     19  N   UNL     1       0.376  11.875  18.928  0.00  0.00    +0.000 NA
ATOM     20  C   UNL     1      -0.523  10.705  19.024  0.00  0.00    +0.000 C 
ATOM     21  C   UNL     1      -0.183   9.723  17.892  0.00  0.00    +0.000 C 
ATOM     22  N   UNL     1       1.227   9.385  17.953  0.00  0.00    +0.000 N 
ATOM     23  C   UNL     1       2.163  10.507  17.975  0.00  0.00    +0.000 C 
ATOM     24  C   UNL     1       1.778  11.452  19.116  0.00  0.00    +0.000 C 
ENDBRANCH  16  22
ENDBRANCH   1  17
TORSDOF 2
ENDMDL
MODEL 6
REMARK VINA RESULT:      -6.7      1.342      1.342
REMARK  Name = 
REMARK  3 active torsions:
REMARK  status: ('A' for Active; 'I' for Inactive)
REMARK    1  A    between atoms: C_1  and  N_2
REMARK    2  A    between atoms: N_5  and  N_6
REMARK    3  A    between atoms: C_7  and  C_8
REMARK                            x       y       z     vdW  Elec       q    Type
REMARK                         _______ _______ _______ _____ _____    ______ ____
ROOT
ATOM      1  C   UNL     1       3.122   6.032  18.712  0.00  0.00    +0.000 A 
ATOM      2  C   UNL     1       4.473   5.828  18.253  0.00  0.00    +0.000 A 
ATOM      3  C   UNL     1       5.216   6.823  17.558  0.00  0.00    +0.000 A 
ATOM      4  C   UNL     1       6.526   6.604  17.139  0.00  0.00    +0.000 A 
ATOM      5  C   UNL     1       7.149   5.395  17.395  0.00  0.00    +0.000 A 
ATOM      6  C   UNL     1       6.468   4.399  18.083  0.00  0.00    +0.000 A 
ATOM      7  C   UNL     1       5.138   4.592  18.528  0.00  0.00    +0.000 A 
ATOM      8  C   UNL     1       4.488   3.573  19.250  0.00  0.00    +0.000 A 
ATOM      9 CL   UNL     1       5.334   2.042  19.586  0.00  0.00    +0.000 Cl
ATOM     10  C   UNL     1       3.174   3.764  19.719  0.00  0.00    +0.000 A 
ATOM     11  C   UNL     1       2.527   2.739  20.451  0.00  0.00    +0.000 A 
ATOM     12  C   UNL     1       1.230   2.898  20.919  0.00  0.00    +0.000 A 
ATOM     13  C   UNL     1       0.543   4.073  20.664  0.00  0.00    +0.000 A 
ATOM     14  C   UNL     1       1.150   5.099  19.947  0.00  0.00    +0.000 A 
ATOM     15  C   UNL     1       2.484   4.984  19.459  0.00  0.00    +0.000 A 
ENDROOT
BRANCH   1  17
ATOM     16  N   UNL     1       2.041   8.139  19.408  0.00  0.00    +0.000 NA
ATOM     17  C   UNL     1       2.360   7.320  18.464  0.00  0.00    +0.000 C 
BRANCH  16  22
ATOM     18  C   UNL     1      -2.284  11.504  18.851  0.00  0.00    +0.000 C 
ATOM     19  N   UNL     1      -0.898  11.031  18.943  0.00  0.00    +0.000 NA
ATOM     20  C   UNL     1      -0.583  10.044  17.888  0.00  0.00    +0.000 C 
ATOM     21  C   UNL     1       0.920   9.732  17.932  0.00  0.00    +0.000 C 
ATOM     22  N   UNL     1       1.285   9.297  19.268  0.00  0.00    +0.000 N 
ATOM     23  C   UNL     1       0.899  10.180  20.366  0.00  0.00    +0.000 C 
ATOM     24  C   UNL     1      -0.603  10.460  20.273  0.00  0.00    +0.000 C 
ENDBRANCH  16  22
ENDBRANCH   1  17
TORSDOF 2
ENDMDL
MODEL 7
REMARK VINA RESULT:      -6.6      1.330      3.870
REMARK  Name = 
REMARK  3 active torsions:
REMARK  status: ('A' for Active; 'I' for Inactive)
REMARK    1  A    between atoms: C_1  and  N_2
REMARK    2  A    between atoms: N_5  and  N_6
REMARK    3  A    between atoms: C_7  and  C_8
REMARK                            x       y       z     vdW  Elec       q    Type
REMARK                         _______ _______ _______ _____ _____    ______ ____
ROOT
ATOM      1  C   UNL     1       3.043   6.060  18.821  0.00  0.00    +0.000 A 
ATOM      2  C   UNL     1       2.438   4.971  19.544  0.00  0.00    +0.000 A 
ATOM      3  C   UNL     1       1.097   5.004  20.019  0.00  0.00    +0.000 A 
ATOM      4  C   UNL     1       0.533   3.930  20.703  0.00  0.00    +0.000 A 
ATOM      5  C   UNL     1       1.273   2.785  20.940  0.00  0.00    +0.000 A 
ATOM      6  C   UNL     1       2.582   2.702  20.483  0.00  0.00    +0.000 A 
ATOM      7  C   UNL     1       3.183   3.773  19.779  0.00  0.00    +0.000 A 
ATOM      8  C   UNL     1       4.502   3.643  19.303  0.00  0.00    +0.000 A 
ATOM      9 CL   UNL     1       5.413   2.142  19.601  0.00  0.00    +0.000 Cl
ATOM     10  C   UNL     1       5.100   4.692  18.579  0.00  0.00    +0.000 A 
ATOM     11  C   UNL     1       6.424   4.554  18.095  0.00  0.00    +0.000 A 
ATOM     12  C   UNL     1       7.041   5.577  17.386  0.00  0.00    +0.000 A 
ATOM     13  C   UNL     1       6.362   6.759  17.148  0.00  0.00    +0.000 A 
ATOM     14  C   UNL     1       5.060   6.927  17.610  0.00  0.00    +0.000 A 
ATOM     15  C   UNL     1       4.384   5.900  18.331  0.00  0.00    +0.000 A 
ENDROOT
BRANCH   1  17
ATOM     16  N   UNL     1       1.975   8.196  19.446  0.00  0.00    +0.000 NA
ATOM     17  C   UNL     1       2.309   7.356  18.528  0.00  0.00    +0.000 C 
BRANCH  16  22
ATOM     18  C   UNL     1      -2.285  11.633  18.830  0.00  0.00    +0.000 C 
ATOM     19  N   UNL     1      -0.908  11.131  18.906  0.00  0.00    +0.000 NA
ATOM     20  C   UNL     1      -0.652  10.077  17.901  0.00  0.00    +0.000 C 
ATOM     21  C   UNL     1       0.845   9.730  17.916  0.00  0.00    +0.000 C 
ATOM     22  N   UNL     1       1.243   9.363  19.263  0.00  0.00    +0.000 N 
ATOM     23  C   UNL     1       0.914  10.318  20.319  0.00  0.00    +0.000 C 
ATOM     24  C   UNL     1      -0.583  10.630  20.258  0.00  0.00    +0.000 C 
ENDBRANCH  16  22
ENDBRANCH   1  17
TORSDOF 2
ENDMDL
MODEL 8
REMARK VINA RESULT:      -6.6      3.764      8.616
REMARK  Name = 
REMARK  3 active torsions:
REMARK  status: ('A' for Active; 'I' for Inactive)
REMARK    1  A    between atoms: C_1  and  N_2
REMARK    2  A    between atoms: N_5  and  N_6
REMARK    3  A    between atoms: C_7  and  C_8
REMARK                            x       y       z     vdW  Elec       q    Type
REMARK                         _______ _______ _______ _____ _____    ______ ____
ROOT
ATOM      1  C   UNL     1      -1.074  10.955  19.007  0.00  0.00    +0.000 A 
ATOM      2  C   UNL     1      -2.093  10.928  17.989  0.00  0.00    +0.000 A 
ATOM      3  C   UNL     1      -1.942  10.230  16.757  0.00  0.00    +0.000 A 
ATOM      4  C   UNL     1      -2.950  10.208  15.796  0.00  0.00    +0.000 A 
ATOM      5  C   UNL     1      -4.143  10.872  16.019  0.00  0.00    +0.000 A 
ATOM      6  C   UNL     1      -4.342  11.554  17.212  0.00  0.00    +0.000 A 
ATOM      7  C   UNL     1      -3.341  11.591  18.213  0.00  0.00    +0.000 A 
ATOM      8  C   UNL     1      -3.587  12.266  19.424  0.00  0.00    +0.000 A 
ATOM      9 CL   UNL     1      -5.147  13.084  19.686  0.00  0.00    +0.000 Cl
ATOM     10  C   UNL     1      -2.607  12.287  20.435  0.00  0.00    +0.000 A 
ATOM     11  C   UNL     1      -2.862  12.961  21.654  0.00  0.00    +0.000 A 
ATOM     12  C   UNL     1      -1.911  13.004  22.665  0.00  0.00    +0.000 A 
ATOM     13  C   UNL     1      -0.685  12.387  22.486  0.00  0.00    +0.000 A 
ATOM     14  C   UNL     1      -0.403  11.717  21.299  0.00  0.00    +0.000 A 
ATOM     15  C   UNL     1      -1.353  11.637  20.241  0.00  0.00    +0.000 A 
ENDROOT
BRANCH   1  17
ATOM     16  N   UNL     1       0.478   9.046  19.203  0.00  0.00    +0.000 NA
ATOM     17  C   UNL     1       0.267  10.266  18.842  0.00  0.00    +0.000 C 
BRANCH  16  22
ATOM     18  C   UNL     1       4.220   5.108  18.292  0.00  0.00    +0.000 C 
ATOM     19  N   UNL     1       3.614   6.370  18.732  0.00  0.00    +0.000 NA
ATOM     20  C   UNL     1       2.519   6.145  19.699  0.00  0.00    +0.000 C 
ATOM     21  C   UNL     1       2.056   7.502  20.251  0.00  0.00    +0.000 C 
ATOM     22  N   UNL     1       1.694   8.374  19.148  0.00  0.00    +0.000 N 
ATOM     23  C   UNL     1       2.698   8.547  18.101  0.00  0.00    +0.000 C 
ATOM     24  C   UNL     1       3.124   7.169  17.590  0.00  0.00    +0.000 C 
ENDBRANCH  16  22
ENDBRANCH   1  17
TORSDOF 2
ENDMDL
MODEL 9
REMARK VINA RESULT:      -6.5      3.818      9.005
REMARK  Name = 
REMARK  3 active torsions:
REMARK  status: ('A' for Active; 'I' for Inactive)
REMARK    1  A    between atoms: C_1  and  N_2
REMARK    2  A    between atoms: N_5  and  N_6
REMARK    3  A    between atoms: C_7  and  C_8
REMARK                            x       y       z     vdW  Elec       q    Type
REMARK                         _______ _______ _______ _____ _____    ______ ____
ROOT
ATOM      1  C   UNL     1      -1.239  11.024  19.125  0.00  0.00    +0.000 A 
ATOM      2  C   UNL     1      -1.479  11.779  20.328  0.00  0.00    +0.000 A 
ATOM      3  C   UNL     1      -0.499  11.952  21.346  0.00  0.00    +0.000 A 
ATOM      4  C   UNL     1      -0.754  12.701  22.492  0.00  0.00    +0.000 A 
ATOM      5  C   UNL     1      -1.985  13.307  22.673  0.00  0.00    +0.000 A 
ATOM      6  C   UNL     1      -2.968  13.177  21.700  0.00  0.00    +0.000 A 
ATOM      7  C   UNL     1      -2.739  12.429  20.520  0.00  0.00    +0.000 A 
ATOM      8  C   UNL     1      -3.746  12.344  19.540  0.00  0.00    +0.000 A 
ATOM      9 CL   UNL     1      -5.307  13.163  19.794  0.00  0.00    +0.000 Cl
ATOM     10  C   UNL     1      -3.520  11.624  18.351  0.00  0.00    +0.000 A 
ATOM     11  C   UNL     1      -4.533  11.548  17.365  0.00  0.00    +0.000 A 
ATOM     12  C   UNL     1      -4.338  10.838  16.188  0.00  0.00    +0.000 A 
ATOM     13  C   UNL     1      -3.140  10.182  15.966  0.00  0.00    +0.000 A 
ATOM     14  C   UNL     1      -2.124  10.236  16.916  0.00  0.00    +0.000 A 
ATOM     15  C   UNL     1      -2.275  10.963  18.132  0.00  0.00    +0.000 A 
ENDROOT
BRANCH   1  17
ATOM     16  N   UNL     1       0.387   9.185  19.383  0.00  0.00    +0.000 NA
ATOM     17  C   UNL     1       0.076  10.317  18.852  0.00  0.00    +0.000 C 
BRANCH  16  22
ATOM     18  C   UNL     1       4.083   5.343  17.996  0.00  0.00    +0.000 C 
ATOM     19  N   UNL     1       3.495   6.556  18.577  0.00  0.00    +0.000 NA
ATOM     20  C   UNL     1       2.415   6.236  19.535  0.00  0.00    +0.000 C 
ATOM     21  C   UNL     1       1.972   7.531  20.234  0.00  0.00    +0.000 C 
ATOM     22  N   UNL     1       1.597   8.515  19.236  0.00  0.00    +0.000 N 
ATOM     23  C   UNL     1       2.583   8.791  18.193  0.00  0.00    +0.000 C 
ATOM     24  C   UNL     1       2.990   7.471  17.533  0.00  0.00    +0.000 C 
ENDBRANCH  16  22
ENDBRANCH   1  17
TORSDOF 2
ENDMDL
