MODEL 1
REMARK VINA RESULT:      -7.1      0.000      0.000
REMARK  Name = 
REMARK  2 active torsions:
REMARK  status: ('A' for Active; 'I' for Inactive)
REMARK    1  A    between atoms: C_2  and  C_3
REMARK    2  A    between atoms: C_3  and  N_4
REMARK                            x       y       z     vdW  Elec       q    Type
REMARK                         _______ _______ _______ _____ _____    ______ ____
ROOT
ATOM      1  O   UNL     1       3.698   2.443  17.175  0.00  0.00    +0.000 OA
ATOM      2  C   UNL     1       3.906   3.509  17.792  0.00  0.00    +0.000 C 
ATOM      3  N   UNL     1       2.760   4.163  18.340  0.00  0.00    +0.000 N 
ATOM      4  C   UNL     1       1.546   3.326  18.381  0.00  0.00    +0.000 C 
ATOM      5  C   UNL     1       1.232   2.991  19.835  0.00  0.00    +0.000 C 
ATOM      6  C   UNL     1       0.826   4.257  20.560  0.00  0.00    +0.000 C 
ATOM      7  C   UNL     1       1.707   5.432  20.207  0.00  0.00    +0.000 A 
ATOM      8  C   UNL     1       1.413   6.629  20.911  0.00  0.00    +0.000 A 
ATOM      9  C   UNL     1       1.698   7.854  20.341  0.00  0.00    +0.000 A 
ATOM     10  C   UNL     1       2.157   7.860  19.031  0.00  0.00    +0.000 A 
ATOM     11  C   UNL     1       2.511   6.650  18.376  0.00  0.00    +0.000 A 
ATOM     12  C   UNL     1       2.500   5.416  19.027  0.00  0.00    +0.000 A 
ENDROOT
BRANCH   2  13
ATOM     13  C   UNL     1       5.445   3.793  18.058  0.00  0.00    +0.000 C 
BRANCH  13  14
ATOM     14  N   UNL     1       6.203   4.295  16.855  0.00  0.00    +0.000 NA
ATOM     15  C   UNL     1       7.497   4.985  17.118  0.00  0.00    +0.000 C 
ATOM     16  C   UNL     1       7.444   6.507  17.416  0.00  0.00    +0.000 C 
ATOM     17  O   UNL     1       6.612   7.242  16.510  0.00  0.00    +0.000 OA
ATOM     18  C   UNL     1       5.322   6.640  16.415  0.00  0.00    +0.000 C 
ATOM     19  C   UNL     1       5.454   5.186  15.938  0.00  0.00    +0.000 C 
ENDBRANCH  13  14
ENDBRANCH   2  13
TORSDOF 2
ENDMDL
MODEL 2
REMARK VINA RESULT:      -7.0      1.089      1.482
REMARK  Name = 
REMARK  2 active torsions:
REMARK  status: ('A' for Active; 'I' for Inactive)
REMARK    1  A    between atoms: C_2  and  C_3
REMARK    2  A    between atoms: C_3  and  N_4
REMARK                            x       y       z     vdW  Elec       q    Type
REMARK                         _______ _______ _______ _____ _____    ______ ____
ROOT
ATOM      1  O   UNL     1       2.761   2.296  17.105  0.00  0.00    +0.000 OA
ATOM      2  C   UNL     1       3.166   3.458  17.321  0.00  0.00    +0.000 C 
ATOM      3  N   UNL     1       2.315   4.293  18.110  0.00  0.00    +0.000 N 
ATOM      4  C   UNL     1       1.246   3.568  18.823  0.00  0.00    +0.000 C 
ATOM      5  C   UNL     1       1.551   3.592  20.316  0.00  0.00    +0.000 C 
ATOM      6  C   UNL     1       1.430   5.013  20.826  0.00  0.00    +0.000 C 
ATOM      7  C   UNL     1       2.059   6.018  19.889  0.00  0.00    +0.000 A 
ATOM      8  C   UNL     1       2.034   7.359  20.351  0.00  0.00    +0.000 A 
ATOM      9  C   UNL     1       2.029   8.402  19.447  0.00  0.00    +0.000 A 
ATOM     10  C   UNL     1       1.925   8.082  18.100  0.00  0.00    +0.000 A 
ATOM     11  C   UNL     1       2.025   6.735  17.660  0.00  0.00    +0.000 A 
ATOM     12  C   UNL     1       2.313   5.683  18.530  0.00  0.00    +0.000 A 
ENDROOT
BRANCH   2  13
ATOM     13  C   UNL     1       4.672   3.693  16.882  0.00  0.00    +0.000 C 
BRANCH  13  14
ATOM     14  N   UNL     1       4.889   4.912  16.023  0.00  0.00    +0.000 NA
ATOM     15  C   UNL     1       5.633   4.713  14.748  0.00  0.00    +0.000 C 
ATOM     16  C   UNL     1       7.183   4.781  14.810  0.00  0.00    +0.000 C 
ATOM     17  O   UNL     1       7.680   5.897  15.558  0.00  0.00    +0.000 OA
ATOM     18  C   UNL     1       7.060   5.955  16.842  0.00  0.00    +0.000 C 
ATOM     19  C   UNL     1       5.536   6.070  16.686  0.00  0.00    +0.000 C 
ENDBRANCH  13  14
ENDBRANCH   2  13
TORSDOF 2
ENDMDL
MODEL 3
REMARK VINA RESULT:      -6.9      0.953      1.424
REMARK  Name = 
REMARK  2 active torsions:
REMARK  status: ('A' for Active; 'I' for Inactive)
REMARK    1  A    between atoms: C_2  and  C_3
REMARK    2  A    between atoms: C_3  and  N_4
REMARK                            x       y       z     vdW  Elec       q    Type
REMARK                         _______ _______ _______ _____ _____    ______ ____
ROOT
ATOM      1  O   UNL     1       4.343   3.066  17.307  0.00  0.00    +0.000 OA
ATOM      2  C   UNL     1       4.367   4.058  18.067  0.00  0.00    +0.000 C 
ATOM      3  N   UNL     1       3.101   4.561  18.499  0.00  0.00    +0.000 N 
ATOM      4  C   UNL     1       1.969   3.647  18.252  0.00  0.00    +0.000 C 
ATOM      5  C   UNL     1       1.472   3.113  19.590  0.00  0.00    +0.000 C 
ATOM      6  C   UNL     1       0.857   4.248  20.382  0.00  0.00    +0.000 C 
ATOM      7  C   UNL     1       1.679   5.514  20.308  0.00  0.00    +0.000 A 
ATOM      8  C   UNL     1       1.184   6.591  21.089  0.00  0.00    +0.000 A 
ATOM      9  C   UNL     1       1.445   7.894  20.714  0.00  0.00    +0.000 A 
ATOM     10  C   UNL     1       2.092   8.095  19.503  0.00  0.00    +0.000 A 
ATOM     11  C   UNL     1       2.641   7.002  18.778  0.00  0.00    +0.000 A 
ATOM     12  C   UNL     1       2.637   5.699  19.274  0.00  0.00    +0.000 A 
ENDROOT
BRANCH   2  13
ATOM     13  C   UNL     1       5.819   4.407  18.603  0.00  0.00    +0.000 C 
BRANCH  13  14
ATOM     14  N   UNL     1       6.563   5.423  17.774  0.00  0.00    +0.000 NA
ATOM     15  C   UNL     1       5.745   6.473  17.106  0.00  0.00    +0.000 C 
ATOM     16  C   UNL     1       5.149   6.134  15.713  0.00  0.00    +0.000 C 
ATOM     17  O   UNL     1       6.089   5.528  14.818  0.00  0.00    +0.000 OA
ATOM     18  C   UNL     1       6.733   4.419  15.443  0.00  0.00    +0.000 C 
ATOM     19  C   UNL     1       7.452   4.879  16.720  0.00  0.00    +0.000 C 
ENDBRANCH  13  14
ENDBRANCH   2  13
TORSDOF 2
ENDMDL
MODEL 4
REMARK VINA RESULT:      -6.7      2.161      5.616
REMARK  Name = 
REMARK  2 active torsions:
REMARK  status: ('A' for Active; 'I' for Inactive)
REMARK    1  A    between atoms: C_2  and  C_3
REMARK    2  A    between atoms: C_3  and  N_4
REMARK                            x       y       z     vdW  Elec       q    Type
REMARK                         _______ _______ _______ _____ _____    ______ ____
ROOT
ATOM      1  O   UNL     1       2.846   2.908  16.646  0.00  0.00    +0.000 OA
ATOM      2  C   UNL     1       3.344   3.811  17.352  0.00  0.00    +0.000 C 
ATOM      3  N   UNL     1       4.701   4.162  17.072  0.00  0.00    +0.000 N 
ATOM      4  C   UNL     1       5.210   3.642  15.788  0.00  0.00    +0.000 C 
ATOM      5  C   UNL     1       5.402   4.811  14.829  0.00  0.00    +0.000 C 
ATOM      6  C   UNL     1       6.524   5.692  15.336  0.00  0.00    +0.000 C 
ATOM      7  C   UNL     1       6.453   5.916  16.829  0.00  0.00    +0.000 A 
ATOM      8  C   UNL     1       7.443   6.791  17.347  0.00  0.00    +0.000 A 
ATOM      9  C   UNL     1       7.866   6.658  18.655  0.00  0.00    +0.000 A 
ATOM     10  C   UNL     1       7.380   5.579  19.379  0.00  0.00    +0.000 A 
ATOM     11  C   UNL     1       6.337   4.763  18.863  0.00  0.00    +0.000 A 
ATOM     12  C   UNL     1       5.694   5.045  17.658  0.00  0.00    +0.000 A 
ENDROOT
BRANCH   2  13
ATOM     13  C   UNL     1       2.280   4.564  18.256  0.00  0.00    +0.000 C 
BRANCH  13  14
ATOM     14  N   UNL     1       1.515   3.668  19.197  0.00  0.00    +0.000 NA
ATOM     15  C   UNL     1       1.116   4.253  20.507  0.00  0.00    +0.000 C 
ATOM     16  C   UNL     1       2.148   4.178  21.664  0.00  0.00    +0.000 C 
ATOM     17  O   UNL     1       2.758   2.890  21.809  0.00  0.00    +0.000 OA
ATOM     18  C   UNL     1       3.276   2.437  20.559  0.00  0.00    +0.000 C 
ATOM     19  C   UNL     1       2.151   2.367  19.517  0.00  0.00    +0.000 C 
ENDBRANCH  13  14
ENDBRANCH   2  13
TORSDOF 2
ENDMDL
MODEL 5
REMARK VINA RESULT:      -6.7      2.121      5.615
REMARK  Name = 
REMARK  2 active torsions:
REMARK  status: ('A' for Active; 'I' for Inactive)
REMARK    1  A    between atoms: C_2  and  C_3
REMARK    2  A    between atoms: C_3  and  N_4
REMARK                            x       y       z     vdW  Elec       q    Type
REMARK                         _______ _______ _______ _____ _____    ______ ____
ROOT
ATOM      1  O   UNL     1       3.235   2.640  17.036  0.00  0.00    +0.000 OA
ATOM      2  C   UNL     1       3.673   3.663  17.604  0.00  0.00    +0.000 C 
ATOM      3  N   UNL     1       4.983   4.091  17.226  0.00  0.00    +0.000 N 
ATOM      4  C   UNL     1       5.494   3.461  15.993  0.00  0.00    +0.000 C 
ATOM      5  C   UNL     1       5.548   4.514  14.893  0.00  0.00    +0.000 C 
ATOM      6  C   UNL     1       6.603   5.544  15.239  0.00  0.00    +0.000 C 
ATOM      7  C   UNL     1       6.560   5.945  16.696  0.00  0.00    +0.000 A 
ATOM      8  C   UNL     1       7.483   6.959  17.061  0.00  0.00    +0.000 A 
ATOM      9  C   UNL     1       7.959   7.027  18.355  0.00  0.00    +0.000 A 
ATOM     10  C   UNL     1       7.596   6.009  19.226  0.00  0.00    +0.000 A 
ATOM     11  C   UNL     1       6.615   5.049  18.858  0.00  0.00    +0.000 A 
ATOM     12  C   UNL     1       5.910   5.122  17.657  0.00  0.00    +0.000 A 
ENDROOT
BRANCH   2  13
ATOM     13  C   UNL     1       2.575   4.429  18.456  0.00  0.00    +0.000 C 
BRANCH  13  14
ATOM     14  N   UNL     1       2.919   4.591  19.915  0.00  0.00    +0.000 NA
ATOM     15  C   UNL     1       3.883   3.613  20.491  0.00  0.00    +0.000 C 
ATOM     16  C   UNL     1       3.306   2.276  21.028  0.00  0.00    +0.000 C 
ATOM     17  O   UNL     1       2.143   2.439  21.849  0.00  0.00    +0.000 OA
ATOM     18  C   UNL     1       1.173   3.250  21.188  0.00  0.00    +0.000 C 
ATOM     19  C   UNL     1       1.773   4.623  20.855  0.00  0.00    +0.000 C 
ENDBRANCH  13  14
ENDBRANCH   2  13
TORSDOF 2
ENDMDL
MODEL 6
REMARK VINA RESULT:      -6.7      1.738      5.065
REMARK  Name = 
REMARK  2 active torsions:
REMARK  status: ('A' for Active; 'I' for Inactive)
REMARK    1  A    between atoms: C_2  and  C_3
REMARK    2  A    between atoms: C_3  and  N_4
REMARK                            x       y       z     vdW  Elec       q    Type
REMARK                         _______ _______ _______ _____ _____    ______ ____
ROOT
ATOM      1  O   UNL     1       3.844   2.286  17.862  0.00  0.00    +0.000 OA
ATOM      2  C   UNL     1       4.268   3.331  18.402  0.00  0.00    +0.000 C 
ATOM      3  N   UNL     1       5.278   4.050  17.691  0.00  0.00    +0.000 N 
ATOM      4  C   UNL     1       5.440   3.638  16.284  0.00  0.00    +0.000 C 
ATOM      5  C   UNL     1       4.937   4.761  15.385  0.00  0.00    +0.000 C 
ATOM      6  C   UNL     1       5.855   5.957  15.521  0.00  0.00    +0.000 C 
ATOM      7  C   UNL     1       6.242   6.226  16.957  0.00  0.00    +0.000 A 
ATOM      8  C   UNL     1       7.047   7.379  17.151  0.00  0.00    +0.000 A 
ATOM      9  C   UNL     1       7.915   7.444  18.223  0.00  0.00    +0.000 A 
ATOM     10  C   UNL     1       8.048   6.308  19.009  0.00  0.00    +0.000 A 
ATOM     11  C   UNL     1       7.179   5.196  18.839  0.00  0.00    +0.000 A 
ATOM     12  C   UNL     1       6.107   5.214  17.948  0.00  0.00    +0.000 A 
ENDROOT
BRANCH   2  13
ATOM     13  C   UNL     1       3.411   3.783  19.658  0.00  0.00    +0.000 C 
BRANCH  13  14
ATOM     14  N   UNL     1       2.127   4.494  19.315  0.00  0.00    +0.000 NA
ATOM     15  C   UNL     1       2.125   5.314  18.072  0.00  0.00    +0.000 C 
ATOM     16  C   UNL     1       2.620   6.781  18.186  0.00  0.00    +0.000 C 
ATOM     17  O   UNL     1       2.070   7.489  19.304  0.00  0.00    +0.000 OA
ATOM     18  C   UNL     1       2.242   6.738  20.506  0.00  0.00    +0.000 C 
ATOM     19  C   UNL     1       1.563   5.367  20.372  0.00  0.00    +0.000 C 
ENDBRANCH  13  14
ENDBRANCH   2  13
TORSDOF 2
ENDMDL
MODEL 7
REMARK VINA RESULT:      -6.6      3.552      6.430
REMARK  Name = 
REMARK  2 active torsions:
REMARK  status: ('A' for Active; 'I' for Inactive)
REMARK    1  A    between atoms: C_2  and  C_3
REMARK    2  A    between atoms: C_3  and  N_4
REMARK                            x       y       z     vdW  Elec       q    Type
REMARK                         _______ _______ _______ _____ _____    ______ ____
ROOT
ATOM      1  O   UNL     1       2.220   8.397  18.500  0.00  0.00    +0.000 OA
ATOM      2  C   UNL     1       2.025   7.618  19.458  0.00  0.00    +0.000 C 
ATOM      3  N   UNL     1       2.367   6.247  19.243  0.00  0.00    +0.000 N 
ATOM      4  C   UNL     1       3.198   6.009  18.047  0.00  0.00    +0.000 C 
ATOM      5  C   UNL     1       4.596   5.603  18.496  0.00  0.00    +0.000 C 
ATOM      6  C   UNL     1       4.530   4.248  19.169  0.00  0.00    +0.000 C 
ATOM      7  C   UNL     1       3.348   4.125  20.103  0.00  0.00    +0.000 A 
ATOM      8  C   UNL     1       3.276   2.897  20.812  0.00  0.00    +0.000 A 
ATOM      9  C   UNL     1       2.052   2.409  21.226  0.00  0.00    +0.000 A 
ATOM     10  C   UNL     1       0.917   3.095  20.816  0.00  0.00    +0.000 A 
ATOM     11  C   UNL     1       1.020   4.357  20.171  0.00  0.00    +0.000 A 
ATOM     12  C   UNL     1       2.240   5.009  19.991  0.00  0.00    +0.000 A 
ENDROOT
BRANCH   2  13
ATOM     13  C   UNL     1       1.669   8.362  20.813  0.00  0.00    +0.000 C 
BRANCH  13  14
ATOM     14  N   UNL     1       0.260   8.893  20.881  0.00  0.00    +0.000 NA
ATOM     15  C   UNL     1       0.067  10.332  20.551  0.00  0.00    +0.000 C 
ATOM     16  C   UNL     1       0.249  11.358  21.701  0.00  0.00    +0.000 C 
ATOM     17  O   UNL     1      -0.417  10.986  22.914  0.00  0.00    +0.000 OA
ATOM     18  C   UNL     1      -0.074   9.652  23.286  0.00  0.00    +0.000 C 
ATOM     19  C   UNL     1      -0.455   8.677  22.162  0.00  0.00    +0.000 C 
ENDBRANCH  13  14
ENDBRANCH   2  13
TORSDOF 2
ENDMDL
MODEL 8
REMARK VINA RESULT:      -6.5      1.401      1.740
REMARK  Name = 
REMARK  2 active torsions:
REMARK  status: ('A' for Active; 'I' for Inactive)
REMARK    1  A    between atoms: C_2  and  C_3
REMARK    2  A    between atoms: C_3  and  N_4
REMARK                            x       y       z     vdW  Elec       q    Type
REMARK                         _______ _______ _______ _____ _____    ______ ____
ROOT
ATOM      1  O   UNL     1       5.055   3.212  19.288  0.00  0.00    +0.000 OA
ATOM      2  C   UNL     1       4.998   4.460  19.255  0.00  0.00    +0.000 C 
ATOM      3  N   UNL     1       3.692   5.039  19.248  0.00  0.00    +0.000 N 
ATOM      4  C   UNL     1       2.611   4.102  19.609  0.00  0.00    +0.000 C 
ATOM      5  C   UNL     1       2.060   4.494  20.975  0.00  0.00    +0.000 C 
ATOM      6  C   UNL     1       1.359   5.832  20.863  0.00  0.00    +0.000 C 
ATOM      7  C   UNL     1       2.135   6.822  20.025  0.00  0.00    +0.000 A 
ATOM      8  C   UNL     1       1.556   8.115  19.944  0.00  0.00    +0.000 A 
ATOM      9  C   UNL     1       1.789   8.908  18.838  0.00  0.00    +0.000 A 
ATOM     10  C   UNL     1       2.495   8.346  17.783  0.00  0.00    +0.000 A 
ATOM     11  C   UNL     1       3.125   7.079  17.919  0.00  0.00    +0.000 A 
ATOM     12  C   UNL     1       3.143   6.378  19.125  0.00  0.00    +0.000 A 
ENDROOT
BRANCH   2  13
ATOM     13  C   UNL     1       6.404   5.161  19.481  0.00  0.00    +0.000 C 
BRANCH  13  14
ATOM     14  N   UNL     1       7.243   5.292  18.235  0.00  0.00    +0.000 NA
ATOM     15  C   UNL     1       7.532   6.675  17.762  0.00  0.00    +0.000 C 
ATOM     16  C   UNL     1       6.484   7.343  16.832  0.00  0.00    +0.000 C 
ATOM     17  O   UNL     1       6.029   6.492  15.773  0.00  0.00    +0.000 OA
ATOM     18  C   UNL     1       5.604   5.232  16.291  0.00  0.00    +0.000 C 
ATOM     19  C   UNL     1       6.759   4.555  17.043  0.00  0.00    +0.000 C 
ENDBRANCH  13  14
ENDBRANCH   2  13
TORSDOF 2
ENDMDL
MODEL 9
REMARK VINA RESULT:      -6.5      2.088      5.190
REMARK  Name = 
REMARK  2 active torsions:
REMARK  status: ('A' for Active; 'I' for Inactive)
REMARK    1  A    between atoms: C_2  and  C_3
REMARK    2  A    between atoms: C_3  and  N_4
REMARK                            x       y       z     vdW  Elec       q    Type
REMARK                         _______ _______ _______ _____ _____    ______ ____
ROOT
ATOM      1  O   UNL     1       2.386   3.496  16.994  0.00  0.00    +0.000 OA
ATOM      2  C   UNL     1       3.024   4.406  17.567  0.00  0.00    +0.000 C 
ATOM      3  N   UNL     1       4.428   4.461  17.305  0.00  0.00    +0.000 N 
ATOM      4  C   UNL     1       4.863   3.649  16.153  0.00  0.00    +0.000 C 
ATOM      5  C   UNL     1       5.284   4.585  15.026  0.00  0.00    +0.000 C 
ATOM      6  C   UNL     1       6.536   5.329  15.440  0.00  0.00    +0.000 C 
ATOM      7  C   UNL     1       6.474   5.814  16.869  0.00  0.00    +0.000 A 
ATOM      8  C   UNL     1       7.594   6.578  17.288  0.00  0.00    +0.000 A 
ATOM      9  C   UNL     1       7.957   6.599  18.620  0.00  0.00    +0.000 A 
ATOM     10  C   UNL     1       7.268   5.762  19.486  0.00  0.00    +0.000 A 
ATOM     11  C   UNL     1       6.106   5.064  19.057  0.00  0.00    +0.000 A 
ATOM     12  C   UNL     1       5.551   5.244  17.790  0.00  0.00    +0.000 A 
ENDROOT
BRANCH   2  13
ATOM     13  C   UNL     1       2.094   5.476  18.279  0.00  0.00    +0.000 C 
BRANCH  13  14
ATOM     14  N   UNL     1       2.832   6.659  18.854  0.00  0.00    +0.000 NA
ATOM     15  C   UNL     1       2.308   7.222  20.129  0.00  0.00    +0.000 C 
ATOM     16  C   UNL     1       1.180   8.284  20.029  0.00  0.00    +0.000 C 
ATOM     17  O   UNL     1       1.432   9.300  19.051  0.00  0.00    +0.000 OA
ATOM     18  C   UNL     1       1.770   8.713  17.794  0.00  0.00    +0.000 C 
ATOM     19  C   UNL     1       3.009   7.819  17.948  0.00  0.00    +0.000 C 
ENDBRANCH  13  14
ENDBRANCH   2  13
TORSDOF 2
ENDMDL
