MODEL 1
REMARK VINA RESULT:      -7.6      0.000      0.000
REMARK  Name = 
REMARK  10 active torsions:
REMARK  status: ('A' for Active; 'I' for Inactive)
REMARK    1  A    between atoms: C_1  and  O_2
REMARK    2  A    between atoms: O_2  and  C_3
REMARK    3  A    between atoms: C_5  and  C_6
REMARK    4  A    between atoms: C_6  and  C_7
REMARK    5  A    between atoms: C_6  and  C_8
REMARK    6  A    between atoms: C_9  and  O_10
REMARK    7  A    between atoms: O_10  and  C_11
REMARK    8  A    between atoms: C_17  and  N_18
REMARK    9  A    between atoms: C_20  and  N_21
REMARK   10  A    between atoms: C_22  and  C_23
REMARK                            x       y       z     vdW  Elec       q    Type
REMARK                         _______ _______ _______ _____ _____    ______ ____
ROOT
ATOM      1  C   UNL     1       6.938   5.277  14.407  0.00  0.00    +0.000 A 
ATOM      2  C   UNL     1       7.180   6.049  15.555  0.00  0.00    +0.000 A 
ATOM      3  C   UNL     1       6.795   5.621  16.835  0.00  0.00    +0.000 A 
ATOM      4  C   UNL     1       6.103   4.405  16.928  0.00  0.00    +0.000 A 
ATOM      5  C   UNL     1       5.906   3.613  15.784  0.00  0.00    +0.000 A 
ATOM      6  C   UNL     1       6.405   3.986  14.537  0.00  0.00    +0.000 A 
ENDROOT
BRANCH   6   7
ATOM      7  N   UNL     1       6.411   3.105  13.421  0.00  0.00    +0.000 N 
ATOM      8  C   UNL     1       5.466   3.073  12.409  0.00  0.00    +0.000 C 
ATOM      9  C   UNL     1       5.612   1.919  11.446  0.00  0.00    +0.000 C 
ATOM     10  O   UNL     1       4.547   3.874  12.241  0.00  0.00    +0.000 OA
ATOM     11  H   UNL     1       7.074   2.340  13.490  0.00  0.00    +0.000 HD
ENDBRANCH   6   7
BRANCH   3  12
ATOM     12  C   UNL     1       7.126   6.537  18.005  0.00  0.00    +0.000 C 
ATOM     13  C   UNL     1       7.972   5.807  19.046  0.00  0.00    +0.000 C 
ATOM     14  C   UNL     1       7.748   7.885  17.632  0.00  0.00    +0.000 C 
ENDBRANCH   3  12
BRANCH   1  16
ATOM     15  C   UNL     1       8.632   5.795  12.879  0.00  0.00    +0.000 C 
ATOM     16  O   UNL     1       7.223   5.756  13.146  0.00  0.00    +0.000 OA
ENDBRANCH   1  16
BRANCH   4  17
ATOM     17  O   UNL     1       5.558   4.055  18.144  0.00  0.00    +0.000 OA
BRANCH  17  18
ATOM     18  C   UNL     1       4.284   3.560  18.193  0.00  0.00    +0.000 A 
ATOM     19  C   UNL     1       3.243   3.967  17.386  0.00  0.00    +0.000 A 
ATOM     20  N   UNL     1       2.000   3.452  17.453  0.00  0.00    +0.000 NA
ATOM     21  C   UNL     1       1.809   2.496  18.364  0.00  0.00    +0.000 A 
ATOM     22  N   UNL     1       0.542   1.958  18.447  0.00  0.00    +0.000 N 
ATOM     23  N   UNL     1       2.758   1.980  19.152  0.00  0.00    +0.000 NA
ATOM     24  C   UNL     1       3.984   2.524  19.063  0.00  0.00    +0.000 A 
ATOM     25  H   UNL     1       0.052   2.137  17.580  0.00  0.00    +0.000 HD
ATOM     26  H   UNL     1       0.597   1.001  18.764  0.00  0.00    +0.000 HD
BRANCH  24  27
ATOM     27  N   UNL     1       4.968   1.944  19.872  0.00  0.00    +0.000 N 
ATOM     28  H   UNL     1       4.591   1.870  20.813  0.00  0.00    +0.000 HD
ATOM     29  H   UNL     1       5.835   2.469  19.832  0.00  0.00    +0.000 HD
ENDBRANCH  24  27
ENDBRANCH  17  18
ENDBRANCH   4  17
TORSDOF 6
ENDMDL
MODEL 2
REMARK VINA RESULT:      -7.1      4.506      7.546
REMARK  Name = 
REMARK  10 active torsions:
REMARK  status: ('A' for Active; 'I' for Inactive)
REMARK    1  A    between atoms: C_1  and  O_2
REMARK    2  A    between atoms: O_2  and  C_3
REMARK    3  A    between atoms: C_5  and  C_6
REMARK    4  A    between atoms: C_6  and  C_7
REMARK    5  A    between atoms: C_6  and  C_8
REMARK    6  A    between atoms: C_9  and  O_10
REMARK    7  A    between atoms: O_10  and  C_11
REMARK    8  A    between atoms: C_17  and  N_18
REMARK    9  A    between atoms: C_20  and  N_21
REMARK   10  A    between atoms: C_22  and  C_23
REMARK                            x       y       z     vdW  Elec       q    Type
REMARK                         _______ _______ _______ _____ _____    ______ ____
ROOT
ATOM      1  C   UNL     1       1.490   7.553  20.638  0.00  0.00    +0.000 A 
ATOM      2  C   UNL     1       1.627   6.173  20.855  0.00  0.00    +0.000 A 
ATOM      3  C   UNL     1       2.130   5.310  19.869  0.00  0.00    +0.000 A 
ATOM      4  C   UNL     1       2.444   5.868  18.622  0.00  0.00    +0.000 A 
ATOM      5  C   UNL     1       2.351   7.257  18.424  0.00  0.00    +0.000 A 
ATOM      6  C   UNL     1       1.974   8.122  19.449  0.00  0.00    +0.000 A 
ENDROOT
BRANCH   6   7
ATOM      7  N   UNL     1       2.086   9.535  19.339  0.00  0.00    +0.000 N 
ATOM      8  C   UNL     1       1.172  10.374  18.724  0.00  0.00    +0.000 C 
ATOM      9  C   UNL     1       1.624  11.808  18.586  0.00  0.00    +0.000 C 
ATOM     10  O   UNL     1       0.065  10.057  18.290  0.00  0.00    +0.000 OA
ATOM     11  H   UNL     1       2.997   9.907  19.585  0.00  0.00    +0.000 HD
ENDBRANCH   6   7
BRANCH   3  12
ATOM     12  C   UNL     1       2.247   3.835  20.228  0.00  0.00    +0.000 C 
ATOM     13  C   UNL     1       2.316   3.648  21.743  0.00  0.00    +0.000 C 
ATOM     14  C   UNL     1       1.193   2.918  19.604  0.00  0.00    +0.000 C 
ENDBRANCH   3  12
BRANCH   1  16
ATOM     15  C   UNL     1      -0.537   8.341  21.501  0.00  0.00    +0.000 C 
ATOM     16  O   UNL     1       0.896   8.373  21.573  0.00  0.00    +0.000 OA
ENDBRANCH   1  16
BRANCH   4  17
ATOM     17  O   UNL     1       2.764   5.016  17.587  0.00  0.00    +0.000 OA
BRANCH  17  18
ATOM     18  C   UNL     1       3.989   5.118  16.986  0.00  0.00    +0.000 A 
ATOM     19  C   UNL     1       4.543   6.286  16.507  0.00  0.00    +0.000 A 
ATOM     20  N   UNL     1       5.758   6.353  15.928  0.00  0.00    +0.000 NA
ATOM     21  C   UNL     1       6.429   5.204  15.833  0.00  0.00    +0.000 A 
ATOM     22  N   UNL     1       7.673   5.256  15.242  0.00  0.00    +0.000 N 
ATOM     23  N   UNL     1       6.017   4.028  16.320  0.00  0.00    +0.000 NA
ATOM     24  C   UNL     1       4.797   3.997  16.883  0.00  0.00    +0.000 A 
ATOM     25  H   UNL     1       8.016   6.206  15.280  0.00  0.00    +0.000 HD
ATOM     26  H   UNL     1       8.262   4.530  15.623  0.00  0.00    +0.000 HD
BRANCH  24  27
ATOM     27  N   UNL     1       4.404   2.764  17.417  0.00  0.00    +0.000 N 
ATOM     28  H   UNL     1       4.059   2.192  16.651  0.00  0.00    +0.000 HD
ATOM     29  H   UNL     1       3.724   2.884  18.160  0.00  0.00    +0.000 HD
ENDBRANCH  24  27
ENDBRANCH  17  18
ENDBRANCH   4  17
TORSDOF 6
ENDMDL
MODEL 3
REMARK VINA RESULT:      -7.0      2.851      6.845
REMARK  Name = 
REMARK  10 active torsions:
REMARK  status: ('A' for Active; 'I' for Inactive)
REMARK    1  A    between atoms: C_1  and  O_2
REMARK    2  A    between atoms: O_2  and  C_3
REMARK    3  A    between atoms: C_5  and  C_6
REMARK    4  A    between atoms: C_6  and  C_7
REMARK    5  A    between atoms: C_6  and  C_8
REMARK    6  A    between atoms: C_9  and  O_10
REMARK    7  A    between atoms: O_10  and  C_11
REMARK    8  A    between atoms: C_17  and  N_18
REMARK    9  A    between atoms: C_20  and  N_21
REMARK   10  A    between atoms: C_22  and  C_23
REMARK                            x       y       z     vdW  Elec       q    Type
REMARK                         _______ _______ _______ _____ _____    ______ ____
ROOT
ATOM      1  C   UNL     1       3.363   3.069  20.630  0.00  0.00    +0.000 A 
ATOM      2  C   UNL     1       2.850   4.339  20.323  0.00  0.00    +0.000 A 
ATOM      3  C   UNL     1       3.490   5.203  19.421  0.00  0.00    +0.000 A 
ATOM      4  C   UNL     1       4.705   4.774  18.868  0.00  0.00    +0.000 A 
ATOM      5  C   UNL     1       5.190   3.482  19.140  0.00  0.00    +0.000 A 
ATOM      6  C   UNL     1       4.482   2.584  19.936  0.00  0.00    +0.000 A 
ENDROOT
BRANCH   6   7
ATOM      7  N   UNL     1       4.838   1.212  20.043  0.00  0.00    +0.000 N 
ATOM      8  C   UNL     1       5.610   0.651  21.047  0.00  0.00    +0.000 C 
ATOM      9  C   UNL     1       5.989  -0.792  20.820  0.00  0.00    +0.000 C 
ATOM     10  O   UNL     1       6.003   1.215  22.068  0.00  0.00    +0.000 OA
ATOM     11  H   UNL     1       4.642   0.658  19.215  0.00  0.00    +0.000 HD
ENDBRANCH   6   7
BRANCH   3  12
ATOM     12  C   UNL     1       2.829   6.549  19.157  0.00  0.00    +0.000 C 
ATOM     13  C   UNL     1       2.130   6.554  17.799  0.00  0.00    +0.000 C 
ATOM     14  C   UNL     1       1.899   7.055  20.262  0.00  0.00    +0.000 C 
ENDBRANCH   3  12
BRANCH   1  16
ATOM     15  C   UNL     1       1.415   2.622  21.846  0.00  0.00    +0.000 C 
ATOM     16  O   UNL     1       2.784   2.274  21.597  0.00  0.00    +0.000 OA
ENDBRANCH   1  16
BRANCH   4  17
ATOM     17  O   UNL     1       5.439   5.674  18.127  0.00  0.00    +0.000 OA
BRANCH  17  18
ATOM     18  C   UNL     1       5.823   5.343  16.856  0.00  0.00    +0.000 A 
ATOM     19  C   UNL     1       5.123   4.513  16.007  0.00  0.00    +0.000 A 
ATOM     20  N   UNL     1       5.525   4.215  14.756  0.00  0.00    +0.000 NA
ATOM     21  C   UNL     1       6.667   4.775  14.355  0.00  0.00    +0.000 A 
ATOM     22  N   UNL     1       7.093   4.478  13.078  0.00  0.00    +0.000 N 
ATOM     23  N   UNL     1       7.392   5.643  15.069  0.00  0.00    +0.000 NA
ATOM     24  C   UNL     1       6.965   5.911  16.315  0.00  0.00    +0.000 A 
ATOM     25  H   UNL     1       6.303   4.156  12.535  0.00  0.00    +0.000 HD
ATOM     26  H   UNL     1       7.630   5.250  12.710  0.00  0.00    +0.000 HD
BRANCH  24  27
ATOM     27  N   UNL     1       7.720   6.850  17.029  0.00  0.00    +0.000 N 
ATOM     28  H   UNL     1       8.225   6.351  17.757  0.00  0.00    +0.000 HD
ATOM     29  H   UNL     1       7.134   7.595  17.391  0.00  0.00    +0.000 HD
ENDBRANCH  24  27
ENDBRANCH  17  18
ENDBRANCH   4  17
TORSDOF 6
ENDMDL
MODEL 4
REMARK VINA RESULT:      -7.0      1.445      1.899
REMARK  Name = 
REMARK  10 active torsions:
REMARK  status: ('A' for Active; 'I' for Inactive)
REMARK    1  A    between atoms: C_1  and  O_2
REMARK    2  A    between atoms: O_2  and  C_3
REMARK    3  A    between atoms: C_5  and  C_6
REMARK    4  A    between atoms: C_6  and  C_7
REMARK    5  A    between atoms: C_6  and  C_8
REMARK    6  A    between atoms: C_9  and  O_10
REMARK    7  A    between atoms: O_10  and  C_11
REMARK    8  A    between atoms: C_17  and  N_18
REMARK    9  A    between atoms: C_20  and  N_21
REMARK   10  A    between atoms: C_22  and  C_23
REMARK                            x       y       z     vdW  Elec       q    Type
REMARK                         _______ _______ _______ _____ _____    ______ ____
ROOT
ATOM      1  C   UNL     1       7.347   4.869  14.503  0.00  0.00    +0.000 A 
ATOM      2  C   UNL     1       7.411   5.658  15.663  0.00  0.00    +0.000 A 
ATOM      3  C   UNL     1       6.328   5.770  16.549  0.00  0.00    +0.000 A 
ATOM      4  C   UNL     1       5.144   5.104  16.207  0.00  0.00    +0.000 A 
ATOM      5  C   UNL     1       5.098   4.276  15.071  0.00  0.00    +0.000 A 
ATOM      6  C   UNL     1       6.218   4.069  14.268  0.00  0.00    +0.000 A 
ENDROOT
BRANCH   6   7
ATOM      7  N   UNL     1       6.259   3.074  13.254  0.00  0.00    +0.000 N 
ATOM      8  C   UNL     1       5.446   3.025  12.133  0.00  0.00    +0.000 C 
ATOM      9  C   UNL     1       5.574   1.763  11.315  0.00  0.00    +0.000 C 
ATOM     10  O   UNL     1       4.652   3.891  11.768  0.00  0.00    +0.000 OA
ATOM     11  H   UNL     1       6.816   2.258  13.484  0.00  0.00    +0.000 HD
ENDBRANCH   6   7
BRANCH   3  12
ATOM     12  C   UNL     1       6.524   6.643  17.780  0.00  0.00    +0.000 C 
ATOM     13  C   UNL     1       7.006   5.810  18.967  0.00  0.00    +0.000 C 
ATOM     14  C   UNL     1       7.401   7.881  17.580  0.00  0.00    +0.000 C 
ENDBRANCH   3  12
BRANCH   1  16
ATOM     15  C   UNL     1       8.201   5.820  12.544  0.00  0.00    +0.000 C 
ATOM     16  O   UNL     1       8.377   4.852  13.588  0.00  0.00    +0.000 OA
ENDBRANCH   1  16
BRANCH   4  17
ATOM     17  O   UNL     1       4.017   5.347  16.962  0.00  0.00    +0.000 OA
BRANCH  17  18
ATOM     18  C   UNL     1       3.761   4.569  18.058  0.00  0.00    +0.000 A 
ATOM     19  C   UNL     1       4.093   3.237  18.180  0.00  0.00    +0.000 A 
ATOM     20  N   UNL     1       3.835   2.501  19.279  0.00  0.00    +0.000 NA
ATOM     21  C   UNL     1       3.223   3.134  20.281  0.00  0.00    +0.000 A 
ATOM     22  N   UNL     1       2.950   2.394  21.412  0.00  0.00    +0.000 N 
ATOM     23  N   UNL     1       2.913   4.435  20.296  0.00  0.00    +0.000 NA
ATOM     24  C   UNL     1       3.179   5.136  19.180  0.00  0.00    +0.000 A 
ATOM     25  H   UNL     1       3.556   1.586  21.429  0.00  0.00    +0.000 HD
ATOM     26  H   UNL     1       2.951   2.997  22.222  0.00  0.00    +0.000 HD
BRANCH  24  27
ATOM     27  N   UNL     1       2.879   6.503  19.234  0.00  0.00    +0.000 N 
ATOM     28  H   UNL     1       3.218   6.927  18.374  0.00  0.00    +0.000 HD
ATOM     29  H   UNL     1       3.266   6.932  20.067  0.00  0.00    +0.000 HD
ENDBRANCH  24  27
ENDBRANCH  17  18
ENDBRANCH   4  17
TORSDOF 6
ENDMDL
MODEL 5
REMARK VINA RESULT:      -6.9      0.655      1.305
REMARK  Name = 
REMARK  10 active torsions:
REMARK  status: ('A' for Active; 'I' for Inactive)
REMARK    1  A    between atoms: C_1  and  O_2
REMARK    2  A    between atoms: O_2  and  C_3
REMARK    3  A    between atoms: C_5  and  C_6
REMARK    4  A    between atoms: C_6  and  C_7
REMARK    5  A    between atoms: C_6  and  C_8
REMARK    6  A    between atoms: C_9  and  O_10
REMARK    7  A    between atoms: O_10  and  C_11
REMARK    8  A    between atoms: C_17  and  N_18
REMARK    9  A    between atoms: C_20  and  N_21
REMARK   10  A    between atoms: C_22  and  C_23
REMARK                            x       y       z     vdW  Elec       q    Type
REMARK                         _______ _______ _______ _____ _____    ______ ____
ROOT
ATOM      1  C   UNL     1       6.999   5.244  14.456  0.00  0.00    +0.000 A 
ATOM      2  C   UNL     1       7.264   6.031  15.589  0.00  0.00    +0.000 A 
ATOM      3  C   UNL     1       6.836   5.656  16.872  0.00  0.00    +0.000 A 
ATOM      4  C   UNL     1       6.080   4.482  16.983  0.00  0.00    +0.000 A 
ATOM      5  C   UNL     1       5.859   3.672  15.855  0.00  0.00    +0.000 A 
ATOM      6  C   UNL     1       6.396   3.986  14.609  0.00  0.00    +0.000 A 
ENDROOT
BRANCH   6   7
ATOM      7  N   UNL     1       6.374   3.078  13.514  0.00  0.00    +0.000 N 
ATOM      8  C   UNL     1       5.473   3.099  12.463  0.00  0.00    +0.000 C 
ATOM      9  C   UNL     1       5.559   1.912  11.534  0.00  0.00    +0.000 C 
ATOM     10  O   UNL     1       4.634   3.971  12.236  0.00  0.00    +0.000 OA
ATOM     11  H   UNL     1       6.965   2.262  13.631  0.00  0.00    +0.000 HD
ENDBRANCH   6   7
BRANCH   3  12
ATOM     12  C   UNL     1       7.197   6.583  18.025  0.00  0.00    +0.000 C 
ATOM     13  C   UNL     1       8.084   5.868  19.042  0.00  0.00    +0.000 C 
ATOM     14  C   UNL     1       7.793   7.934  17.623  0.00  0.00    +0.000 C 
ENDBRANCH   3  12
BRANCH   1  16
ATOM     15  C   UNL     1       8.743   5.853  13.021  0.00  0.00    +0.000 C 
ATOM     16  O   UNL     1       7.329   5.675  13.189  0.00  0.00    +0.000 OA
ENDBRANCH   1  16
BRANCH   4  17
ATOM     17  O   UNL     1       5.497   4.192  18.198  0.00  0.00    +0.000 OA
BRANCH  17  18
ATOM     18  C   UNL     1       4.261   3.607  18.229  0.00  0.00    +0.000 A 
ATOM     19  C   UNL     1       4.024   2.259  18.390  0.00  0.00    +0.000 A 
ATOM     20  N   UNL     1       2.791   1.716  18.425  0.00  0.00    +0.000 NA
ATOM     21  C   UNL     1       1.771   2.565  18.294  0.00  0.00    +0.000 A 
ATOM     22  N   UNL     1       0.503   2.026  18.326  0.00  0.00    +0.000 N 
ATOM     23  N   UNL     1       1.881   3.895  18.196  0.00  0.00    +0.000 NA
ATOM     24  C   UNL     1       3.126   4.400  18.156  0.00  0.00    +0.000 A 
ATOM     25  H   UNL     1       0.541   1.123  18.779  0.00  0.00    +0.000 HD
ATOM     26  H   UNL     1      -0.148   2.705  18.691  0.00  0.00    +0.000 HD
BRANCH  24  27
ATOM     27  N   UNL     1       3.215   5.795  18.091  0.00  0.00    +0.000 N 
ATOM     28  H   UNL     1       3.398   6.138  19.031  0.00  0.00    +0.000 HD
ATOM     29  H   UNL     1       2.382   6.199  17.677  0.00  0.00    +0.000 HD
ENDBRANCH  24  27
ENDBRANCH  17  18
ENDBRANCH   4  17
TORSDOF 6
ENDMDL
MODEL 6
REMARK VINA RESULT:      -6.7      6.269      8.062
REMARK  Name = 
REMARK  10 active torsions:
REMARK  status: ('A' for Active; 'I' for Inactive)
REMARK    1  A    between atoms: C_1  and  O_2
REMARK    2  A    between atoms: O_2  and  C_3
REMARK    3  A    between atoms: C_5  and  C_6
REMARK    4  A    between atoms: C_6  and  C_7
REMARK    5  A    between atoms: C_6  and  C_8
REMARK    6  A    between atoms: C_9  and  O_10
REMARK    7  A    between atoms: O_10  and  C_11
REMARK    8  A    between atoms: C_17  and  N_18
REMARK    9  A    between atoms: C_20  and  N_21
REMARK   10  A    between atoms: C_22  and  C_23
REMARK                            x       y       z     vdW  Elec       q    Type
REMARK                         _______ _______ _______ _____ _____    ______ ____
ROOT
ATOM      1  C   UNL     1       2.546   6.066  19.835  0.00  0.00    +0.000 A 
ATOM      2  C   UNL     1       1.835   6.916  20.697  0.00  0.00    +0.000 A 
ATOM      3  C   UNL     1       1.462   8.216  20.322  0.00  0.00    +0.000 A 
ATOM      4  C   UNL     1       1.874   8.667  19.060  0.00  0.00    +0.000 A 
ATOM      5  C   UNL     1       2.543   7.797  18.181  0.00  0.00    +0.000 A 
ATOM      6  C   UNL     1       2.796   6.468  18.513  0.00  0.00    +0.000 A 
ENDROOT
BRANCH   6   7
ATOM      7  N   UNL     1       3.268   5.518  17.566  0.00  0.00    +0.000 N 
ATOM      8  C   UNL     1       4.595   5.265  17.264  0.00  0.00    +0.000 C 
ATOM      9  C   UNL     1       4.810   4.341  16.090  0.00  0.00    +0.000 C 
ATOM     10  O   UNL     1       5.577   5.722  17.848  0.00  0.00    +0.000 OA
ATOM     11  H   UNL     1       2.550   5.137  16.957  0.00  0.00    +0.000 HD
ENDBRANCH   6   7
BRANCH   3  12
ATOM     12  C   UNL     1       0.680   9.037  21.337  0.00  0.00    +0.000 C 
ATOM     13  C   UNL     1      -0.673   8.391  21.633  0.00  0.00    +0.000 C 
ATOM     14  C   UNL     1       1.427   9.374  22.630  0.00  0.00    +0.000 C 
ENDBRANCH   3  12
BRANCH   1  16
ATOM     15  C   UNL     1       2.101   4.202  21.176  0.00  0.00    +0.000 C 
ATOM     16  O   UNL     1       2.999   4.834  20.253  0.00  0.00    +0.000 OA
ENDBRANCH   1  16
BRANCH   4  17
ATOM     17  O   UNL     1       1.679   9.994  18.745  0.00  0.00    +0.000 OA
BRANCH  17  18
ATOM     18  C   UNL     1       0.429  10.425  18.393  0.00  0.00    +0.000 A 
ATOM     19  C   UNL     1      -0.502   9.679  17.702  0.00  0.00    +0.000 A 
ATOM     20  N   UNL     1      -1.730  10.131  17.379  0.00  0.00    +0.000 NA
ATOM     21  C   UNL     1      -2.020  11.373  17.769  0.00  0.00    +0.000 A 
ATOM     22  N   UNL     1      -3.272  11.852  17.444  0.00  0.00    +0.000 N 
ATOM     23  N   UNL     1      -1.220  12.161  18.496  0.00  0.00    +0.000 NA
ATOM     24  C   UNL     1      -0.001  11.680  18.793  0.00  0.00    +0.000 A 
ATOM     25  H   UNL     1      -3.885  11.069  17.261  0.00  0.00    +0.000 HD
ATOM     26  H   UNL     1      -3.569  12.526  18.134  0.00  0.00    +0.000 HD
BRANCH  24  27
ATOM     27  N   UNL     1       0.803  12.507  19.586  0.00  0.00    +0.000 N 
ATOM     28  H   UNL     1       0.287  12.717  20.436  0.00  0.00    +0.000 HD
ATOM     29  H   UNL     1       1.088  13.339  19.080  0.00  0.00    +0.000 HD
ENDBRANCH  24  27
ENDBRANCH  17  18
ENDBRANCH   4  17
TORSDOF 6
ENDMDL
MODEL 7
REMARK VINA RESULT:      -6.7      3.903      5.813
REMARK  Name = 
REMARK  10 active torsions:
REMARK  status: ('A' for Active; 'I' for Inactive)
REMARK    1  A    between atoms: C_1  and  O_2
REMARK    2  A    between atoms: O_2  and  C_3
REMARK    3  A    between atoms: C_5  and  C_6
REMARK    4  A    between atoms: C_6  and  C_7
REMARK    5  A    between atoms: C_6  and  C_8
REMARK    6  A    between atoms: C_9  and  O_10
REMARK    7  A    between atoms: O_10  and  C_11
REMARK    8  A    between atoms: C_17  and  N_18
REMARK    9  A    between atoms: C_20  and  N_21
REMARK   10  A    between atoms: C_22  and  C_23
REMARK                            x       y       z     vdW  Elec       q    Type
REMARK                         _______ _______ _______ _____ _____    ______ ____
ROOT
ATOM      1  C   UNL     1       6.101   5.336  16.666  0.00  0.00    +0.000 A 
ATOM      2  C   UNL     1       5.057   4.398  16.647  0.00  0.00    +0.000 A 
ATOM      3  C   UNL     1       3.821   4.645  17.266  0.00  0.00    +0.000 A 
ATOM      4  C   UNL     1       3.678   5.854  17.960  0.00  0.00    +0.000 A 
ATOM      5  C   UNL     1       4.708   6.811  17.936  0.00  0.00    +0.000 A 
ATOM      6  C   UNL     1       5.881   6.610  17.211  0.00  0.00    +0.000 A 
ENDROOT
BRANCH   6   7
ATOM      7  N   UNL     1       6.832   7.644  16.992  0.00  0.00    +0.000 N 
ATOM      8  C   UNL     1       7.903   7.948  17.816  0.00  0.00    +0.000 C 
ATOM      9  C   UNL     1       8.647   9.208  17.446  0.00  0.00    +0.000 C 
ATOM     10  O   UNL     1       8.280   7.301  18.793  0.00  0.00    +0.000 OA
ATOM     11  H   UNL     1       6.580   8.302  16.261  0.00  0.00    +0.000 HD
ENDBRANCH   6   7
BRANCH   3  12
ATOM     12  C   UNL     1       2.761   3.558  17.164  0.00  0.00    +0.000 C 
ATOM     13  C   UNL     1       3.221   2.281  17.866  0.00  0.00    +0.000 C 
ATOM     14  C   UNL     1       1.355   3.962  17.615  0.00  0.00    +0.000 C 
ENDBRANCH   3  12
BRANCH   1  16
ATOM     15  C   UNL     1       7.310   4.817  14.731  0.00  0.00    +0.000 C 
ATOM     16  O   UNL     1       7.343   5.039  16.148  0.00  0.00    +0.000 OA
ENDBRANCH   1  16
BRANCH   4  17
ATOM     17  O   UNL     1       2.547   6.039  18.725  0.00  0.00    +0.000 OA
BRANCH  17  18
ATOM     18  C   UNL     1       2.063   7.304  18.916  0.00  0.00    +0.000 A 
ATOM     19  C   UNL     1       1.845   8.229  17.917  0.00  0.00    +0.000 A 
ATOM     20  N   UNL     1       1.358   9.466  18.138  0.00  0.00    +0.000 NA
ATOM     21  C   UNL     1       1.085   9.772  19.408  0.00  0.00    +0.000 A 
ATOM     22  N   UNL     1       0.587  11.034  19.651  0.00  0.00    +0.000 N 
ATOM     23  N   UNL     1       1.196   8.934  20.444  0.00  0.00    +0.000 NA
ATOM     24  C   UNL     1       1.693   7.712  20.187  0.00  0.00    +0.000 A 
ATOM     25  H   UNL     1       0.195  11.403  18.796  0.00  0.00    +0.000 HD
ATOM     26  H   UNL     1      -0.006  11.015  20.468  0.00  0.00    +0.000 HD
BRANCH  24  27
ATOM     27  N   UNL     1       1.765   6.841  21.281  0.00  0.00    +0.000 N 
ATOM     28  H   UNL     1       0.961   6.221  21.237  0.00  0.00    +0.000 HD
ATOM     29  H   UNL     1       1.824   7.352  22.156  0.00  0.00    +0.000 HD
ENDBRANCH  24  27
ENDBRANCH  17  18
ENDBRANCH   4  17
TORSDOF 6
ENDMDL
MODEL 8
REMARK VINA RESULT:      -6.7      3.962      5.920
REMARK  Name = 
REMARK  10 active torsions:
REMARK  status: ('A' for Active; 'I' for Inactive)
REMARK    1  A    between atoms: C_1  and  O_2
REMARK    2  A    between atoms: O_2  and  C_3
REMARK    3  A    between atoms: C_5  and  C_6
REMARK    4  A    between atoms: C_6  and  C_7
REMARK    5  A    between atoms: C_6  and  C_8
REMARK    6  A    between atoms: C_9  and  O_10
REMARK    7  A    between atoms: O_10  and  C_11
REMARK    8  A    between atoms: C_17  and  N_18
REMARK    9  A    between atoms: C_20  and  N_21
REMARK   10  A    between atoms: C_22  and  C_23
REMARK                            x       y       z     vdW  Elec       q    Type
REMARK                         _______ _______ _______ _____ _____    ______ ____
ROOT
ATOM      1  C   UNL     1       3.953   3.366  17.603  0.00  0.00    +0.000 A 
ATOM      2  C   UNL     1       3.040   3.386  18.670  0.00  0.00    +0.000 A 
ATOM      3  C   UNL     1       2.699   4.574  19.336  0.00  0.00    +0.000 A 
ATOM      4  C   UNL     1       3.348   5.749  18.933  0.00  0.00    +0.000 A 
ATOM      5  C   UNL     1       4.224   5.733  17.833  0.00  0.00    +0.000 A 
ATOM      6  C   UNL     1       4.458   4.573  17.097  0.00  0.00    +0.000 A 
ENDROOT
BRANCH   6   7
ATOM      7  N   UNL     1       5.159   4.580  15.860  0.00  0.00    +0.000 N 
ATOM      8  C   UNL     1       6.535   4.623  15.708  0.00  0.00    +0.000 C 
ATOM      9  C   UNL     1       7.008   4.807  14.286  0.00  0.00    +0.000 C 
ATOM     10  O   UNL     1       7.372   4.534  16.606  0.00  0.00    +0.000 OA
ATOM     11  H   UNL     1       4.575   4.740  15.045  0.00  0.00    +0.000 HD
ENDBRANCH   6   7
BRANCH   3  12
ATOM     12  C   UNL     1       1.686   4.471  20.467  0.00  0.00    +0.000 C 
ATOM     13  C   UNL     1       0.482   3.630  20.046  0.00  0.00    +0.000 C 
ATOM     14  C   UNL     1       2.244   4.004  21.813  0.00  0.00    +0.000 C 
ENDBRANCH   3  12
BRANCH   1  16
ATOM     15  C   UNL     1       4.110   1.047  17.871  0.00  0.00    +0.000 C 
ATOM     16  O   UNL     1       4.361   2.181  17.029  0.00  0.00    +0.000 OA
ENDBRANCH   1  16
BRANCH   4  17
ATOM     17  O   UNL     1       3.166   6.887  19.687  0.00  0.00    +0.000 OA
BRANCH  17  18
ATOM     18  C   UNL     1       2.343   7.877  19.225  0.00  0.00    +0.000 A 
ATOM     19  C   UNL     1       2.233   8.267  17.907  0.00  0.00    +0.000 A 
ATOM     20  N   UNL     1       1.404   9.240  17.483  0.00  0.00    +0.000 NA
ATOM     21  C   UNL     1       0.666   9.835  18.422  0.00  0.00    +0.000 A 
ATOM     22  N   UNL     1      -0.186  10.835  18.004  0.00  0.00    +0.000 N 
ATOM     23  N   UNL     1       0.644   9.495  19.715  0.00  0.00    +0.000 NA
ATOM     24  C   UNL     1       1.490   8.525  20.103  0.00  0.00    +0.000 A 
ATOM     25  H   UNL     1      -0.360  10.726  17.014  0.00  0.00    +0.000 HD
ATOM     26  H   UNL     1      -0.987  10.878  18.618  0.00  0.00    +0.000 HD
BRANCH  24  27
ATOM     27  N   UNL     1       1.422   8.163  21.454  0.00  0.00    +0.000 N 
ATOM     28  H   UNL     1       2.303   7.718  21.699  0.00  0.00    +0.000 HD
ATOM     29  H   UNL     1       0.616   7.575  21.638  0.00  0.00    +0.000 HD
ENDBRANCH  24  27
ENDBRANCH  17  18
ENDBRANCH   4  17
TORSDOF 6
ENDMDL
MODEL 9
REMARK VINA RESULT:      -6.7      4.450      6.867
REMARK  Name = 
REMARK  10 active torsions:
REMARK  status: ('A' for Active; 'I' for Inactive)
REMARK    1  A    between atoms: C_1  and  O_2
REMARK    2  A    between atoms: O_2  and  C_3
REMARK    3  A    between atoms: C_5  and  C_6
REMARK    4  A    between atoms: C_6  and  C_7
REMARK    5  A    between atoms: C_6  and  C_8
REMARK    6  A    between atoms: C_9  and  O_10
REMARK    7  A    between atoms: O_10  and  C_11
REMARK    8  A    between atoms: C_17  and  N_18
REMARK    9  A    between atoms: C_20  and  N_21
REMARK   10  A    between atoms: C_22  and  C_23
REMARK                            x       y       z     vdW  Elec       q    Type
REMARK                         _______ _______ _______ _____ _____    ______ ____
ROOT
ATOM      1  C   UNL     1       4.069   3.817  18.900  0.00  0.00    +0.000 A 
ATOM      2  C   UNL     1       4.726   4.649  17.980  0.00  0.00    +0.000 A 
ATOM      3  C   UNL     1       4.364   5.994  17.801  0.00  0.00    +0.000 A 
ATOM      4  C   UNL     1       3.275   6.473  18.542  0.00  0.00    +0.000 A 
ATOM      5  C   UNL     1       2.651   5.651  19.497  0.00  0.00    +0.000 A 
ATOM      6  C   UNL     1       3.100   4.358  19.759  0.00  0.00    +0.000 A 
ENDROOT
BRANCH   6   7
ATOM      7  N   UNL     1       2.632   3.594  20.863  0.00  0.00    +0.000 N 
ATOM      8  C   UNL     1       1.435   2.900  20.920  0.00  0.00    +0.000 C 
ATOM      9  C   UNL     1       1.101   2.327  22.276  0.00  0.00    +0.000 C 
ATOM     10  O   UNL     1       0.647   2.726  19.991  0.00  0.00    +0.000 OA
ATOM     11  H   UNL     1       3.156   3.729  21.722  0.00  0.00    +0.000 HD
ENDBRANCH   6   7
BRANCH   3  12
ATOM     12  C   UNL     1       5.161   6.800  16.785  0.00  0.00    +0.000 C 
ATOM     13  C   UNL     1       6.545   7.148  17.331  0.00  0.00    +0.000 C 
ATOM     14  C   UNL     1       5.254   6.189  15.385  0.00  0.00    +0.000 C 
ENDBRANCH   3  12
BRANCH   1  16
ATOM     15  C   UNL     1       3.583   1.680  18.081  0.00  0.00    +0.000 C 
ATOM     16  O   UNL     1       4.361   2.473  18.989  0.00  0.00    +0.000 OA
ENDBRANCH   1  16
BRANCH   4  17
ATOM     17  O   UNL     1       2.789   7.729  18.251  0.00  0.00    +0.000 OA
BRANCH  17  18
ATOM     18  C   UNL     1       1.973   8.359  19.151  0.00  0.00    +0.000 A 
ATOM     19  C   UNL     1       1.738   7.936  20.441  0.00  0.00    +0.000 A 
ATOM     20  N   UNL     1       0.935   8.586  21.306  0.00  0.00    +0.000 NA
ATOM     21  C   UNL     1       0.356   9.697  20.849  0.00  0.00    +0.000 A 
ATOM     22  N   UNL     1      -0.470  10.374  21.721  0.00  0.00    +0.000 N 
ATOM     23  N   UNL     1       0.562  10.234  19.641  0.00  0.00    +0.000 NA
ATOM     24  C   UNL     1       1.362   9.553  18.802  0.00  0.00    +0.000 A 
ATOM     25  H   UNL     1      -0.239  10.105  22.668  0.00  0.00    +0.000 HD
ATOM     26  H   UNL     1      -0.466  11.359  21.500  0.00  0.00    +0.000 HD
BRANCH  24  27
ATOM     27  N   UNL     1       1.591  10.153  17.558  0.00  0.00    +0.000 N 
ATOM     28  H   UNL     1       0.828   9.888  16.942  0.00  0.00    +0.000 HD
ATOM     29  H   UNL     1       2.503   9.903  17.191  0.00  0.00    +0.000 HD
ENDBRANCH  24  27
ENDBRANCH  17  18
ENDBRANCH   4  17
TORSDOF 6
ENDMDL
