MODEL 1
REMARK VINA RESULT:      -7.8      0.000      0.000
REMARK  Name = 
REMARK  7 active torsions:
REMARK  status: ('A' for Active; 'I' for Inactive)
REMARK    1  A    between atoms: C_2  and  C_3
REMARK    2  A    between atoms: C_2  and  C_18
REMARK    3  A    between atoms: N_5  and  C_6
REMARK    4  A    between atoms: C_6  and  C_7
REMARK    5  A    between atoms: N_9  and  C_10
REMARK    6  A    between atoms: C_21  and  C_22
REMARK    7  A    between atoms: C_27  and  C_28
REMARK                            x       y       z     vdW  Elec       q    Type
REMARK                         _______ _______ _______ _____ _____    ______ ____
ROOT
ATOM      1  C   UNL     1       0.169   9.951  18.565  0.00  0.00    +0.000 C 
ATOM      2  O   UNL     1      -0.451   9.742  17.523  0.00  0.00    +0.000 OA
ATOM      3  N   UNL     1       1.464   9.551  18.730  0.00  0.00    +0.000 N 
ATOM      4  H   UNL     1       1.879   9.508  19.647  0.00  0.00    +0.000 HD
ENDROOT
BRANCH   1   6
ATOM      5  C   UNL     1      -1.687  11.159  19.420  0.00  0.00    +0.000 C 
ATOM      6  C   UNL     1      -0.470  10.663  19.725  0.00  0.00    +0.000 C 
BRANCH   6   7
ATOM      7  C   UNL     1       0.258  10.848  21.062  0.00  0.00    +0.000 C 
ATOM      8  C   UNL     1      -0.664  10.803  22.298  0.00  0.00    +0.000 C 
ATOM      9  C   UNL     1      -1.604  11.982  22.572  0.00  0.00    +0.000 C 
ATOM     10  C   UNL     1      -0.902  13.288  22.973  0.00  0.00    +0.000 C 
ATOM     11  C   UNL     1      -1.897  14.174  23.741  0.00  0.00    +0.000 C 
ATOM     12  C   UNL     1      -0.208  14.087  21.845  0.00  0.00    +0.000 C 
ATOM     13  C   UNL     1      -1.103  14.974  20.972  0.00  0.00    +0.000 C 
ATOM     14  C   UNL     1      -0.288  15.078  19.713  0.00  0.00    +0.000 C 
ATOM     15  O   UNL     1      -0.481  15.887  18.818  0.00  0.00    +0.000 OA
ATOM     16  C   UNL     1       0.710  13.993  19.641  0.00  0.00    +0.000 C 
ATOM     17  C   UNL     1       1.483  13.661  18.420  0.00  0.00    +0.000 C 
ATOM     18  C   UNL     1       0.616  13.351  20.818  0.00  0.00    +0.000 C 
ATOM     19  C   UNL     1       1.253  12.033  21.110  0.00  0.00    +0.000 C 
ENDBRANCH   6   7
ENDBRANCH   1   6
BRANCH   3  20
ATOM     20  C   UNL     1       2.148   8.835  17.676  0.00  0.00    +0.000 C 
BRANCH  20  21
ATOM     21  C   UNL     1       2.717   7.575  18.200  0.00  0.00    +0.000 A 
ATOM     22  C   UNL     1       2.381   6.848  19.325  0.00  0.00    +0.000 A 
ATOM     23  N   UNL     1       3.213   5.770  19.286  0.00  0.00    +0.000 N 
ATOM     24  N   UNL     1       4.023   5.829  18.213  0.00  0.00    +0.000 NA
ATOM     25  N   UNL     1       3.729   6.928  17.543  0.00  0.00    +0.000 NA
BRANCH  23  26
ATOM     26  C   UNL     1       3.269   4.659  20.230  0.00  0.00    +0.000 C 
ATOM     27  C   UNL     1       1.946   4.429  20.976  0.00  0.00    +0.000 C 
ATOM     28  C   UNL     1       0.876   3.749  20.125  0.00  0.00    +0.000 C 
ATOM     29  C   UNL     1       1.382   2.488  19.430  0.00  0.00    +0.000 C 
ATOM     30  C   UNL     1       2.725   2.662  18.723  0.00  0.00    +0.000 C 
ATOM     31  C   UNL     1       3.771   3.355  19.595  0.00  0.00    +0.000 C 
ENDBRANCH  23  26
ENDBRANCH  20  21
ENDBRANCH   3  20
TORSDOF 5
ENDMDL
MODEL 2
REMARK VINA RESULT:      -7.7      5.965      9.935
REMARK  Name = 
REMARK  7 active torsions:
REMARK  status: ('A' for Active; 'I' for Inactive)
REMARK    1  A    between atoms: C_2  and  C_3
REMARK    2  A    between atoms: C_2  and  C_18
REMARK    3  A    between atoms: N_5  and  C_6
REMARK    4  A    between atoms: C_6  and  C_7
REMARK    5  A    between atoms: N_9  and  C_10
REMARK    6  A    between atoms: C_21  and  C_22
REMARK    7  A    between atoms: C_27  and  C_28
REMARK                            x       y       z     vdW  Elec       q    Type
REMARK                         _______ _______ _______ _____ _____    ______ ____
ROOT
ATOM      1  C   UNL     1       5.294   6.739  17.701  0.00  0.00    +0.000 C 
ATOM      2  O   UNL     1       4.828   7.092  16.619  0.00  0.00    +0.000 OA
ATOM      3  N   UNL     1       6.587   7.000  18.053  0.00  0.00    +0.000 N 
ATOM      4  H   UNL     1       7.024   6.510  18.818  0.00  0.00    +0.000 HD
ENDROOT
BRANCH   1   6
ATOM      5  C   UNL     1       5.197   5.175  19.484  0.00  0.00    +0.000 C 
ATOM      6  C   UNL     1       4.459   5.992  18.705  0.00  0.00    +0.000 C 
BRANCH   6   7
ATOM      7  C   UNL     1       2.931   6.120  18.742  0.00  0.00    +0.000 C 
ATOM      8  C   UNL     1       2.332   6.154  20.163  0.00  0.00    +0.000 C 
ATOM      9  C   UNL     1       2.311   4.869  20.996  0.00  0.00    +0.000 C 
ATOM     10  C   UNL     1       1.363   3.777  20.476  0.00  0.00    +0.000 C 
ATOM     11  C   UNL     1       1.007   2.831  21.634  0.00  0.00    +0.000 C 
ATOM     12  C   UNL     1       1.826   2.980  19.233  0.00  0.00    +0.000 C 
ATOM     13  C   UNL     1       2.819   1.838  19.473  0.00  0.00    +0.000 C 
ATOM     14  C   UNL     1       3.478   1.723  18.127  0.00  0.00    +0.000 C 
ATOM     15  O   UNL     1       4.167   0.783  17.762  0.00  0.00    +0.000 OA
ATOM     16  C   UNL     1       3.280   2.954  17.338  0.00  0.00    +0.000 C 
ATOM     17  C   UNL     1       4.016   3.261  16.088  0.00  0.00    +0.000 C 
ATOM     18  C   UNL     1       2.454   3.716  18.076  0.00  0.00    +0.000 C 
ATOM     19  C   UNL     1       2.168   5.154  17.802  0.00  0.00    +0.000 C 
ENDBRANCH   6   7
ENDBRANCH   1   6
BRANCH   3  20
ATOM     20  C   UNL     1       7.470   7.689  17.138  0.00  0.00    +0.000 C 
BRANCH  20  21
ATOM     21  C   UNL     1       8.140   8.815  17.823  0.00  0.00    +0.000 A 
ATOM     22  C   UNL     1       8.220  10.148  17.471  0.00  0.00    +0.000 A 
ATOM     23  N   UNL     1       8.930  10.718  18.484  0.00  0.00    +0.000 N 
ATOM     24  N   UNL     1       9.281   9.796  19.400  0.00  0.00    +0.000 NA
ATOM     25  N   UNL     1       8.804   8.630  19.006  0.00  0.00    +0.000 NA
BRANCH  23  26
ATOM     26  C   UNL     1       9.289  12.123  18.633  0.00  0.00    +0.000 C 
ATOM     27  C   UNL     1       9.721  12.492  20.061  0.00  0.00    +0.000 C 
ATOM     28  C   UNL     1      11.129  12.017  20.414  0.00  0.00    +0.000 C 
ATOM     29  C   UNL     1      12.169  12.412  19.368  0.00  0.00    +0.000 C 
ATOM     30  C   UNL     1      11.751  12.112  17.930  0.00  0.00    +0.000 C 
ATOM     31  C   UNL     1      10.335  12.588  17.610  0.00  0.00    +0.000 C 
ENDBRANCH  23  26
ENDBRANCH  20  21
ENDBRANCH   3  20
TORSDOF 5
ENDMDL
MODEL 3
REMARK VINA RESULT:      -7.7      5.482      9.627
REMARK  Name = 
REMARK  7 active torsions:
REMARK  status: ('A' for Active; 'I' for Inactive)
REMARK    1  A    between atoms: C_2  and  C_3
REMARK    2  A    between atoms: C_2  and  C_18
REMARK    3  A    between atoms: N_5  and  C_6
REMARK    4  A    between atoms: C_6  and  C_7
REMARK    5  A    between atoms: N_9  and  C_10
REMARK    6  A    between atoms: C_21  and  C_22
REMARK    7  A    between atoms: C_27  and  C_28
REMARK                            x       y       z     vdW  Elec       q    Type
REMARK                         _______ _______ _______ _____ _____    ______ ____
ROOT
ATOM      1  C   UNL     1       6.274   5.470  18.412  0.00  0.00    +0.000 C 
ATOM      2  O   UNL     1       6.012   5.401  19.611  0.00  0.00    +0.000 OA
ATOM      3  N   UNL     1       7.347   6.174  17.944  0.00  0.00    +0.000 N 
ATOM      4  H   UNL     1       7.417   6.424  16.970  0.00  0.00    +0.000 HD
ENDROOT
BRANCH   1   6
ATOM      5  C   UNL     1       6.015   3.681  16.873  0.00  0.00    +0.000 C 
ATOM      6  C   UNL     1       5.421   4.779  17.384  0.00  0.00    +0.000 C 
BRANCH   6   7
ATOM      7  C   UNL     1       4.066   5.347  16.942  0.00  0.00    +0.000 C 
ATOM      8  C   UNL     1       3.820   6.807  17.373  0.00  0.00    +0.000 C 
ATOM      9  C   UNL     1       3.542   7.114  18.848  0.00  0.00    +0.000 C 
ATOM     10  C   UNL     1       2.198   6.588  19.375  0.00  0.00    +0.000 C 
ATOM     11  C   UNL     1       1.793   7.405  20.612  0.00  0.00    +0.000 C 
ATOM     12  C   UNL     1       2.101   5.070  19.659  0.00  0.00    +0.000 C 
ATOM     13  C   UNL     1       2.681   4.576  20.988  0.00  0.00    +0.000 C 
ATOM     14  C   UNL     1       2.971   3.135  20.673  0.00  0.00    +0.000 C 
ATOM     15  O   UNL     1       3.215   2.271  21.501  0.00  0.00    +0.000 OA
ATOM     16  C   UNL     1       3.038   2.919  19.214  0.00  0.00    +0.000 C 
ATOM     17  C   UNL     1       3.560   1.681  18.586  0.00  0.00    +0.000 C 
ATOM     18  C   UNL     1       2.685   4.095  18.668  0.00  0.00    +0.000 C 
ATOM     19  C   UNL     1       2.848   4.434  17.224  0.00  0.00    +0.000 C 
ENDBRANCH   6   7
ENDBRANCH   1   6
BRANCH   3  20
ATOM     20  C   UNL     1       8.205   6.893  18.860  0.00  0.00    +0.000 C 
BRANCH  20  21
ATOM     21  C   UNL     1       8.275   8.321  18.482  0.00  0.00    +0.000 A 
ATOM     22  C   UNL     1       8.949   9.366  19.082  0.00  0.00    +0.000 A 
ATOM     23  N   UNL     1       8.677  10.437  18.286  0.00  0.00    +0.000 N 
ATOM     24  N   UNL     1       7.875  10.084  17.266  0.00  0.00    +0.000 NA
ATOM     25  N   UNL     1       7.622   8.793  17.376  0.00  0.00    +0.000 NA
BRANCH  23  26
ATOM     26  C   UNL     1       9.161  11.804  18.445  0.00  0.00    +0.000 C 
ATOM     27  C   UNL     1       9.374  12.206  19.913  0.00  0.00    +0.000 C 
ATOM     28  C   UNL     1      10.635  11.608  20.532  0.00  0.00    +0.000 C 
ATOM     29  C   UNL     1      11.880  11.834  19.677  0.00  0.00    +0.000 C 
ATOM     30  C   UNL     1      11.691  11.498  18.199  0.00  0.00    +0.000 C 
ATOM     31  C   UNL     1      10.415  12.100  17.612  0.00  0.00    +0.000 C 
ENDBRANCH  23  26
ENDBRANCH  20  21
ENDBRANCH   3  20
TORSDOF 5
ENDMDL
MODEL 4
REMARK VINA RESULT:      -7.6      1.800      3.084
REMARK  Name = 
REMARK  7 active torsions:
REMARK  status: ('A' for Active; 'I' for Inactive)
REMARK    1  A    between atoms: C_2  and  C_3
REMARK    2  A    between atoms: C_2  and  C_18
REMARK    3  A    between atoms: N_5  and  C_6
REMARK    4  A    between atoms: C_6  and  C_7
REMARK    5  A    between atoms: N_9  and  C_10
REMARK    6  A    between atoms: C_21  and  C_22
REMARK    7  A    between atoms: C_27  and  C_28
REMARK                            x       y       z     vdW  Elec       q    Type
REMARK                         _______ _______ _______ _____ _____    ______ ____
ROOT
ATOM      1  C   UNL     1       2.076  10.538  18.077  0.00  0.00    +0.000 C 
ATOM      2  O   UNL     1       2.899  11.053  17.321  0.00  0.00    +0.000 OA
ATOM      3  N   UNL     1       1.966   9.184  18.213  0.00  0.00    +0.000 N 
ATOM      4  H   UNL     1       1.149   8.772  18.637  0.00  0.00    +0.000 HD
ENDROOT
BRANCH   1   6
ATOM      5  C   UNL     1       1.751  11.968  19.943  0.00  0.00    +0.000 C 
ATOM      6  C   UNL     1       1.136  11.378  18.898  0.00  0.00    +0.000 C 
BRANCH   6   7
ATOM      7  C   UNL     1      -0.363  11.456  18.585  0.00  0.00    +0.000 C 
ATOM      8  C   UNL     1      -0.948  12.883  18.635  0.00  0.00    +0.000 C 
ATOM      9  C   UNL     1      -1.129  13.568  19.993  0.00  0.00    +0.000 C 
ATOM     10  C   UNL     1      -2.209  12.947  20.892  0.00  0.00    +0.000 C 
ATOM     11  C   UNL     1      -2.677  13.999  21.910  0.00  0.00    +0.000 C 
ATOM     12  C   UNL     1      -1.854  11.616  21.596  0.00  0.00    +0.000 C 
ATOM     13  C   UNL     1      -1.013  11.710  22.874  0.00  0.00    +0.000 C 
ATOM     14  C   UNL     1      -0.379  10.348  22.919  0.00  0.00    +0.000 C 
ATOM     15  O   UNL     1       0.185   9.869  23.890  0.00  0.00    +0.000 OA
ATOM     16  C   UNL     1      -0.422   9.704  21.591  0.00  0.00    +0.000 C 
ATOM     17  C   UNL     1       0.342   8.483  21.240  0.00  0.00    +0.000 C 
ATOM     18  C   UNL     1      -1.143  10.536  20.820  0.00  0.00    +0.000 C 
ATOM     19  C   UNL     1      -1.245  10.429  19.335  0.00  0.00    +0.000 C 
ENDBRANCH   6   7
ENDBRANCH   1   6
BRANCH   3  20
ATOM     20  C   UNL     1       2.810   8.300  17.441  0.00  0.00    +0.000 C 
BRANCH  20  21
ATOM     21  C   UNL     1       3.117   7.079  18.217  0.00  0.00    +0.000 A 
ATOM     22  C   UNL     1       2.368   6.423  19.174  0.00  0.00    +0.000 A 
ATOM     23  N   UNL     1       3.133   5.349  19.516  0.00  0.00    +0.000 N 
ATOM     24  N   UNL     1       4.289   5.345  18.826  0.00  0.00    +0.000 NA
ATOM     25  N   UNL     1       4.289   6.398  18.029  0.00  0.00    +0.000 NA
BRANCH  23  26
ATOM     26  C   UNL     1       2.810   4.301  20.477  0.00  0.00    +0.000 C 
ATOM     27  C   UNL     1       1.299   4.075  20.643  0.00  0.00    +0.000 C 
ATOM     28  C   UNL     1       0.666   3.310  19.482  0.00  0.00    +0.000 C 
ATOM     29  C   UNL     1       1.415   2.025  19.138  0.00  0.00    +0.000 C 
ATOM     30  C   UNL     1       2.928   2.199  19.020  0.00  0.00    +0.000 C 
ATOM     31  C   UNL     1       3.531   2.977  20.189  0.00  0.00    +0.000 C 
ENDBRANCH  23  26
ENDBRANCH  20  21
ENDBRANCH   3  20
TORSDOF 5
ENDMDL
MODEL 5
REMARK VINA RESULT:      -7.6      2.302      3.368
REMARK  Name = 
REMARK  7 active torsions:
REMARK  status: ('A' for Active; 'I' for Inactive)
REMARK    1  A    between atoms: C_2  and  C_3
REMARK    2  A    between atoms: C_2  and  C_18
REMARK    3  A    between atoms: N_5  and  C_6
REMARK    4  A    between atoms: C_6  and  C_7
REMARK    5  A    between atoms: N_9  and  C_10
REMARK    6  A    between atoms: C_21  and  C_22
REMARK    7  A    between atoms: C_27  and  C_28
REMARK                            x       y       z     vdW  Elec       q    Type
REMARK                         _______ _______ _______ _____ _____    ______ ____
ROOT
ATOM      1  C   UNL     1      -0.286  11.568  19.987  0.00  0.00    +0.000 C 
ATOM      2  O   UNL     1      -0.845  11.710  18.901  0.00  0.00    +0.000 OA
ATOM      3  N   UNL     1       0.772  10.720  20.152  0.00  0.00    +0.000 N 
ATOM      4  H   UNL     1       1.064  10.430  21.072  0.00  0.00    +0.000 HD
ENDROOT
BRANCH   1   6
ATOM      5  C   UNL     1      -1.163  11.509  22.192  0.00  0.00    +0.000 C 
ATOM      6  C   UNL     1      -0.740  12.325  21.205  0.00  0.00    +0.000 C 
BRANCH   6   7
ATOM      7  C   UNL     1      -0.774  13.858  21.239  0.00  0.00    +0.000 C 
ATOM      8  C   UNL     1      -0.346  14.472  22.588  0.00  0.00    +0.000 C 
ATOM      9  C   UNL     1      -1.285  14.358  23.793  0.00  0.00    +0.000 C 
ATOM     10  C   UNL     1      -2.583  15.173  23.679  0.00  0.00    +0.000 C 
ATOM     11  C   UNL     1      -3.134  15.432  25.090  0.00  0.00    +0.000 C 
ATOM     12  C   UNL     1      -3.685  14.610  22.750  0.00  0.00    +0.000 C 
ATOM     13  C   UNL     1      -4.572  13.498  23.321  0.00  0.00    +0.000 C 
ATOM     14  C   UNL     1      -5.045  12.816  22.068  0.00  0.00    +0.000 C 
ATOM     15  O   UNL     1      -5.971  12.022  22.009  0.00  0.00    +0.000 OA
ATOM     16  C   UNL     1      -4.167  13.142  20.928  0.00  0.00    +0.000 C 
ATOM     17  C   UNL     1      -4.204  12.432  19.627  0.00  0.00    +0.000 C 
ATOM     18  C   UNL     1      -3.302  14.057  21.400  0.00  0.00    +0.000 C 
ATOM     19  C   UNL     1      -2.070  14.498  20.683  0.00  0.00    +0.000 C 
ENDBRANCH   6   7
ENDBRANCH   1   6
BRANCH   3  20
ATOM     20  C   UNL     1       1.257   9.932  19.041  0.00  0.00    +0.000 C 
BRANCH  20  21
ATOM     21  C   UNL     1       1.602   8.567  19.494  0.00  0.00    +0.000 A 
ATOM     22  C   UNL     1       2.314   7.572  18.854  0.00  0.00    +0.000 A 
ATOM     23  N   UNL     1       2.344   6.551  19.756  0.00  0.00    +0.000 N 
ATOM     24  N   UNL     1       1.681   6.885  20.878  0.00  0.00    +0.000 NA
ATOM     25  N   UNL     1       1.224   8.114  20.730  0.00  0.00    +0.000 NA
BRANCH  23  26
ATOM     26  C   UNL     1       2.992   5.254  19.603  0.00  0.00    +0.000 C 
ATOM     27  C   UNL     1       2.462   4.192  20.579  0.00  0.00    +0.000 C 
ATOM     28  C   UNL     1       1.092   3.638  20.191  0.00  0.00    +0.000 C 
ATOM     29  C   UNL     1       1.027   3.179  18.736  0.00  0.00    +0.000 C 
ATOM     30  C   UNL     1       1.598   4.186  17.740  0.00  0.00    +0.000 C 
ATOM     31  C   UNL     1       2.962   4.732  18.160  0.00  0.00    +0.000 C 
ENDBRANCH  23  26
ENDBRANCH  20  21
ENDBRANCH   3  20
TORSDOF 5
ENDMDL
MODEL 6
REMARK VINA RESULT:      -7.4      0.808      1.134
REMARK  Name = 
REMARK  7 active torsions:
REMARK  status: ('A' for Active; 'I' for Inactive)
REMARK    1  A    between atoms: C_2  and  C_3
REMARK    2  A    between atoms: C_2  and  C_18
REMARK    3  A    between atoms: N_5  and  C_6
REMARK    4  A    between atoms: C_6  and  C_7
REMARK    5  A    between atoms: N_9  and  C_10
REMARK    6  A    between atoms: C_21  and  C_22
REMARK    7  A    between atoms: C_27  and  C_28
REMARK                            x       y       z     vdW  Elec       q    Type
REMARK                         _______ _______ _______ _____ _____    ______ ____
ROOT
ATOM      1  C   UNL     1       0.022  10.146  18.711  0.00  0.00    +0.000 C 
ATOM      2  O   UNL     1      -0.603   9.904  17.680  0.00  0.00    +0.000 OA
ATOM      3  N   UNL     1       1.302   9.708  18.902  0.00  0.00    +0.000 N 
ATOM      4  H   UNL     1       1.713   9.700  19.822  0.00  0.00    +0.000 HD
ENDROOT
BRANCH   1   6
ATOM      5  C   UNL     1      -1.772  11.495  19.480  0.00  0.00    +0.000 C 
ATOM      6  C   UNL     1      -0.593  10.942  19.829  0.00  0.00    +0.000 C 
BRANCH   6   7
ATOM      7  C   UNL     1       0.122  11.139  21.171  0.00  0.00    +0.000 C 
ATOM      8  C   UNL     1      -0.810  11.097  22.399  0.00  0.00    +0.000 C 
ATOM      9  C   UNL     1      -1.759  12.271  22.657  0.00  0.00    +0.000 C 
ATOM     10  C   UNL     1      -1.068  13.584  23.057  0.00  0.00    +0.000 C 
ATOM     11  C   UNL     1      -2.075  14.469  23.810  0.00  0.00    +0.000 C 
ATOM     12  C   UNL     1      -0.368  14.380  21.929  0.00  0.00    +0.000 C 
ATOM     13  C   UNL     1      -1.260  15.257  21.044  0.00  0.00    +0.000 C 
ATOM     14  C   UNL     1      -0.435  15.358  19.791  0.00  0.00    +0.000 C 
ATOM     15  O   UNL     1      -0.624  16.160  18.890  0.00  0.00    +0.000 OA
ATOM     16  C   UNL     1       0.570  14.278  19.735  0.00  0.00    +0.000 C 
ATOM     17  C   UNL     1       1.355  13.943  18.522  0.00  0.00    +0.000 C 
ATOM     18  C   UNL     1       0.469  13.642  20.915  0.00  0.00    +0.000 C 
ATOM     19  C   UNL     1       1.111  12.330  21.220  0.00  0.00    +0.000 C 
ENDBRANCH   6   7
ENDBRANCH   1   6
BRANCH   3  20
ATOM     20  C   UNL     1       1.961   8.912  17.891  0.00  0.00    +0.000 C 
BRANCH  20  21
ATOM     21  C   UNL     1       2.424   7.632  18.469  0.00  0.00    +0.000 A 
ATOM     22  C   UNL     1       3.156   6.612  17.895  0.00  0.00    +0.000 A 
ATOM     23  N   UNL     1       3.312   5.708  18.901  0.00  0.00    +0.000 N 
ATOM     24  N   UNL     1       2.705   6.131  20.025  0.00  0.00    +0.000 NA
ATOM     25  N   UNL     1       2.159   7.307  19.772  0.00  0.00    +0.000 NA
BRANCH  23  26
ATOM     26  C   UNL     1       4.033   4.440  18.850  0.00  0.00    +0.000 C 
ATOM     27  C   UNL     1       3.546   3.423  19.893  0.00  0.00    +0.000 C 
ATOM     28  C   UNL     1       2.216   2.767  19.530  0.00  0.00    +0.000 C 
ATOM     29  C   UNL     1       2.198   2.204  18.112  0.00  0.00    +0.000 C 
ATOM     30  C   UNL     1       2.727   3.168  17.052  0.00  0.00    +0.000 C 
ATOM     31  C   UNL     1       4.053   3.817  17.448  0.00  0.00    +0.000 C 
ENDBRANCH  23  26
ENDBRANCH  20  21
ENDBRANCH   3  20
TORSDOF 5
ENDMDL
MODEL 7
REMARK VINA RESULT:      -7.4      0.946      1.040
REMARK  Name = 
REMARK  7 active torsions:
REMARK  status: ('A' for Active; 'I' for Inactive)
REMARK    1  A    between atoms: C_2  and  C_3
REMARK    2  A    between atoms: C_2  and  C_18
REMARK    3  A    between atoms: N_5  and  C_6
REMARK    4  A    between atoms: C_6  and  C_7
REMARK    5  A    between atoms: N_9  and  C_10
REMARK    6  A    between atoms: C_21  and  C_22
REMARK    7  A    between atoms: C_27  and  C_28
REMARK                            x       y       z     vdW  Elec       q    Type
REMARK                         _______ _______ _______ _____ _____    ______ ____
ROOT
ATOM      1  C   UNL     1       1.405   9.674  18.503  0.00  0.00    +0.000 C 
ATOM      2  O   UNL     1       1.584  10.279  17.447  0.00  0.00    +0.000 OA
ATOM      3  N   UNL     1       2.055   8.509  18.790  0.00  0.00    +0.000 N 
ATOM      4  H   UNL     1       1.732   7.905  19.530  0.00  0.00    +0.000 HD
ENDROOT
BRANCH   1   6
ATOM      5  C   UNL     1      -0.794  10.380  19.055  0.00  0.00    +0.000 C 
ATOM      6  C   UNL     1       0.449  10.188  19.544  0.00  0.00    +0.000 C 
BRANCH   6   7
ATOM      7  C   UNL     1       0.906  10.519  20.970  0.00  0.00    +0.000 C 
ATOM      8  C   UNL     1      -0.175  10.303  22.049  0.00  0.00    +0.000 C 
ATOM      9  C   UNL     1      -1.354  11.277  22.131  0.00  0.00    +0.000 C 
ATOM     10  C   UNL     1      -0.987  12.698  22.588  0.00  0.00    +0.000 C 
ATOM     11  C   UNL     1      -2.242  13.377  23.160  0.00  0.00    +0.000 C 
ATOM     12  C   UNL     1      -0.288  13.610  21.552  0.00  0.00    +0.000 C 
ATOM     13  C   UNL     1      -1.185  14.301  20.520  0.00  0.00    +0.000 C 
ATOM     14  C   UNL     1      -0.216  14.554  19.399  0.00  0.00    +0.000 C 
ATOM     15  O   UNL     1      -0.415  15.305  18.457  0.00  0.00    +0.000 OA
ATOM     16  C   UNL     1       0.969  13.683  19.522  0.00  0.00    +0.000 C 
ATOM     17  C   UNL     1       1.975  13.501  18.449  0.00  0.00    +0.000 C 
ATOM     18  C   UNL     1       0.814  13.042  20.694  0.00  0.00    +0.000 C 
ATOM     19  C   UNL     1       1.636  11.875  21.128  0.00  0.00    +0.000 C 
ENDBRANCH   6   7
ENDBRANCH   1   6
BRANCH   3  20
ATOM     20  C   UNL     1       2.971   7.928  17.834  0.00  0.00    +0.000 C 
BRANCH  20  21
ATOM     21  C   UNL     1       3.433   6.604  18.306  0.00  0.00    +0.000 A 
ATOM     22  C   UNL     1       2.790   5.668  19.092  0.00  0.00    +0.000 A 
ATOM     23  N   UNL     1       3.677   4.637  19.173  0.00  0.00    +0.000 N 
ATOM     24  N   UNL     1       4.803   4.920  18.494  0.00  0.00    +0.000 NA
ATOM     25  N   UNL     1       4.665   6.119  17.959  0.00  0.00    +0.000 NA
BRANCH  23  26
ATOM     26  C   UNL     1       3.499   3.368  19.870  0.00  0.00    +0.000 C 
ATOM     27  C   UNL     1       2.398   3.413  20.941  0.00  0.00    +0.000 C 
ATOM     28  C   UNL     1       0.984   3.381  20.363  0.00  0.00    +0.000 C 
ATOM     29  C   UNL     1       0.778   2.248  19.360  0.00  0.00    +0.000 C 
ATOM     30  C   UNL     1       1.884   2.136  18.312  0.00  0.00    +0.000 C 
ATOM     31  C   UNL     1       3.286   2.184  18.918  0.00  0.00    +0.000 C 
ENDBRANCH  23  26
ENDBRANCH  20  21
ENDBRANCH   3  20
TORSDOF 5
ENDMDL
MODEL 8
REMARK VINA RESULT:      -7.4      1.632      2.543
REMARK  Name = 
REMARK  7 active torsions:
REMARK  status: ('A' for Active; 'I' for Inactive)
REMARK    1  A    between atoms: C_2  and  C_3
REMARK    2  A    between atoms: C_2  and  C_18
REMARK    3  A    between atoms: N_5  and  C_6
REMARK    4  A    between atoms: C_6  and  C_7
REMARK    5  A    between atoms: N_9  and  C_10
REMARK    6  A    between atoms: C_21  and  C_22
REMARK    7  A    between atoms: C_27  and  C_28
REMARK                            x       y       z     vdW  Elec       q    Type
REMARK                         _______ _______ _______ _____ _____    ______ ____
ROOT
ATOM      1  C   UNL     1       1.162  10.519  19.103  0.00  0.00    +0.000 C 
ATOM      2  O   UNL     1       1.696  11.383  18.409  0.00  0.00    +0.000 OA
ATOM      3  N   UNL     1       1.382   9.187  18.899  0.00  0.00    +0.000 N 
ATOM      4  H   UNL     1       0.770   8.494  19.301  0.00  0.00    +0.000 HD
ENDROOT
BRANCH   1   6
ATOM      5  C   UNL     1      -0.428   9.815  20.719  0.00  0.00    +0.000 C 
ATOM      6  C   UNL     1       0.226  10.885  20.223  0.00  0.00    +0.000 C 
BRANCH   6   7
ATOM      7  C   UNL     1       0.017  12.340  20.660  0.00  0.00    +0.000 C 
ATOM      8  C   UNL     1      -0.452  12.502  22.121  0.00  0.00    +0.000 C 
ATOM      9  C   UNL     1      -1.886  12.114  22.492  0.00  0.00    +0.000 C 
ATOM     10  C   UNL     1      -2.975  13.022  21.899  0.00  0.00    +0.000 C 
ATOM     11  C   UNL     1      -4.246  12.902  22.755  0.00  0.00    +0.000 C 
ATOM     12  C   UNL     1      -3.300  12.838  20.397  0.00  0.00    +0.000 C 
ATOM     13  C   UNL     1      -4.231  11.679  20.027  0.00  0.00    +0.000 C 
ATOM     14  C   UNL     1      -3.846  11.428  18.596  0.00  0.00    +0.000 C 
ATOM     15  O   UNL     1      -4.490  10.757  17.804  0.00  0.00    +0.000 OA
ATOM     16  C   UNL     1      -2.519  12.004  18.300  0.00  0.00    +0.000 C 
ATOM     17  C   UNL     1      -1.746  11.707  17.070  0.00  0.00    +0.000 C 
ATOM     18  C   UNL     1      -2.170  12.673  19.412  0.00  0.00    +0.000 C 
ATOM     19  C   UNL     1      -0.803  13.210  19.676  0.00  0.00    +0.000 C 
ENDBRANCH   6   7
ENDBRANCH   1   6
BRANCH   3  20
ATOM     20  C   UNL     1       2.245   8.744  17.827  0.00  0.00    +0.000 C 
BRANCH  20  21
ATOM     21  C   UNL     1       2.838   7.430  18.156  0.00  0.00    +0.000 A 
ATOM     22  C   UNL     1       2.467   6.502  19.109  0.00  0.00    +0.000 A 
ATOM     23  N   UNL     1       3.346   5.476  18.934  0.00  0.00    +0.000 N 
ATOM     24  N   UNL     1       4.217   5.755  17.946  0.00  0.00    +0.000 NA
ATOM     25  N   UNL     1       3.915   6.946  17.463  0.00  0.00    +0.000 NA
BRANCH  23  26
ATOM     26  C   UNL     1       3.395   4.217  19.668  0.00  0.00    +0.000 C 
ATOM     27  C   UNL     1       2.305   4.098  20.744  0.00  0.00    +0.000 C 
ATOM     28  C   UNL     1       0.919   3.801  20.177  0.00  0.00    +0.000 C 
ATOM     29  C   UNL     1       0.913   2.622  19.208  0.00  0.00    +0.000 C 
ATOM     30  C   UNL     1       2.019   2.676  18.156  0.00  0.00    +0.000 C 
ATOM     31  C   UNL     1       3.392   2.986  18.751  0.00  0.00    +0.000 C 
ENDBRANCH  23  26
ENDBRANCH  20  21
ENDBRANCH   3  20
TORSDOF 5
ENDMDL
MODEL 9
REMARK VINA RESULT:      -7.3      1.598      2.317
REMARK  Name = 
REMARK  7 active torsions:
REMARK  status: ('A' for Active; 'I' for Inactive)
REMARK    1  A    between atoms: C_2  and  C_3
REMARK    2  A    between atoms: C_2  and  C_18
REMARK    3  A    between atoms: N_5  and  C_6
REMARK    4  A    between atoms: C_6  and  C_7
REMARK    5  A    between atoms: N_9  and  C_10
REMARK    6  A    between atoms: C_21  and  C_22
REMARK    7  A    between atoms: C_27  and  C_28
REMARK                            x       y       z     vdW  Elec       q    Type
REMARK                         _______ _______ _______ _____ _____    ______ ____
ROOT
ATOM      1  C   UNL     1       1.003   9.569  18.466  0.00  0.00    +0.000 C 
ATOM      2  O   UNL     1       0.286   9.257  17.517  0.00  0.00    +0.000 OA
ATOM      3  N   UNL     1       2.284   9.113  18.587  0.00  0.00    +0.000 N 
ATOM      4  H   UNL     1       2.773   9.172  19.466  0.00  0.00    +0.000 HD
ENDROOT
BRANCH   1   6
ATOM      5  C   UNL     1      -0.304   9.841  20.429  0.00  0.00    +0.000 C 
ATOM      6  C   UNL     1       0.504  10.477  19.556  0.00  0.00    +0.000 C 
BRANCH   6   7
ATOM      7  C   UNL     1       0.842  11.973  19.582  0.00  0.00    +0.000 C 
ATOM      8  C   UNL     1       1.024  12.558  20.997  0.00  0.00    +0.000 C 
ATOM      9  C   UNL     1      -0.206  12.753  21.889  0.00  0.00    +0.000 C 
ATOM     10  C   UNL     1      -1.181  13.843  21.416  0.00  0.00    +0.000 C 
ATOM     11  C   UNL     1      -2.014  14.322  22.616  0.00  0.00    +0.000 C 
ATOM     12  C   UNL     1      -2.091  13.497  20.214  0.00  0.00    +0.000 C 
ATOM     13  C   UNL     1      -3.346  12.669  20.511  0.00  0.00    +0.000 C 
ATOM     14  C   UNL     1      -3.613  12.036  19.174  0.00  0.00    +0.000 C 
ATOM     15  O   UNL     1      -4.654  11.482  18.856  0.00  0.00    +0.000 OA
ATOM     16  C   UNL     1      -2.404  12.065  18.327  0.00  0.00    +0.000 C 
ATOM     17  C   UNL     1      -2.259  11.297  17.067  0.00  0.00    +0.000 C 
ATOM     18  C   UNL     1      -1.503  12.777  19.026  0.00  0.00    +0.000 C 
ATOM     19  C   UNL     1      -0.053  12.864  18.685  0.00  0.00    +0.000 C 
ENDBRANCH   6   7
ENDBRANCH   1   6
BRANCH   3  20
ATOM     20  C   UNL     1       2.836   8.213  17.599  0.00  0.00    +0.000 C 
BRANCH  20  21
ATOM     21  C   UNL     1       3.214   6.930  18.230  0.00  0.00    +0.000 A 
ATOM     22  C   UNL     1       2.549   6.175  19.176  0.00  0.00    +0.000 A 
ATOM     23  N   UNL     1       3.348   5.087  19.355  0.00  0.00    +0.000 N 
ATOM     24  N   UNL     1       4.446   5.166  18.581  0.00  0.00    +0.000 NA
ATOM     25  N   UNL     1       4.374   6.288  17.889  0.00  0.00    +0.000 NA
BRANCH  23  26
ATOM     26  C   UNL     1       3.110   3.948  20.235  0.00  0.00    +0.000 C 
ATOM     27  C   UNL     1       1.665   3.871  20.750  0.00  0.00    +0.000 C 
ATOM     28  C   UNL     1       0.672   3.367  19.705  0.00  0.00    +0.000 C 
ATOM     29  C   UNL     1       1.123   2.072  19.033  0.00  0.00    +0.000 C 
ATOM     30  C   UNL     1       2.574   2.091  18.557  0.00  0.00    +0.000 C 
ATOM     31  C   UNL     1       3.542   2.611  19.618  0.00  0.00    +0.000 C 
ENDBRANCH  23  26
ENDBRANCH  20  21
ENDBRANCH   3  20
TORSDOF 5
ENDMDL
