MODEL 1
REMARK VINA RESULT:      -9.5      0.000      0.000
REMARK  Name = 
REMARK  6 active torsions:
REMARK  status: ('A' for Active; 'I' for Inactive)
REMARK    1  A    between atoms: C_1  and  O_2
REMARK    2  A    between atoms: O_2  and  C_3
REMARK    3  A    between atoms: C_6  and  C_7
REMARK    4  A    between atoms: C_14  and  N_15
REMARK    5  A    between atoms: C_22  and  S_23
REMARK    6  A    between atoms: S_23  and  N_26
REMARK                            x       y       z     vdW  Elec       q    Type
REMARK                         _______ _______ _______ _____ _____    ______ ____
ROOT
ATOM      1  N   UNL     1       0.172  10.610  18.667  0.00  0.00    +0.000 N 
ATOM      2  C   UNL     1       0.799  11.889  18.698  0.00  0.00    +0.000 A 
ATOM      3  O   UNL     1       1.962  12.165  18.956  0.00  0.00    +0.000 OA
ATOM      4  C   UNL     1      -0.156  13.028  18.479  0.00  0.00    +0.000 A 
ATOM      5  C   UNL     1      -0.954  12.941  19.561  0.00  0.00    +0.000 A 
ATOM      6  C   UNL     1      -1.899  11.857  19.272  0.00  0.00    +0.000 A 
ATOM      7  C   UNL     1      -3.239  12.257  19.161  0.00  0.00    +0.000 A 
ATOM      8  C   UNL     1      -4.068  11.552  18.317  0.00  0.00    +0.000 A 
ATOM      9  C   UNL     1      -3.554  10.399  17.679  0.00  0.00    +0.000 A 
ATOM     10  C   UNL     1      -2.202   9.928  17.915  0.00  0.00    +0.000 A 
ATOM     11  C   UNL     1      -1.323  10.646  18.746  0.00  0.00    +0.000 A 
ENDROOT
BRANCH   1  17
ATOM     12  C   UNL     1       0.990   9.054  20.466  0.00  0.00    +0.000 A 
ATOM     13  C   UNL     1       1.496   7.803  20.869  0.00  0.00    +0.000 A 
ATOM     14  C   UNL     1       2.133   6.958  19.965  0.00  0.00    +0.000 A 
ATOM     15  C   UNL     1       2.300   7.331  18.620  0.00  0.00    +0.000 A 
ATOM     16  C   UNL     1       1.753   8.611  18.203  0.00  0.00    +0.000 A 
ATOM     17  C   UNL     1       1.082   9.515  19.113  0.00  0.00    +0.000 A 
BRANCH  15  18
ATOM     18  C   UNL     1       3.035   6.252  17.764  0.00  0.00    +0.000 C 
ATOM     19  C   UNL     1       2.388   4.843  17.896  0.00  0.00    +0.000 C 
ATOM     20  C   UNL     1       3.175   3.727  17.207  0.00  0.00    +0.000 C 
ATOM     21  O   UNL     1       4.547   3.772  17.579  0.00  0.00    +0.000 OA
ATOM     22  C   UNL     1       5.154   4.982  17.138  0.00  0.00    +0.000 C 
ATOM     23  C   UNL     1       4.563   6.185  17.879  0.00  0.00    +0.000 C 
ENDBRANCH  15  18
BRANCH  12  25
ATOM     24  C   UNL     1       0.769   9.305  22.820  0.00  0.00    +0.000 C 
ATOM     25  O   UNL     1       0.643   9.873  21.520  0.00  0.00    +0.000 OA
ENDBRANCH  12  25
ENDBRANCH   1  17
BRANCH   8  26
ATOM     26  S   UNL     1      -5.739  12.178  18.087  0.00  0.00    +0.000 S 
ATOM     27  O   UNL     1      -6.028  13.058  19.187  0.00  0.00    +0.000 OA
ATOM     28  O   UNL     1      -5.786  12.646  16.708  0.00  0.00    +0.000 OA
BRANCH  26  29
ATOM     29  N   UNL     1      -6.807  10.873  18.156  0.00  0.00    +0.000 N 
ATOM     30  C   UNL     1      -7.036  10.133  19.306  0.00  0.00    +0.000 A 
ATOM     31  C   UNL     1      -7.913  10.443  20.365  0.00  0.00    +0.000 A 
ATOM     32  C   UNL     1      -7.872   9.332  21.171  0.00  0.00    +0.000 A 
ATOM     33  O   UNL     1      -7.054   8.404  20.615  0.00  0.00    +0.000 OA
ATOM     34  N   UNL     1      -6.562   8.890  19.415  0.00  0.00    +0.000 NA
ATOM     35  H   UNL     1      -6.749  10.318  17.306  0.00  0.00    +0.000 HD
ENDBRANCH  26  29
ENDBRANCH   8  26
TORSDOF 5
ENDMDL
MODEL 2
REMARK VINA RESULT:      -9.2      1.540      1.772
REMARK  Name = 
REMARK  6 active torsions:
REMARK  status: ('A' for Active; 'I' for Inactive)
REMARK    1  A    between atoms: C_1  and  O_2
REMARK    2  A    between atoms: O_2  and  C_3
REMARK    3  A    between atoms: C_6  and  C_7
REMARK    4  A    between atoms: C_14  and  N_15
REMARK    5  A    between atoms: C_22  and  S_23
REMARK    6  A    between atoms: S_23  and  N_26
REMARK                            x       y       z     vdW  Elec       q    Type
REMARK                         _______ _______ _______ _____ _____    ______ ____
ROOT
ATOM      1  N   UNL     1       0.285  10.591  18.657  0.00  0.00    +0.000 N 
ATOM      2  C   UNL     1       0.892  11.875  18.757  0.00  0.00    +0.000 A 
ATOM      3  O   UNL     1       2.045  12.156  19.057  0.00  0.00    +0.000 OA
ATOM      4  C   UNL     1      -0.072  13.010  18.557  0.00  0.00    +0.000 A 
ATOM      5  C   UNL     1      -0.897  12.869  19.612  0.00  0.00    +0.000 A 
ATOM      6  C   UNL     1      -1.819  11.786  19.254  0.00  0.00    +0.000 A 
ATOM      7  C   UNL     1      -3.161  12.173  19.123  0.00  0.00    +0.000 A 
ATOM      8  C   UNL     1      -3.957  11.492  18.229  0.00  0.00    +0.000 A 
ATOM      9  C   UNL     1      -3.411  10.373  17.559  0.00  0.00    +0.000 A 
ATOM     10  C   UNL     1      -2.059   9.909  17.813  0.00  0.00    +0.000 A 
ATOM     11  C   UNL     1      -1.212  10.605  18.696  0.00  0.00    +0.000 A 
ENDROOT
BRANCH   1  17
ATOM     12  C   UNL     1       1.143   9.042  20.443  0.00  0.00    +0.000 A 
ATOM     13  C   UNL     1       1.649   7.788  20.841  0.00  0.00    +0.000 A 
ATOM     14  C   UNL     1       2.250   6.930  19.925  0.00  0.00    +0.000 A 
ATOM     15  C   UNL     1       2.378   7.290  18.571  0.00  0.00    +0.000 A 
ATOM     16  C   UNL     1       1.830   8.573  18.162  0.00  0.00    +0.000 A 
ATOM     17  C   UNL     1       1.197   9.491  19.084  0.00  0.00    +0.000 A 
BRANCH  15  18
ATOM     18  C   UNL     1       3.076   6.198  17.703  0.00  0.00    +0.000 C 
ATOM     19  C   UNL     1       2.445   4.788  17.897  0.00  0.00    +0.000 C 
ATOM     20  C   UNL     1       3.203   3.662  17.192  0.00  0.00    +0.000 C 
ATOM     21  O   UNL     1       4.592   3.722  17.493  0.00  0.00    +0.000 OA
ATOM     22  C   UNL     1       5.168   4.925  16.996  0.00  0.00    +0.000 C 
ATOM     23  C   UNL     1       4.608   6.141  17.740  0.00  0.00    +0.000 C 
ENDBRANCH  15  18
BRANCH  12  25
ATOM     24  C   UNL     1      -0.215   9.435  22.354  0.00  0.00    +0.000 C 
ATOM     25  O   UNL     1       0.837   9.872  21.501  0.00  0.00    +0.000 OA
ENDBRANCH  12  25
ENDBRANCH   1  17
BRANCH   8  26
ATOM     26  S   UNL     1      -5.630  12.105  17.978  0.00  0.00    +0.000 S 
ATOM     27  O   UNL     1      -5.689  12.680  16.662  0.00  0.00    +0.000 OA
ATOM     28  O   UNL     1      -6.503  11.003  18.364  0.00  0.00    +0.000 OA
BRANCH  26  29
ATOM     29  N   UNL     1      -5.921  13.326  19.106  0.00  0.00    +0.000 N 
ATOM     30  C   UNL     1      -6.469  13.093  20.359  0.00  0.00    +0.000 A 
ATOM     31  C   UNL     1      -5.798  12.671  21.525  0.00  0.00    +0.000 A 
ATOM     32  C   UNL     1      -6.758  12.733  22.505  0.00  0.00    +0.000 A 
ATOM     33  O   UNL     1      -7.915  13.196  21.972  0.00  0.00    +0.000 OA
ATOM     34  N   UNL     1      -7.722  13.467  20.628  0.00  0.00    +0.000 NA
ATOM     35  H   UNL     1      -6.268  14.163  18.647  0.00  0.00    +0.000 HD
ENDBRANCH  26  29
ENDBRANCH   8  26
TORSDOF 5
ENDMDL
MODEL 3
REMARK VINA RESULT:      -8.8      1.431      1.560
REMARK  Name = 
REMARK  6 active torsions:
REMARK  status: ('A' for Active; 'I' for Inactive)
REMARK    1  A    between atoms: C_1  and  O_2
REMARK    2  A    between atoms: O_2  and  C_3
REMARK    3  A    between atoms: C_6  and  C_7
REMARK    4  A    between atoms: C_14  and  N_15
REMARK    5  A    between atoms: C_22  and  S_23
REMARK    6  A    between atoms: S_23  and  N_26
REMARK                            x       y       z     vdW  Elec       q    Type
REMARK                         _______ _______ _______ _____ _____    ______ ____
ROOT
ATOM      1  N   UNL     1       0.015  10.941  18.851  0.00  0.00    +0.000 N 
ATOM      2  C   UNL     1       0.601  12.233  18.972  0.00  0.00    +0.000 A 
ATOM      3  O   UNL     1       1.757  12.527  19.247  0.00  0.00    +0.000 OA
ATOM      4  C   UNL     1      -0.389  13.355  18.834  0.00  0.00    +0.000 A 
ATOM      5  C   UNL     1      -1.179  13.168  19.908  0.00  0.00    +0.000 A 
ATOM      6  C   UNL     1      -2.092  12.078  19.545  0.00  0.00    +0.000 A 
ATOM      7  C   UNL     1      -3.444  12.443  19.465  0.00  0.00    +0.000 A 
ATOM      8  C   UNL     1      -4.254  11.774  18.574  0.00  0.00    +0.000 A 
ATOM      9  C   UNL     1      -3.707  10.685  17.856  0.00  0.00    +0.000 A 
ATOM     10  C   UNL     1      -2.340  10.240  18.057  0.00  0.00    +0.000 A 
ATOM     11  C   UNL     1      -1.480  10.925  18.935  0.00  0.00    +0.000 A 
ENDROOT
BRANCH   1  17
ATOM     12  C   UNL     1       0.914   9.317  20.549  0.00  0.00    +0.000 A 
ATOM     13  C   UNL     1       1.457   8.059  20.876  0.00  0.00    +0.000 A 
ATOM     14  C   UNL     1       2.087   7.274  19.915  0.00  0.00    +0.000 A 
ATOM     15  C   UNL     1       2.209   7.717  18.585  0.00  0.00    +0.000 A 
ATOM     16  C   UNL     1       1.624   9.004  18.248  0.00  0.00    +0.000 A 
ATOM     17  C   UNL     1       0.959   9.846  19.219  0.00  0.00    +0.000 A 
BRANCH  15  18
ATOM     18  C   UNL     1       2.944   6.699  17.659  0.00  0.00    +0.000 C 
ATOM     19  C   UNL     1       2.736   5.224  18.110  0.00  0.00    +0.000 C 
ATOM     20  C   UNL     1       3.573   4.208  17.329  0.00  0.00    +0.000 C 
ATOM     21  O   UNL     1       4.936   4.611  17.273  0.00  0.00    +0.000 OA
ATOM     22  C   UNL     1       5.075   5.835  16.559  0.00  0.00    +0.000 C 
ATOM     23  C   UNL     1       4.413   6.986  17.323  0.00  0.00    +0.000 C 
ENDBRANCH  15  18
BRANCH  12  25
ATOM     24  C   UNL     1      -0.370   9.496  22.542  0.00  0.00    +0.000 C 
ATOM     25  O   UNL     1       0.578  10.074  21.652  0.00  0.00    +0.000 OA
ENDBRANCH  12  25
ENDBRANCH   1  17
BRANCH   8  26
ATOM     26  S   UNL     1      -5.944  12.362  18.392  0.00  0.00    +0.000 S 
ATOM     27  O   UNL     1      -5.931  13.787  18.585  0.00  0.00    +0.000 OA
ATOM     28  O   UNL     1      -6.423  11.770  17.149  0.00  0.00    +0.000 OA
BRANCH  26  29
ATOM     29  N   UNL     1      -6.881  11.668  19.611  0.00  0.00    +0.000 N 
ATOM     30  C   UNL     1      -7.025  12.225  20.873  0.00  0.00    +0.000 A 
ATOM     31  C   UNL     1      -7.916  13.245  21.265  0.00  0.00    +0.000 A 
ATOM     32  C   UNL     1      -7.759  13.322  22.628  0.00  0.00    +0.000 A 
ATOM     33  O   UNL     1      -6.863  12.387  23.030  0.00  0.00    +0.000 OA
ATOM     34  N   UNL     1      -6.433  11.664  21.930  0.00  0.00    +0.000 NA
ATOM     35  H   UNL     1      -6.780  10.657  19.609  0.00  0.00    +0.000 HD
ENDBRANCH  26  29
ENDBRANCH   8  26
TORSDOF 5
ENDMDL
MODEL 4
REMARK VINA RESULT:      -8.7      3.393      9.726
REMARK  Name = 
REMARK  6 active torsions:
REMARK  status: ('A' for Active; 'I' for Inactive)
REMARK    1  A    between atoms: C_1  and  O_2
REMARK    2  A    between atoms: O_2  and  C_3
REMARK    3  A    between atoms: C_6  and  C_7
REMARK    4  A    between atoms: C_14  and  N_15
REMARK    5  A    between atoms: C_22  and  S_23
REMARK    6  A    between atoms: S_23  and  N_26
REMARK                            x       y       z     vdW  Elec       q    Type
REMARK                         _______ _______ _______ _____ _____    ______ ____
ROOT
ATOM      1  N   UNL     1       0.506  10.782  20.123  0.00  0.00    +0.000 N 
ATOM      2  C   UNL     1       1.099  11.842  19.378  0.00  0.00    +0.000 A 
ATOM      3  O   UNL     1       0.737  13.007  19.284  0.00  0.00    +0.000 OA
ATOM      4  C   UNL     1       2.259  11.402  18.532  0.00  0.00    +0.000 A 
ATOM      5  C   UNL     1       1.669  10.570  17.653  0.00  0.00    +0.000 A 
ATOM      6  C   UNL     1       1.480   9.304  18.368  0.00  0.00    +0.000 A 
ATOM      7  C   UNL     1       2.215   8.223  17.859  0.00  0.00    +0.000 A 
ATOM      8  C   UNL     1       2.627   7.239  18.731  0.00  0.00    +0.000 A 
ATOM      9  C   UNL     1       2.205   7.315  20.078  0.00  0.00    +0.000 A 
ATOM     10  C   UNL     1       1.332   8.373  20.552  0.00  0.00    +0.000 A 
ATOM     11  C   UNL     1       0.923   9.409  19.692  0.00  0.00    +0.000 A 
ENDROOT
BRANCH   1  17
ATOM     12  C   UNL     1      -0.782  11.451  22.177  0.00  0.00    +0.000 A 
ATOM     13  C   UNL     1      -1.804  12.199  22.795  0.00  0.00    +0.000 A 
ATOM     14  C   UNL     1      -2.876  12.699  22.062  0.00  0.00    +0.000 A 
ATOM     15  C   UNL     1      -2.978  12.465  20.679  0.00  0.00    +0.000 A 
ATOM     16  C   UNL     1      -1.908  11.716  20.042  0.00  0.00    +0.000 A 
ATOM     17  C   UNL     1      -0.776  11.183  20.770  0.00  0.00    +0.000 A 
BRANCH  15  18
ATOM     18  C   UNL     1      -4.247  13.106  20.034  0.00  0.00    +0.000 C 
ATOM     19  C   UNL     1      -4.996  14.058  21.011  0.00  0.00    +0.000 C 
ATOM     20  C   UNL     1      -6.333  14.576  20.477  0.00  0.00    +0.000 C 
ATOM     21  O   UNL     1      -7.130  13.505  19.986  0.00  0.00    +0.000 OA
ATOM     22  C   UNL     1      -6.504  12.875  18.873  0.00  0.00    +0.000 C 
ATOM     23  C   UNL     1      -5.216  12.167  19.306  0.00  0.00    +0.000 C 
ENDBRANCH  15  18
BRANCH  12  25
ATOM     24  C   UNL     1      -0.332   9.479  23.426  0.00  0.00    +0.000 C 
ATOM     25  O   UNL     1       0.045  10.805  23.072  0.00  0.00    +0.000 OA
ENDBRANCH  12  25
ENDBRANCH   1  17
BRANCH   8  26
ATOM     26  S   UNL     1       3.689   5.944  18.073  0.00  0.00    +0.000 S 
ATOM     27  O   UNL     1       4.649   5.611  19.090  0.00  0.00    +0.000 OA
ATOM     28  O   UNL     1       2.779   4.942  17.531  0.00  0.00    +0.000 OA
BRANCH  26  29
ATOM     29  N   UNL     1       4.518   6.565  16.741  0.00  0.00    +0.000 N 
ATOM     30  C   UNL     1       5.570   5.907  16.122  0.00  0.00    +0.000 A 
ATOM     31  C   UNL     1       5.492   4.892  15.145  0.00  0.00    +0.000 A 
ATOM     32  C   UNL     1       6.797   4.691  14.766  0.00  0.00    +0.000 A 
ATOM     33  O   UNL     1       7.598   5.551  15.442  0.00  0.00    +0.000 OA
ATOM     34  N   UNL     1       6.821   6.350  16.263  0.00  0.00    +0.000 NA
ATOM     35  H   UNL     1       4.651   7.568  16.838  0.00  0.00    +0.000 HD
ENDBRANCH  26  29
ENDBRANCH   8  26
TORSDOF 5
ENDMDL
MODEL 5
REMARK VINA RESULT:      -8.5      3.636      9.451
REMARK  Name = 
REMARK  6 active torsions:
REMARK  status: ('A' for Active; 'I' for Inactive)
REMARK    1  A    between atoms: C_1  and  O_2
REMARK    2  A    between atoms: O_2  and  C_3
REMARK    3  A    between atoms: C_6  and  C_7
REMARK    4  A    between atoms: C_14  and  N_15
REMARK    5  A    between atoms: C_22  and  S_23
REMARK    6  A    between atoms: S_23  and  N_26
REMARK                            x       y       z     vdW  Elec       q    Type
REMARK                         _______ _______ _______ _____ _____    ______ ____
ROOT
ATOM      1  N   UNL     1       1.540   8.737  19.360  0.00  0.00    +0.000 N 
ATOM      2  C   UNL     1       2.298   9.261  18.274  0.00  0.00    +0.000 A 
ATOM      3  O   UNL     1       2.182  10.340  17.709  0.00  0.00    +0.000 OA
ATOM      4  C   UNL     1       3.294   8.285  17.714  0.00  0.00    +0.000 A 
ATOM      5  C   UNL     1       2.496   7.318  17.222  0.00  0.00    +0.000 A 
ATOM      6  C   UNL     1       2.087   6.513  18.379  0.00  0.00    +0.000 A 
ATOM      7  C   UNL     1       2.552   5.189  18.369  0.00  0.00    +0.000 A 
ATOM      8  C   UNL     1       2.797   4.570  19.576  0.00  0.00    +0.000 A 
ATOM      9  C   UNL     1       2.475   5.264  20.765  0.00  0.00    +0.000 A 
ATOM     10  C   UNL     1       1.869   6.583  20.745  0.00  0.00    +0.000 A 
ATOM     11  C   UNL     1       1.637   7.253  19.530  0.00  0.00    +0.000 A 
ENDROOT
BRANCH   1  17
ATOM     12  C   UNL     1       0.573  10.504  20.867  0.00  0.00    +0.000 A 
ATOM     13  C   UNL     1      -0.249  11.630  21.068  0.00  0.00    +0.000 A 
ATOM     14  C   UNL     1      -1.285  11.932  20.189  0.00  0.00    +0.000 A 
ATOM     15  C   UNL     1      -1.550  11.115  19.075  0.00  0.00    +0.000 A 
ATOM     16  C   UNL     1      -0.682   9.970  18.859  0.00  0.00    +0.000 A 
ATOM     17  C   UNL     1       0.406   9.625  19.749  0.00  0.00    +0.000 A 
BRANCH  15  18
ATOM     18  C   UNL     1      -2.748  11.617  18.210  0.00  0.00    +0.000 C 
ATOM     19  C   UNL     1      -4.001  11.960  19.068  0.00  0.00    +0.000 C 
ATOM     20  C   UNL     1      -5.247  12.296  18.246  0.00  0.00    +0.000 C 
ATOM     21  O   UNL     1      -5.479  11.307  17.250  0.00  0.00    +0.000 OA
ATOM     22  C   UNL     1      -4.411  11.274  16.309  0.00  0.00    +0.000 C 
ATOM     23  C   UNL     1      -3.119  10.789  16.974  0.00  0.00    +0.000 C 
ENDBRANCH  15  18
BRANCH  12  25
ATOM     24  C   UNL     1       0.762   9.357  22.942  0.00  0.00    +0.000 C 
ATOM     25  O   UNL     1       1.359  10.195  21.958  0.00  0.00    +0.000 OA
ENDBRANCH  12  25
ENDBRANCH   1  17
BRANCH   8  26
ATOM     26  S   UNL     1       3.528   2.927  19.527  0.00  0.00    +0.000 S 
ATOM     27  O   UNL     1       3.537   2.416  20.871  0.00  0.00    +0.000 OA
ATOM     28  O   UNL     1       2.830   2.229  18.455  0.00  0.00    +0.000 OA
BRANCH  26  29
ATOM     29  N   UNL     1       5.126   3.074  19.004  0.00  0.00    +0.000 N 
ATOM     30  C   UNL     1       5.652   4.244  18.479  0.00  0.00    +0.000 A 
ATOM     31  C   UNL     1       6.162   5.350  19.189  0.00  0.00    +0.000 A 
ATOM     32  C   UNL     1       6.683   6.165  18.212  0.00  0.00    +0.000 A 
ATOM     33  O   UNL     1       6.528   5.571  17.003  0.00  0.00    +0.000 OA
ATOM     34  N   UNL     1       5.920   4.339  17.174  0.00  0.00    +0.000 NA
ATOM     35  H   UNL     1       5.425   2.229  18.525  0.00  0.00    +0.000 HD
ENDBRANCH  26  29
ENDBRANCH   8  26
TORSDOF 5
ENDMDL
MODEL 6
REMARK VINA RESULT:      -8.4      3.292      8.833
REMARK  Name = 
REMARK  6 active torsions:
REMARK  status: ('A' for Active; 'I' for Inactive)
REMARK    1  A    between atoms: C_1  and  O_2
REMARK    2  A    between atoms: O_2  and  C_3
REMARK    3  A    between atoms: C_6  and  C_7
REMARK    4  A    between atoms: C_14  and  N_15
REMARK    5  A    between atoms: C_22  and  S_23
REMARK    6  A    between atoms: S_23  and  N_26
REMARK                            x       y       z     vdW  Elec       q    Type
REMARK                         _______ _______ _______ _____ _____    ______ ____
ROOT
ATOM      1  N   UNL     1       0.284  10.940  20.038  0.00  0.00    +0.000 N 
ATOM      2  C   UNL     1       0.924  12.022  19.368  0.00  0.00    +0.000 A 
ATOM      3  O   UNL     1       0.553  13.183  19.261  0.00  0.00    +0.000 OA
ATOM      4  C   UNL     1       2.164  11.615  18.624  0.00  0.00    +0.000 A 
ATOM      5  C   UNL     1       1.670  10.791  17.681  0.00  0.00    +0.000 A 
ATOM      6  C   UNL     1       1.438   9.509  18.355  0.00  0.00    +0.000 A 
ATOM      7  C   UNL     1       2.234   8.449  17.897  0.00  0.00    +0.000 A 
ATOM      8  C   UNL     1       2.581   7.455  18.786  0.00  0.00    +0.000 A 
ATOM      9  C   UNL     1       2.037   7.500  20.090  0.00  0.00    +0.000 A 
ATOM     10  C   UNL     1       1.107   8.536  20.500  0.00  0.00    +0.000 A 
ATOM     11  C   UNL     1       0.760   9.582  19.624  0.00  0.00    +0.000 A 
ENDROOT
BRANCH   1  17
ATOM     12  C   UNL     1      -1.161  11.749  21.931  0.00  0.00    +0.000 A 
ATOM     13  C   UNL     1      -2.269  12.480  22.404  0.00  0.00    +0.000 A 
ATOM     14  C   UNL     1      -3.335  12.794  21.567  0.00  0.00    +0.000 A 
ATOM     15  C   UNL     1      -3.344  12.384  20.222  0.00  0.00    +0.000 A 
ATOM     16  C   UNL     1      -2.187  11.653  19.733  0.00  0.00    +0.000 A 
ATOM     17  C   UNL     1      -1.058  11.310  20.572  0.00  0.00    +0.000 A 
BRANCH  15  18
ATOM     18  C   UNL     1      -4.622  12.832  19.446  0.00  0.00    +0.000 C 
ATOM     19  C   UNL     1      -5.778  13.258  20.398  0.00  0.00    +0.000 C 
ATOM     20  C   UNL     1      -7.101  13.546  19.684  0.00  0.00    +0.000 C 
ATOM     21  O   UNL     1      -7.439  12.484  18.799  0.00  0.00    +0.000 OA
ATOM     22  C   UNL     1      -6.474  12.363  17.759  0.00  0.00    +0.000 C 
ATOM     23  C   UNL     1      -5.123  11.914  18.324  0.00  0.00    +0.000 C 
ENDBRANCH  15  18
BRANCH  12  25
ATOM     24  C   UNL     1      -0.555   9.949  23.362  0.00  0.00    +0.000 C 
ATOM     25  O   UNL     1      -0.336  11.289  22.937  0.00  0.00    +0.000 OA
ENDBRANCH  12  25
ENDBRANCH   1  17
BRANCH   8  26
ATOM     26  S   UNL     1       3.719   6.188  18.205  0.00  0.00    +0.000 S 
ATOM     27  O   UNL     1       4.437   6.731  17.084  0.00  0.00    +0.000 OA
ATOM     28  O   UNL     1       4.415   5.724  19.399  0.00  0.00    +0.000 OA
BRANCH  26  29
ATOM     29  N   UNL     1       2.815   4.869  17.670  0.00  0.00    +0.000 N 
ATOM     30  C   UNL     1       2.361   3.863  18.510  0.00  0.00    +0.000 A 
ATOM     31  C   UNL     1       1.202   3.873  19.313  0.00  0.00    +0.000 A 
ATOM     32  C   UNL     1       1.139   2.600  19.827  0.00  0.00    +0.000 A 
ATOM     33  O   UNL     1       2.169   1.867  19.336  0.00  0.00    +0.000 OA
ATOM     34  N   UNL     1       2.914   2.648  18.469  0.00  0.00    +0.000 NA
ATOM     35  H   UNL     1       3.157   4.541  16.771  0.00  0.00    +0.000 HD
ENDBRANCH  26  29
ENDBRANCH   8  26
TORSDOF 5
ENDMDL
MODEL 7
REMARK VINA RESULT:      -8.2      3.864      9.600
REMARK  Name = 
REMARK  6 active torsions:
REMARK  status: ('A' for Active; 'I' for Inactive)
REMARK    1  A    between atoms: C_1  and  O_2
REMARK    2  A    between atoms: O_2  and  C_3
REMARK    3  A    between atoms: C_6  and  C_7
REMARK    4  A    between atoms: C_14  and  N_15
REMARK    5  A    between atoms: C_22  and  S_23
REMARK    6  A    between atoms: S_23  and  N_26
REMARK                            x       y       z     vdW  Elec       q    Type
REMARK                         _______ _______ _______ _____ _____    ______ ____
ROOT
ATOM      1  N   UNL     1       0.554  10.074  19.362  0.00  0.00    +0.000 N 
ATOM      2  C   UNL     1      -0.229   9.924  20.542  0.00  0.00    +0.000 A 
ATOM      3  O   UNL     1      -0.871  10.772  21.148  0.00  0.00    +0.000 OA
ATOM      4  C   UNL     1      -0.147   8.550  21.143  0.00  0.00    +0.000 A 
ATOM      5  C   UNL     1       1.148   8.477  21.505  0.00  0.00    +0.000 A 
ATOM      6  C   UNL     1       1.889   8.178  20.275  0.00  0.00    +0.000 A 
ATOM      7  C   UNL     1       2.528   6.929  20.260  0.00  0.00    +0.000 A 
ATOM      8  C   UNL     1       2.682   6.284  19.053  0.00  0.00    +0.000 A 
ATOM      9  C   UNL     1       2.277   6.955  17.876  0.00  0.00    +0.000 A 
ATOM     10  C   UNL     1       1.742   8.303  17.905  0.00  0.00    +0.000 A 
ATOM     11  C   UNL     1       1.542   8.974  19.126  0.00  0.00    +0.000 A 
ENDROOT
BRANCH   1  17
ATOM     12  C   UNL     1      -0.541  12.149  18.455  0.00  0.00    +0.000 A 
ATOM     13  C   UNL     1      -0.647  13.553  18.391  0.00  0.00    +0.000 A 
ATOM     14  C   UNL     1       0.416  14.374  18.755  0.00  0.00    +0.000 A 
ATOM     15  C   UNL     1       1.636  13.827  19.190  0.00  0.00    +0.000 A 
ATOM     16  C   UNL     1       1.732  12.380  19.279  0.00  0.00    +0.000 A 
ATOM     17  C   UNL     1       0.647  11.494  18.913  0.00  0.00    +0.000 A 
BRANCH  15  18
ATOM     18  C   UNL     1       2.704  14.906  19.552  0.00  0.00    +0.000 C 
ATOM     19  C   UNL     1       2.065  16.230  20.063  0.00  0.00    +0.000 C 
ATOM     20  C   UNL     1       3.066  17.368  20.271  0.00  0.00    +0.000 C 
ATOM     21  O   UNL     1       3.895  17.527  19.126  0.00  0.00    +0.000 OA
ATOM     22  C   UNL     1       4.691  16.367  18.909  0.00  0.00    +0.000 C 
ATOM     23  C   UNL     1       3.812  15.172  18.527  0.00  0.00    +0.000 C 
ENDBRANCH  15  18
BRANCH  12  25
ATOM     24  C   UNL     1      -2.875  11.721  18.316  0.00  0.00    +0.000 C 
ATOM     25  O   UNL     1      -1.566  11.490  17.809  0.00  0.00    +0.000 OA
ENDBRANCH  12  25
ENDBRANCH   1  17
BRANCH   8  26
ATOM     26  S   UNL     1       3.374   4.623  19.086  0.00  0.00    +0.000 S 
ATOM     27  O   UNL     1       2.782   3.929  20.198  0.00  0.00    +0.000 OA
ATOM     28  O   UNL     1       3.240   4.126  17.723  0.00  0.00    +0.000 OA
BRANCH  26  29
ATOM     29  N   UNL     1       5.034   4.747  19.358  0.00  0.00    +0.000 N 
ATOM     30  C   UNL     1       5.944   5.103  18.375  0.00  0.00    +0.000 A 
ATOM     31  C   UNL     1       6.282   6.404  17.948  0.00  0.00    +0.000 A 
ATOM     32  C   UNL     1       7.321   6.210  17.070  0.00  0.00    +0.000 A 
ATOM     33  O   UNL     1       7.610   4.887  17.003  0.00  0.00    +0.000 OA
ATOM     34  N   UNL     1       6.774   4.192  17.860  0.00  0.00    +0.000 NA
ATOM     35  H   UNL     1       5.353   4.004  19.974  0.00  0.00    +0.000 HD
ENDBRANCH  26  29
ENDBRANCH   8  26
TORSDOF 5
ENDMDL
MODEL 8
REMARK VINA RESULT:      -8.2      3.630      9.730
REMARK  Name = 
REMARK  6 active torsions:
REMARK  status: ('A' for Active; 'I' for Inactive)
REMARK    1  A    between atoms: C_1  and  O_2
REMARK    2  A    between atoms: O_2  and  C_3
REMARK    3  A    between atoms: C_6  and  C_7
REMARK    4  A    between atoms: C_14  and  N_15
REMARK    5  A    between atoms: C_22  and  S_23
REMARK    6  A    between atoms: S_23  and  N_26
REMARK                            x       y       z     vdW  Elec       q    Type
REMARK                         _______ _______ _______ _____ _____    ______ ____
ROOT
ATOM      1  N   UNL     1       0.192  11.154  19.499  0.00  0.00    +0.000 N 
ATOM      2  C   UNL     1       1.125  11.954  18.778  0.00  0.00    +0.000 A 
ATOM      3  O   UNL     1       0.987  13.092  18.350  0.00  0.00    +0.000 OA
ATOM      4  C   UNL     1       2.394  11.228  18.433  0.00  0.00    +0.000 A 
ATOM      5  C   UNL     1       1.953  10.268  17.598  0.00  0.00    +0.000 A 
ATOM      6  C   UNL     1       1.379   9.226  18.456  0.00  0.00    +0.000 A 
ATOM      7  C   UNL     1       2.052   7.996  18.420  0.00  0.00    +0.000 A 
ATOM      8  C   UNL     1       2.047   7.211  19.552  0.00  0.00    +0.000 A 
ATOM      9  C   UNL     1       1.282   7.637  20.662  0.00  0.00    +0.000 A 
ATOM     10  C   UNL     1       0.484   8.849  20.627  0.00  0.00    +0.000 A 
ATOM     11  C   UNL     1       0.496   9.688  19.496  0.00  0.00    +0.000 A 
ENDROOT
BRANCH   1  17
ATOM     12  C   UNL     1      -2.097  11.637  18.574  0.00  0.00    +0.000 A 
ATOM     13  C   UNL     1      -3.475  11.861  18.764  0.00  0.00    +0.000 A 
ATOM     14  C   UNL     1      -3.974  12.283  19.993  0.00  0.00    +0.000 A 
ATOM     15  C   UNL     1      -3.115  12.507  21.084  0.00  0.00    +0.000 A 
ATOM     16  C   UNL     1      -1.698  12.248  20.890  0.00  0.00    +0.000 A 
ATOM     17  C   UNL     1      -1.143  11.807  19.628  0.00  0.00    +0.000 A 
BRANCH  15  18
ATOM     18  C   UNL     1      -3.861  12.973  22.373  0.00  0.00    +0.000 C 
ATOM     19  C   UNL     1      -3.400  12.198  23.642  0.00  0.00    +0.000 C 
ATOM     20  C   UNL     1      -4.221  12.508  24.896  0.00  0.00    +0.000 C 
ATOM     21  O   UNL     1      -5.614  12.404  24.626  0.00  0.00    +0.000 OA
ATOM     22  C   UNL     1      -6.020  13.374  23.667  0.00  0.00    +0.000 C 
ATOM     23  C   UNL     1      -5.389  13.083  22.302  0.00  0.00    +0.000 C 
ENDBRANCH  15  18
BRANCH  12  25
ATOM     24  C   UNL     1      -2.068  10.249  16.644  0.00  0.00    +0.000 C 
ATOM     25  O   UNL     1      -1.740  11.495  17.249  0.00  0.00    +0.000 OA
ENDBRANCH  12  25
ENDBRANCH   1  17
BRANCH   8  26
ATOM     26  S   UNL     1       3.038   5.710  19.521  0.00  0.00    +0.000 S 
ATOM     27  O   UNL     1       2.725   4.958  20.705  0.00  0.00    +0.000 OA
ATOM     28  O   UNL     1       2.838   5.147  18.191  0.00  0.00    +0.000 OA
BRANCH  26  29
ATOM     29  N   UNL     1       4.666   6.149  19.584  0.00  0.00    +0.000 N 
ATOM     30  C   UNL     1       5.647   5.558  18.802  0.00  0.00    +0.000 A 
ATOM     31  C   UNL     1       5.986   5.871  17.469  0.00  0.00    +0.000 A 
ATOM     32  C   UNL     1       7.100   5.106  17.219  0.00  0.00    +0.000 A 
ATOM     33  O   UNL     1       7.427   4.411  18.336  0.00  0.00    +0.000 OA
ATOM     34  N   UNL     1       6.539   4.730  19.349  0.00  0.00    +0.000 NA
ATOM     35  H   UNL     1       4.950   6.334  20.542  0.00  0.00    +0.000 HD
ENDBRANCH  26  29
ENDBRANCH   8  26
TORSDOF 5
ENDMDL
MODEL 9
REMARK VINA RESULT:      -8.2      3.603      9.047
REMARK  Name = 
REMARK  6 active torsions:
REMARK  status: ('A' for Active; 'I' for Inactive)
REMARK    1  A    between atoms: C_1  and  O_2
REMARK    2  A    between atoms: O_2  and  C_3
REMARK    3  A    between atoms: C_6  and  C_7
REMARK    4  A    between atoms: C_14  and  N_15
REMARK    5  A    between atoms: C_22  and  S_23
REMARK    6  A    between atoms: S_23  and  N_26
REMARK                            x       y       z     vdW  Elec       q    Type
REMARK                         _______ _______ _______ _____ _____    ______ ____
ROOT
ATOM      1  N   UNL     1       0.154  11.548  19.423  0.00  0.00    +0.000 N 
ATOM      2  C   UNL     1       1.071  12.537  18.966  0.00  0.00    +0.000 A 
ATOM      3  O   UNL     1       0.875  13.729  18.768  0.00  0.00    +0.000 OA
ATOM      4  C   UNL     1       2.416  11.981  18.595  0.00  0.00    +0.000 A 
ATOM      5  C   UNL     1       2.115  11.191  17.546  0.00  0.00    +0.000 A 
ATOM      6  C   UNL     1       1.564   9.959  18.120  0.00  0.00    +0.000 A 
ATOM      7  C   UNL     1       2.333   8.808  17.894  0.00  0.00    +0.000 A 
ATOM      8  C   UNL     1       2.307   7.805  18.838  0.00  0.00    +0.000 A 
ATOM      9  C   UNL     1       1.430   7.941  19.939  0.00  0.00    +0.000 A 
ATOM     10  C   UNL     1       0.544   9.081  20.080  0.00  0.00    +0.000 A 
ATOM     11  C   UNL     1       0.573  10.137  19.150  0.00  0.00    +0.000 A 
ENDROOT
BRANCH   1  17
ATOM     12  C   UNL     1      -2.174  11.827  18.513  0.00  0.00    +0.000 A 
ATOM     13  C   UNL     1      -3.566  11.923  18.710  0.00  0.00    +0.000 A 
ATOM     14  C   UNL     1      -4.095  12.286  19.945  0.00  0.00    +0.000 A 
ATOM     15  C   UNL     1      -3.256  12.578  21.035  0.00  0.00    +0.000 A 
ATOM     16  C   UNL     1      -1.822  12.452  20.833  0.00  0.00    +0.000 A 
ATOM     17  C   UNL     1      -1.234  12.075  19.565  0.00  0.00    +0.000 A 
BRANCH  15  18
ATOM     18  C   UNL     1      -4.034  12.963  22.331  0.00  0.00    +0.000 C 
ATOM     19  C   UNL     1      -3.457  12.273  23.601  0.00  0.00    +0.000 C 
ATOM     20  C   UNL     1      -4.291  12.492  24.865  0.00  0.00    +0.000 C 
ATOM     21  O   UNL     1      -5.663  12.205  24.622  0.00  0.00    +0.000 OA
ATOM     22  C   UNL     1      -6.206  13.101  23.658  0.00  0.00    +0.000 C 
ATOM     23  C   UNL     1      -5.565  12.874  22.286  0.00  0.00    +0.000 C 
ENDBRANCH  15  18
BRANCH  12  25
ATOM     24  C   UNL     1      -2.750  11.089  16.328  0.00  0.00    +0.000 C 
ATOM     25  O   UNL     1      -1.813  11.730  17.185  0.00  0.00    +0.000 OA
ENDBRANCH  12  25
ENDBRANCH   1  17
BRANCH   8  26
ATOM     26  S   UNL     1       3.413   6.408  18.589  0.00  0.00    +0.000 S 
ATOM     27  O   UNL     1       4.521   6.868  17.797  0.00  0.00    +0.000 OA
ATOM     28  O   UNL     1       3.615   5.839  19.916  0.00  0.00    +0.000 OA
BRANCH  26  29
ATOM     29  N   UNL     1       2.586   5.226  17.714  0.00  0.00    +0.000 N 
ATOM     30  C   UNL     1       2.275   3.976  18.225  0.00  0.00    +0.000 A 
ATOM     31  C   UNL     1       1.176   3.630  19.038  0.00  0.00    +0.000 A 
ATOM     32  C   UNL     1       1.252   2.263  19.143  0.00  0.00    +0.000 A 
ATOM     33  O   UNL     1       2.303   1.815  18.412  0.00  0.00    +0.000 OA
ATOM     34  N   UNL     1       2.922   2.890  17.796  0.00  0.00    +0.000 NA
ATOM     35  H   UNL     1       2.893   5.218  16.745  0.00  0.00    +0.000 HD
ENDBRANCH  26  29
ENDBRANCH   8  26
TORSDOF 5
ENDMDL
