MODEL 1
REMARK VINA RESULT:      -6.2      0.000      0.000
REMARK  Name = 
REMARK  13 active torsions:
REMARK  status: ('A' for Active; 'I' for Inactive)
REMARK    1  A    between atoms: C_2  and  C_3
REMARK    2  A    between atoms: C_3  and  N_4
REMARK    3  A    between atoms: N_4  and  C_5
REMARK    4  A    between atoms: N_4  and  C_6
REMARK    5  A    between atoms: C_6  and  C_7
REMARK    6  A    between atoms: C_7  and  C_8
REMARK    7  A    between atoms: C_8  and  C_9
REMARK    8  A    between atoms: C_9  and  O_10
REMARK    9  A    between atoms: O_10  and  C_11
REMARK   10  A    between atoms: C_14  and  C_15
REMARK   11  A    between atoms: C_15  and  C_16
REMARK   12  A    between atoms: C_19  and  O_20
REMARK   13  A    between atoms: O_20  and  C_21
REMARK                            x       y       z     vdW  Elec       q    Type
REMARK                         _______ _______ _______ _____ _____    ______ ____
ROOT
ATOM      1  C   UNL     1       5.352   4.697  17.705  0.00  0.00    +0.000 A 
ATOM      2  C   UNL     1       4.959   3.807  16.692  0.00  0.00    +0.000 A 
ATOM      3  C   UNL     1       5.553   3.782  15.440  0.00  0.00    +0.000 A 
ATOM      4  C   UNL     1       6.489   4.749  15.096  0.00  0.00    +0.000 A 
ATOM      5  C   UNL     1       6.828   5.698  16.057  0.00  0.00    +0.000 A 
ATOM      6  C   UNL     1       6.297   5.690  17.360  0.00  0.00    +0.000 A 
ENDROOT
BRANCH   4   7
ATOM      7  C   UNL     1       7.150   4.822  13.766  0.00  0.00    +0.000 C 
ATOM      8  C   UNL     1       6.739   3.949  12.626  0.00  0.00    +0.000 C 
ATOM      9  O   UNL     1       8.084   5.665  13.594  0.00  0.00    +0.000 OA
ENDBRANCH   4   7
BRANCH   6  10
ATOM     10  O   UNL     1       6.953   6.666  18.069  0.00  0.00    +0.000 OA
ATOM     11  C   UNL     1       8.017   6.292  18.910  0.00  0.00    +0.000 C 
ENDBRANCH   6  10
BRANCH   1  12
ATOM     12  O   UNL     1       4.837   4.465  18.967  0.00  0.00    +0.000 OA
BRANCH  12  13
ATOM     13  C   UNL     1       3.986   5.527  19.501  0.00  0.00    +0.000 C 
BRANCH  13  14
ATOM     14  C   UNL     1       2.902   6.009  18.550  0.00  0.00    +0.000 C 
BRANCH  14  15
ATOM     15  C   UNL     1       1.668   5.121  18.747  0.00  0.00    +0.000 C 
BRANCH  15  16
ATOM     16  C   UNL     1       1.520   4.710  20.199  0.00  0.00    +0.000 C 
BRANCH  16  17
ATOM     17  N   UNL     1       0.897   3.394  20.364  0.00  0.00    +0.000 NA
ATOM     18  C   UNL     1       1.546   2.578  21.403  0.00  0.00    +0.000 C 
BRANCH  17  19
ATOM     19  C   UNL     1       0.961   2.725  19.061  0.00  0.00    +0.000 C 
BRANCH  19  21
ATOM     20  C   UNL     1       3.444   1.409  18.789  0.00  0.00    +0.000 C 
ATOM     21  C   UNL     1       2.298   2.016  18.915  0.00  0.00    +0.000 C 
ENDBRANCH  19  21
ENDBRANCH  17  19
ENDBRANCH  16  17
ENDBRANCH  15  16
ENDBRANCH  14  15
ENDBRANCH  13  14
ENDBRANCH  12  13
ENDBRANCH   1  12
TORSDOF 10
ENDMDL
MODEL 2
REMARK VINA RESULT:      -6.2      4.316      7.818
REMARK  Name = 
REMARK  13 active torsions:
REMARK  status: ('A' for Active; 'I' for Inactive)
REMARK    1  A    between atoms: C_2  and  C_3
REMARK    2  A    between atoms: C_3  and  N_4
REMARK    3  A    between atoms: N_4  and  C_5
REMARK    4  A    between atoms: N_4  and  C_6
REMARK    5  A    between atoms: C_6  and  C_7
REMARK    6  A    between atoms: C_7  and  C_8
REMARK    7  A    between atoms: C_8  and  C_9
REMARK    8  A    between atoms: C_9  and  O_10
REMARK    9  A    between atoms: O_10  and  C_11
REMARK   10  A    between atoms: C_14  and  C_15
REMARK   11  A    between atoms: C_15  and  C_16
REMARK   12  A    between atoms: C_19  and  O_20
REMARK   13  A    between atoms: O_20  and  C_21
REMARK                            x       y       z     vdW  Elec       q    Type
REMARK                         _______ _______ _______ _____ _____    ______ ____
ROOT
ATOM      1  C   UNL     1       6.365   5.727  16.793  0.00  0.00    +0.000 A 
ATOM      2  C   UNL     1       5.453   6.118  17.788  0.00  0.00    +0.000 A 
ATOM      3  C   UNL     1       4.306   5.397  18.084  0.00  0.00    +0.000 A 
ATOM      4  C   UNL     1       3.947   4.311  17.294  0.00  0.00    +0.000 A 
ATOM      5  C   UNL     1       4.790   3.961  16.245  0.00  0.00    +0.000 A 
ATOM      6  C   UNL     1       6.000   4.629  15.980  0.00  0.00    +0.000 A 
ENDROOT
BRANCH   4   7
ATOM      7  C   UNL     1       2.717   3.504  17.515  0.00  0.00    +0.000 C 
ATOM      8  C   UNL     1       1.377   4.133  17.709  0.00  0.00    +0.000 C 
ATOM      9  O   UNL     1       2.813   2.238  17.522  0.00  0.00    +0.000 OA
ENDBRANCH   4   7
BRANCH   6  10
ATOM     10  O   UNL     1       6.635   3.935  14.980  0.00  0.00    +0.000 OA
ATOM     11  C   UNL     1       6.056   3.915  13.697  0.00  0.00    +0.000 C 
ENDBRANCH   6  10
BRANCH   1  12
ATOM     12  O   UNL     1       7.569   6.404  16.757  0.00  0.00    +0.000 OA
BRANCH  12  13
ATOM     13  C   UNL     1       7.832   7.275  17.902  0.00  0.00    +0.000 C 
BRANCH  13  14
ATOM     14  C   UNL     1       7.923   8.755  17.563  0.00  0.00    +0.000 C 
BRANCH  14  15
ATOM     15  C   UNL     1       8.780   9.436  18.637  0.00  0.00    +0.000 C 
BRANCH  15  16
ATOM     16  C   UNL     1       9.231  10.810  18.182  0.00  0.00    +0.000 C 
BRANCH  16  17
ATOM     17  N   UNL     1       9.759  11.633  19.274  0.00  0.00    +0.000 NA
ATOM     18  C   UNL     1      11.219  11.805  19.208  0.00  0.00    +0.000 C 
BRANCH  17  19
ATOM     19  C   UNL     1       9.368  10.980  20.528  0.00  0.00    +0.000 C 
BRANCH  19  21
ATOM     20  C   UNL     1       8.869  12.935  22.503  0.00  0.00    +0.000 C 
ATOM     21  C   UNL     1       9.100  12.032  21.591  0.00  0.00    +0.000 C 
ENDBRANCH  19  21
ENDBRANCH  17  19
ENDBRANCH  16  17
ENDBRANCH  15  16
ENDBRANCH  14  15
ENDBRANCH  13  14
ENDBRANCH  12  13
ENDBRANCH   1  12
TORSDOF 10
ENDMDL
MODEL 3
REMARK VINA RESULT:      -6.1      1.088      1.673
REMARK  Name = 
REMARK  13 active torsions:
REMARK  status: ('A' for Active; 'I' for Inactive)
REMARK    1  A    between atoms: C_2  and  C_3
REMARK    2  A    between atoms: C_3  and  N_4
REMARK    3  A    between atoms: N_4  and  C_5
REMARK    4  A    between atoms: N_4  and  C_6
REMARK    5  A    between atoms: C_6  and  C_7
REMARK    6  A    between atoms: C_7  and  C_8
REMARK    7  A    between atoms: C_8  and  C_9
REMARK    8  A    between atoms: C_9  and  O_10
REMARK    9  A    between atoms: O_10  and  C_11
REMARK   10  A    between atoms: C_14  and  C_15
REMARK   11  A    between atoms: C_15  and  C_16
REMARK   12  A    between atoms: C_19  and  O_20
REMARK   13  A    between atoms: O_20  and  C_21
REMARK                            x       y       z     vdW  Elec       q    Type
REMARK                         _______ _______ _______ _____ _____    ______ ____
ROOT
ATOM      1  C   UNL     1       6.065   4.617  17.593  0.00  0.00    +0.000 A 
ATOM      2  C   UNL     1       5.400   3.776  16.685  0.00  0.00    +0.000 A 
ATOM      3  C   UNL     1       5.734   3.705  15.341  0.00  0.00    +0.000 A 
ATOM      4  C   UNL     1       6.670   4.585  14.811  0.00  0.00    +0.000 A 
ATOM      5  C   UNL     1       7.277   5.489  15.678  0.00  0.00    +0.000 A 
ATOM      6  C   UNL     1       7.013   5.520  17.059  0.00  0.00    +0.000 A 
ENDROOT
BRANCH   4   7
ATOM      7  C   UNL     1       7.062   4.606  13.377  0.00  0.00    +0.000 C 
ATOM      8  C   UNL     1       6.483   3.656  12.380  0.00  0.00    +0.000 C 
ATOM      9  O   UNL     1       7.906   5.472  12.988  0.00  0.00    +0.000 OA
ENDBRANCH   4   7
BRANCH   6  10
ATOM     10  O   UNL     1       7.883   6.424  17.617  0.00  0.00    +0.000 OA
ATOM     11  C   UNL     1       7.606   7.798  17.489  0.00  0.00    +0.000 C 
ENDBRANCH   6  10
BRANCH   1  12
ATOM     12  O   UNL     1       5.788   4.423  18.933  0.00  0.00    +0.000 OA
BRANCH  12  13
ATOM     13  C   UNL     1       4.513   4.970  19.394  0.00  0.00    +0.000 C 
BRANCH  13  14
ATOM     14  C   UNL     1       3.900   6.012  18.470  0.00  0.00    +0.000 C 
BRANCH  14  15
ATOM     15  C   UNL     1       2.382   5.794  18.449  0.00  0.00    +0.000 C 
BRANCH  15  16
ATOM     16  C   UNL     1       2.024   4.531  17.690  0.00  0.00    +0.000 C 
BRANCH  16  17
ATOM     17  N   UNL     1       2.174   3.315  18.495  0.00  0.00    +0.000 NA
ATOM     18  C   UNL     1       2.413   2.114  17.680  0.00  0.00    +0.000 C 
BRANCH  17  19
ATOM     19  C   UNL     1       0.947   3.172  19.285  0.00  0.00    +0.000 C 
BRANCH  19  21
ATOM     20  C   UNL     1       1.608   2.631  21.976  0.00  0.00    +0.000 C 
ATOM     21  C   UNL     1       1.303   2.881  20.734  0.00  0.00    +0.000 C 
ENDBRANCH  19  21
ENDBRANCH  17  19
ENDBRANCH  16  17
ENDBRANCH  15  16
ENDBRANCH  14  15
ENDBRANCH  13  14
ENDBRANCH  12  13
ENDBRANCH   1  12
TORSDOF 10
ENDMDL
MODEL 4
REMARK VINA RESULT:      -6.1      3.057      7.061
REMARK  Name = 
REMARK  13 active torsions:
REMARK  status: ('A' for Active; 'I' for Inactive)
REMARK    1  A    between atoms: C_2  and  C_3
REMARK    2  A    between atoms: C_3  and  N_4
REMARK    3  A    between atoms: N_4  and  C_5
REMARK    4  A    between atoms: N_4  and  C_6
REMARK    5  A    between atoms: C_6  and  C_7
REMARK    6  A    between atoms: C_7  and  C_8
REMARK    7  A    between atoms: C_8  and  C_9
REMARK    8  A    between atoms: C_9  and  O_10
REMARK    9  A    between atoms: O_10  and  C_11
REMARK   10  A    between atoms: C_14  and  C_15
REMARK   11  A    between atoms: C_15  and  C_16
REMARK   12  A    between atoms: C_19  and  O_20
REMARK   13  A    between atoms: O_20  and  C_21
REMARK                            x       y       z     vdW  Elec       q    Type
REMARK                         _______ _______ _______ _____ _____    ______ ____
ROOT
ATOM      1  C   UNL     1       2.561   5.105  18.870  0.00  0.00    +0.000 A 
ATOM      2  C   UNL     1       2.728   6.331  18.206  0.00  0.00    +0.000 A 
ATOM      3  C   UNL     1       2.404   7.550  18.783  0.00  0.00    +0.000 A 
ATOM      4  C   UNL     1       1.764   7.586  20.016  0.00  0.00    +0.000 A 
ATOM      5  C   UNL     1       1.506   6.375  20.651  0.00  0.00    +0.000 A 
ATOM      6  C   UNL     1       1.902   5.133  20.120  0.00  0.00    +0.000 A 
ENDROOT
BRANCH   4   7
ATOM      7  C   UNL     1       1.347   8.843  20.691  0.00  0.00    +0.000 C 
ATOM      8  C   UNL     1       1.251   8.953  22.178  0.00  0.00    +0.000 C 
ATOM      9  O   UNL     1       1.077   9.858  19.977  0.00  0.00    +0.000 OA
ENDBRANCH   4   7
BRANCH   6  10
ATOM     10  O   UNL     1       1.619   4.180  21.068  0.00  0.00    +0.000 OA
ATOM     11  C   UNL     1       2.582   3.192  21.342  0.00  0.00    +0.000 C 
ENDBRANCH   6  10
BRANCH   1  12
ATOM     12  O   UNL     1       3.131   3.996  18.273  0.00  0.00    +0.000 OA
BRANCH  12  13
ATOM     13  C   UNL     1       4.557   4.112  17.971  0.00  0.00    +0.000 C 
BRANCH  13  14
ATOM     14  C   UNL     1       4.901   4.011  16.493  0.00  0.00    +0.000 C 
BRANCH  14  15
ATOM     15  C   UNL     1       6.125   4.897  16.229  0.00  0.00    +0.000 C 
BRANCH  15  16
ATOM     16  C   UNL     1       7.251   4.570  17.190  0.00  0.00    +0.000 C 
BRANCH  16  17
ATOM     17  N   UNL     1       7.824   5.758  17.829  0.00  0.00    +0.000 NA
ATOM     18  C   UNL     1       7.725   5.724  19.297  0.00  0.00    +0.000 C 
BRANCH  17  19
ATOM     19  C   UNL     1       7.113   6.920  17.286  0.00  0.00    +0.000 C 
BRANCH  19  21
ATOM     20  C   UNL     1       8.387   9.294  18.131  0.00  0.00    +0.000 C 
ATOM     21  C   UNL     1       7.799   8.198  17.741  0.00  0.00    +0.000 C 
ENDBRANCH  19  21
ENDBRANCH  17  19
ENDBRANCH  16  17
ENDBRANCH  15  16
ENDBRANCH  14  15
ENDBRANCH  13  14
ENDBRANCH  12  13
ENDBRANCH   1  12
TORSDOF 10
ENDMDL
MODEL 5
REMARK VINA RESULT:      -6.0      4.657      8.220
REMARK  Name = 
REMARK  13 active torsions:
REMARK  status: ('A' for Active; 'I' for Inactive)
REMARK    1  A    between atoms: C_2  and  C_3
REMARK    2  A    between atoms: C_3  and  N_4
REMARK    3  A    between atoms: N_4  and  C_5
REMARK    4  A    between atoms: N_4  and  C_6
REMARK    5  A    between atoms: C_6  and  C_7
REMARK    6  A    between atoms: C_7  and  C_8
REMARK    7  A    between atoms: C_8  and  C_9
REMARK    8  A    between atoms: C_9  and  O_10
REMARK    9  A    between atoms: O_10  and  C_11
REMARK   10  A    between atoms: C_14  and  C_15
REMARK   11  A    between atoms: C_15  and  C_16
REMARK   12  A    between atoms: C_19  and  O_20
REMARK   13  A    between atoms: O_20  and  C_21
REMARK                            x       y       z     vdW  Elec       q    Type
REMARK                         _______ _______ _______ _____ _____    ______ ____
ROOT
ATOM      1  C   UNL     1       6.258   5.898  16.728  0.00  0.00    +0.000 A 
ATOM      2  C   UNL     1       5.286   6.441  17.585  0.00  0.00    +0.000 A 
ATOM      3  C   UNL     1       4.111   5.780  17.908  0.00  0.00    +0.000 A 
ATOM      4  C   UNL     1       3.790   4.587  17.271  0.00  0.00    +0.000 A 
ATOM      5  C   UNL     1       4.698   4.075  16.350  0.00  0.00    +0.000 A 
ATOM      6  C   UNL     1       5.933   4.689  16.071  0.00  0.00    +0.000 A 
ENDROOT
BRANCH   4   7
ATOM      7  C   UNL     1       2.536   3.829  17.526  0.00  0.00    +0.000 C 
ATOM      8  C   UNL     1       2.536   2.362  17.804  0.00  0.00    +0.000 C 
ATOM      9  O   UNL     1       1.432   4.458  17.521  0.00  0.00    +0.000 OA
ENDBRANCH   4   7
BRANCH   6  10
ATOM     10  O   UNL     1       6.624   3.845  15.236  0.00  0.00    +0.000 OA
ATOM     11  C   UNL     1       6.296   3.829  13.868  0.00  0.00    +0.000 C 
ENDBRANCH   6  10
BRANCH   1  12
ATOM     12  O   UNL     1       7.472   6.555  16.674  0.00  0.00    +0.000 OA
BRANCH  12  13
ATOM     13  C   UNL     1       7.801   7.360  17.849  0.00  0.00    +0.000 C 
BRANCH  13  14
ATOM     14  C   UNL     1       7.885   8.856  17.589  0.00  0.00    +0.000 C 
BRANCH  14  15
ATOM     15  C   UNL     1       8.733   9.486  18.701  0.00  0.00    +0.000 C 
BRANCH  15  16
ATOM     16  C   UNL     1       9.261  10.843  18.280  0.00  0.00    +0.000 C 
BRANCH  16  17
ATOM     17  N   UNL     1      10.573  11.153  18.855  0.00  0.00    +0.000 NA
ATOM     18  C   UNL     1      10.491  11.660  20.234  0.00  0.00    +0.000 C 
BRANCH  17  19
ATOM     19  C   UNL     1      11.203  12.142  17.974  0.00  0.00    +0.000 C 
BRANCH  19  21
ATOM     20  C   UNL     1      10.101  14.694  18.467  0.00  0.00    +0.000 C 
ATOM     21  C   UNL     1      10.609  13.515  18.239  0.00  0.00    +0.000 C 
ENDBRANCH  19  21
ENDBRANCH  17  19
ENDBRANCH  16  17
ENDBRANCH  15  16
ENDBRANCH  14  15
ENDBRANCH  13  14
ENDBRANCH  12  13
ENDBRANCH   1  12
TORSDOF 10
ENDMDL
MODEL 6
REMARK VINA RESULT:      -5.9      4.298      5.790
REMARK  Name = 
REMARK  13 active torsions:
REMARK  status: ('A' for Active; 'I' for Inactive)
REMARK    1  A    between atoms: C_2  and  C_3
REMARK    2  A    between atoms: C_3  and  N_4
REMARK    3  A    between atoms: N_4  and  C_5
REMARK    4  A    between atoms: N_4  and  C_6
REMARK    5  A    between atoms: C_6  and  C_7
REMARK    6  A    between atoms: C_7  and  C_8
REMARK    7  A    between atoms: C_8  and  C_9
REMARK    8  A    between atoms: C_9  and  O_10
REMARK    9  A    between atoms: O_10  and  C_11
REMARK   10  A    between atoms: C_14  and  C_15
REMARK   11  A    between atoms: C_15  and  C_16
REMARK   12  A    between atoms: C_19  and  O_20
REMARK   13  A    between atoms: O_20  and  C_21
REMARK                            x       y       z     vdW  Elec       q    Type
REMARK                         _______ _______ _______ _____ _____    ______ ____
ROOT
ATOM      1  C   UNL     1       3.361   6.147  18.046  0.00  0.00    +0.000 A 
ATOM      2  C   UNL     1       4.207   6.992  17.309  0.00  0.00    +0.000 A 
ATOM      3  C   UNL     1       5.233   6.517  16.506  0.00  0.00    +0.000 A 
ATOM      4  C   UNL     1       5.547   5.163  16.511  0.00  0.00    +0.000 A 
ATOM      5  C   UNL     1       4.777   4.319  17.306  0.00  0.00    +0.000 A 
ATOM      6  C   UNL     1       3.680   4.771  18.062  0.00  0.00    +0.000 A 
ENDROOT
BRANCH   4   7
ATOM      7  C   UNL     1       6.653   4.570  15.712  0.00  0.00    +0.000 C 
ATOM      8  C   UNL     1       6.432   4.001  14.349  0.00  0.00    +0.000 C 
ATOM      9  O   UNL     1       7.824   4.564  16.204  0.00  0.00    +0.000 OA
ENDBRANCH   4   7
BRANCH   6  10
ATOM     10  O   UNL     1       3.074   3.660  18.598  0.00  0.00    +0.000 OA
ATOM     11  C   UNL     1       2.240   2.881  17.775  0.00  0.00    +0.000 C 
ENDBRANCH   6  10
BRANCH   1  12
ATOM     12  O   UNL     1       2.247   6.733  18.617  0.00  0.00    +0.000 OA
BRANCH  12  13
ATOM     13  C   UNL     1       2.338   8.178  18.826  0.00  0.00    +0.000 C 
BRANCH  13  14
ATOM     14  C   UNL     1       1.258   8.988  18.126  0.00  0.00    +0.000 C 
BRANCH  14  15
ATOM     15  C   UNL     1       0.798  10.094  19.084  0.00  0.00    +0.000 C 
BRANCH  15  16
ATOM     16  C   UNL     1      -0.715  10.176  19.134  0.00  0.00    +0.000 C 
BRANCH  16  17
ATOM     17  N   UNL     1      -1.304  10.686  17.892  0.00  0.00    +0.000 NA
ATOM     18  C   UNL     1      -1.577  12.131  17.937  0.00  0.00    +0.000 C 
BRANCH  17  19
ATOM     19  C   UNL     1      -2.540   9.930  17.664  0.00  0.00    +0.000 C 
BRANCH  19  21
ATOM     20  C   UNL     1      -3.274  10.106  14.944  0.00  0.00    +0.000 C 
ATOM     21  C   UNL     1      -2.936  10.025  16.200  0.00  0.00    +0.000 C 
ENDBRANCH  19  21
ENDBRANCH  17  19
ENDBRANCH  16  17
ENDBRANCH  15  16
ENDBRANCH  14  15
ENDBRANCH  13  14
ENDBRANCH  12  13
ENDBRANCH   1  12
TORSDOF 10
ENDMDL
MODEL 7
REMARK VINA RESULT:      -5.8      2.707      6.546
REMARK  Name = 
REMARK  13 active torsions:
REMARK  status: ('A' for Active; 'I' for Inactive)
REMARK    1  A    between atoms: C_2  and  C_3
REMARK    2  A    between atoms: C_3  and  N_4
REMARK    3  A    between atoms: N_4  and  C_5
REMARK    4  A    between atoms: N_4  and  C_6
REMARK    5  A    between atoms: C_6  and  C_7
REMARK    6  A    between atoms: C_7  and  C_8
REMARK    7  A    between atoms: C_8  and  C_9
REMARK    8  A    between atoms: C_9  and  O_10
REMARK    9  A    between atoms: O_10  and  C_11
REMARK   10  A    between atoms: C_14  and  C_15
REMARK   11  A    between atoms: C_15  and  C_16
REMARK   12  A    between atoms: C_19  and  O_20
REMARK   13  A    between atoms: O_20  and  C_21
REMARK                            x       y       z     vdW  Elec       q    Type
REMARK                         _______ _______ _______ _____ _____    ______ ____
ROOT
ATOM      1  C   UNL     1       5.307   5.525  18.542  0.00  0.00    +0.000 A 
ATOM      2  C   UNL     1       5.265   4.316  19.256  0.00  0.00    +0.000 A 
ATOM      3  C   UNL     1       4.084   3.644  19.531  0.00  0.00    +0.000 A 
ATOM      4  C   UNL     1       2.864   4.229  19.216  0.00  0.00    +0.000 A 
ATOM      5  C   UNL     1       2.879   5.470  18.588  0.00  0.00    +0.000 A 
ATOM      6  C   UNL     1       4.069   6.130  18.226  0.00  0.00    +0.000 A 
ENDROOT
BRANCH   4   7
ATOM      7  C   UNL     1       1.548   3.598  19.507  0.00  0.00    +0.000 C 
ATOM      8  C   UNL     1       0.922   2.604  18.586  0.00  0.00    +0.000 C 
ATOM      9  O   UNL     1       0.949   3.908  20.583  0.00  0.00    +0.000 OA
ENDBRANCH   4   7
BRANCH   6  10
ATOM     10  O   UNL     1       3.710   7.243  17.506  0.00  0.00    +0.000 OA
ATOM     11  C   UNL     1       2.576   7.973  17.907  0.00  0.00    +0.000 C 
ENDBRANCH   6  10
BRANCH   1  12
ATOM     12  O   UNL     1       6.555   5.966  18.144  0.00  0.00    +0.000 OA
BRANCH  12  13
ATOM     13  C   UNL     1       6.826   5.866  16.711  0.00  0.00    +0.000 C 
BRANCH  13  14
ATOM     14  C   UNL     1       6.999   4.445  16.197  0.00  0.00    +0.000 C 
BRANCH  14  15
ATOM     15  C   UNL     1       5.679   4.011  15.547  0.00  0.00    +0.000 C 
BRANCH  15  16
ATOM     16  C   UNL     1       5.555   4.570  14.144  0.00  0.00    +0.000 C 
BRANCH  16  17
ATOM     17  N   UNL     1       6.309   3.801  13.150  0.00  0.00    +0.000 NA
ATOM     18  C   UNL     1       7.264   4.624  12.390  0.00  0.00    +0.000 C 
BRANCH  17  19
ATOM     19  C   UNL     1       5.327   3.183  12.253  0.00  0.00    +0.000 C 
BRANCH  19  21
ATOM     20  C   UNL     1       6.475   0.934  10.991  0.00  0.00    +0.000 C 
ATOM     21  C   UNL     1       5.945   1.972  11.573  0.00  0.00    +0.000 C 
ENDBRANCH  19  21
ENDBRANCH  17  19
ENDBRANCH  16  17
ENDBRANCH  15  16
ENDBRANCH  14  15
ENDBRANCH  13  14
ENDBRANCH  12  13
ENDBRANCH   1  12
TORSDOF 10
ENDMDL
MODEL 8
REMARK VINA RESULT:      -5.8      1.370      1.562
REMARK  Name = 
REMARK  13 active torsions:
REMARK  status: ('A' for Active; 'I' for Inactive)
REMARK    1  A    between atoms: C_2  and  C_3
REMARK    2  A    between atoms: C_3  and  N_4
REMARK    3  A    between atoms: N_4  and  C_5
REMARK    4  A    between atoms: N_4  and  C_6
REMARK    5  A    between atoms: C_6  and  C_7
REMARK    6  A    between atoms: C_7  and  C_8
REMARK    7  A    between atoms: C_8  and  C_9
REMARK    8  A    between atoms: C_9  and  O_10
REMARK    9  A    between atoms: O_10  and  C_11
REMARK   10  A    between atoms: C_14  and  C_15
REMARK   11  A    between atoms: C_15  and  C_16
REMARK   12  A    between atoms: C_19  and  O_20
REMARK   13  A    between atoms: O_20  and  C_21
REMARK                            x       y       z     vdW  Elec       q    Type
REMARK                         _______ _______ _______ _____ _____    ______ ____
ROOT
ATOM      1  C   UNL     1       5.649   5.827  17.899  0.00  0.00    +0.000 A 
ATOM      2  C   UNL     1       4.853   6.127  16.782  0.00  0.00    +0.000 A 
ATOM      3  C   UNL     1       5.154   5.685  15.502  0.00  0.00    +0.000 A 
ATOM      4  C   UNL     1       6.353   5.026  15.260  0.00  0.00    +0.000 A 
ATOM      5  C   UNL     1       7.200   4.797  16.340  0.00  0.00    +0.000 A 
ATOM      6  C   UNL     1       6.875   5.165  17.659  0.00  0.00    +0.000 A 
ENDROOT
BRANCH   4   7
ATOM      7  C   UNL     1       6.775   4.550  13.915  0.00  0.00    +0.000 C 
ATOM      8  C   UNL     1       7.879   5.203  13.151  0.00  0.00    +0.000 C 
ATOM      9  O   UNL     1       6.183   3.546  13.411  0.00  0.00    +0.000 OA
ENDBRANCH   4   7
BRANCH   6  10
ATOM     10  O   UNL     1       7.860   4.662  18.473  0.00  0.00    +0.000 OA
ATOM     11  C   UNL     1       8.285   5.428  19.574  0.00  0.00    +0.000 C 
ENDBRANCH   6  10
BRANCH   1  12
ATOM     12  O   UNL     1       5.118   6.134  19.138  0.00  0.00    +0.000 OA
BRANCH  12  13
ATOM     13  C   UNL     1       4.004   5.289  19.568  0.00  0.00    +0.000 C 
BRANCH  13  14
ATOM     14  C   UNL     1       2.718   6.043  19.870  0.00  0.00    +0.000 C 
BRANCH  14  15
ATOM     15  C   UNL     1       1.771   5.088  20.608  0.00  0.00    +0.000 C 
BRANCH  15  16
ATOM     16  C   UNL     1       1.181   4.064  19.659  0.00  0.00    +0.000 C 
BRANCH  16  17
ATOM     17  N   UNL     1       1.251   2.694  20.174  0.00  0.00    +0.000 NA
ATOM     18  C   UNL     1       1.538   2.638  21.617  0.00  0.00    +0.000 C 
BRANCH  17  19
ATOM     19  C   UNL     1       2.294   2.003  19.409  0.00  0.00    +0.000 C 
BRANCH  19  21
ATOM     20  C   UNL     1       2.572   3.212  16.873  0.00  0.00    +0.000 C 
ATOM     21  C   UNL     1       2.443   2.653  18.044  0.00  0.00    +0.000 C 
ENDBRANCH  19  21
ENDBRANCH  17  19
ENDBRANCH  16  17
ENDBRANCH  15  16
ENDBRANCH  14  15
ENDBRANCH  13  14
ENDBRANCH  12  13
ENDBRANCH   1  12
TORSDOF 10
ENDMDL
MODEL 9
REMARK VINA RESULT:      -5.8      3.610      5.160
REMARK  Name = 
REMARK  13 active torsions:
REMARK  status: ('A' for Active; 'I' for Inactive)
REMARK    1  A    between atoms: C_2  and  C_3
REMARK    2  A    between atoms: C_3  and  N_4
REMARK    3  A    between atoms: N_4  and  C_5
REMARK    4  A    between atoms: N_4  and  C_6
REMARK    5  A    between atoms: C_6  and  C_7
REMARK    6  A    between atoms: C_7  and  C_8
REMARK    7  A    between atoms: C_8  and  C_9
REMARK    8  A    between atoms: C_9  and  O_10
REMARK    9  A    between atoms: O_10  and  C_11
REMARK   10  A    between atoms: C_14  and  C_15
REMARK   11  A    between atoms: C_15  and  C_16
REMARK   12  A    between atoms: C_19  and  O_20
REMARK   13  A    between atoms: O_20  and  C_21
REMARK                            x       y       z     vdW  Elec       q    Type
REMARK                         _______ _______ _______ _____ _____    ______ ____
ROOT
ATOM      1  C   UNL     1       3.744   5.566  18.510  0.00  0.00    +0.000 A 
ATOM      2  C   UNL     1       4.094   6.636  17.670  0.00  0.00    +0.000 A 
ATOM      3  C   UNL     1       4.861   6.476  16.525  0.00  0.00    +0.000 A 
ATOM      4  C   UNL     1       5.431   5.241  16.241  0.00  0.00    +0.000 A 
ATOM      5  C   UNL     1       5.171   4.187  17.111  0.00  0.00    +0.000 A 
ATOM      6  C   UNL     1       4.328   4.310  18.231  0.00  0.00    +0.000 A 
ENDROOT
BRANCH   4   7
ATOM      7  C   UNL     1       6.296   4.987  15.058  0.00  0.00    +0.000 C 
ATOM      8  C   UNL     1       5.881   4.075  13.950  0.00  0.00    +0.000 C 
ATOM      9  O   UNL     1       7.418   5.577  14.986  0.00  0.00    +0.000 OA
ENDBRANCH   4   7
BRANCH   6  10
ATOM     10  O   UNL     1       4.185   3.054  18.769  0.00  0.00    +0.000 OA
ATOM     11  C   UNL     1       3.392   2.113  18.088  0.00  0.00    +0.000 C 
ENDBRANCH   6  10
BRANCH   1  12
ATOM     12  O   UNL     1       2.795   5.827  19.481  0.00  0.00    +0.000 OA
BRANCH  12  13
ATOM     13  C   UNL     1       2.419   7.233  19.627  0.00  0.00    +0.000 C 
BRANCH  13  14
ATOM     14  C   UNL     1       1.484   7.521  20.791  0.00  0.00    +0.000 C 
BRANCH  14  15
ATOM     15  C   UNL     1       1.309   9.041  20.895  0.00  0.00    +0.000 C 
BRANCH  15  16
ATOM     16  C   UNL     1      -0.069   9.463  20.425  0.00  0.00    +0.000 C 
BRANCH  16  17
ATOM     17  N   UNL     1      -0.101   9.851  19.012  0.00  0.00    +0.000 NA
ATOM     18  C   UNL     1       1.082  10.624  18.602  0.00  0.00    +0.000 C 
BRANCH  17  19
ATOM     19  C   UNL     1      -1.327  10.630  18.811  0.00  0.00    +0.000 C 
BRANCH  19  21
ATOM     20  C   UNL     1      -2.517   9.913  16.353  0.00  0.00    +0.000 C 
ATOM     21  C   UNL     1      -1.967  10.244  17.487  0.00  0.00    +0.000 C 
ENDBRANCH  19  21
ENDBRANCH  17  19
ENDBRANCH  16  17
ENDBRANCH  15  16
ENDBRANCH  14  15
ENDBRANCH  13  14
ENDBRANCH  12  13
ENDBRANCH   1  12
TORSDOF 10
ENDMDL
