MODEL 1
REMARK VINA RESULT:      -8.5      0.000      0.000
REMARK  Name = 
REMARK  8 active torsions:
REMARK  status: ('A' for Active; 'I' for Inactive)
REMARK    1  A    between atoms: C_1  and  C_2
REMARK    2  A    between atoms: C_2  and  C_4
REMARK    3  A    between atoms: C_6  and  C_7
REMARK    4  A    between atoms: N_14  and  C_15
REMARK    5  A    between atoms: C_15  and  C_16
REMARK    6  A    between atoms: C_16  and  C_17
REMARK    7  A    between atoms: N_19  and  C_20
REMARK    8  A    between atoms: C_26  and  C_27
REMARK                            x       y       z     vdW  Elec       q    Type
REMARK                         _______ _______ _______ _____ _____    ______ ____
ROOT
ATOM      1  C   UNL     1       5.196   4.725  16.346  0.00  0.00    +0.000 A 
ATOM      2  C   UNL     1       4.543   3.856  17.251  0.00  0.00    +0.000 A 
ATOM      3  C   UNL     1       3.699   4.581  18.080  0.00  0.00    +0.000 A 
ATOM      4  N   UNL     1       3.837   5.928  17.691  0.00  0.00    +0.000 N 
ATOM      5  C   UNL     1       4.726   6.009  16.620  0.00  0.00    +0.000 A 
ATOM      6  C   UNL     1       5.168   7.220  15.854  0.00  0.00    +0.000 C 
ENDROOT
BRANCH   3   7
ATOM      7  C   UNL     1       2.872   4.019  19.183  0.00  0.00    +0.000 A 
ATOM      8  C   UNL     1       3.512   3.483  20.320  0.00  0.00    +0.000 A 
ATOM      9  C   UNL     1       2.787   2.884  21.358  0.00  0.00    +0.000 A 
ATOM     10  C   UNL     1       1.404   2.834  21.286  0.00  0.00    +0.000 A 
ATOM     11  F   UNL     1       0.705   2.264  22.276  0.00  0.00    +0.000 F 
ATOM     12  C   UNL     1       0.740   3.350  20.185  0.00  0.00    +0.000 A 
ATOM     13  C   UNL     1       1.473   3.914  19.132  0.00  0.00    +0.000 A 
ENDBRANCH   3   7
BRANCH   1  15
ATOM     14  C   UNL     1       5.678   3.844  13.996  0.00  0.00    +0.000 C 
ATOM     15  C   UNL     1       6.184   4.377  15.306  0.00  0.00    +0.000 C 
ATOM     16  O   UNL     1       7.399   4.498  15.481  0.00  0.00    +0.000 OA
ENDBRANCH   1  15
BRANCH   4  17
ATOM     17  C   UNL     1       3.146   7.006  18.395  0.00  0.00    +0.000 C 
BRANCH  17  18
ATOM     18  C   UNL     1       2.455   8.102  17.609  0.00  0.00    +0.000 C 
BRANCH  18  19
ATOM     19  C   UNL     1       1.792   9.109  18.509  0.00  0.00    +0.000 C 
ATOM     20  O   UNL     1       1.644  10.279  18.180  0.00  0.00    +0.000 OA
ATOM     21  N   UNL     1       1.426   8.528  19.714  0.00  0.00    +0.000 N 
ATOM     22  H   UNL     1       1.772   7.594  19.903  0.00  0.00    +0.000 HD
BRANCH  21  23
ATOM     23  C   UNL     1       0.766   9.180  20.771  0.00  0.00    +0.000 A 
ATOM     24  C   UNL     1      -0.367   9.966  20.601  0.00  0.00    +0.000 A 
ATOM     25  C   UNL     1      -0.933  10.610  21.696  0.00  0.00    +0.000 A 
ATOM     26  C   UNL     1      -0.348  10.433  22.938  0.00  0.00    +0.000 A 
ATOM     27  N   UNL     1       0.730   9.650  23.154  0.00  0.00    +0.000 NA
ATOM     28  C   UNL     1       1.255   9.035  22.069  0.00  0.00    +0.000 A 
ENDBRANCH  21  23
ENDBRANCH  18  19
ENDBRANCH  17  18
ENDBRANCH   4  17
TORSDOF 6
ENDMDL
MODEL 2
REMARK VINA RESULT:      -8.3      1.775      2.005
REMARK  Name = 
REMARK  8 active torsions:
REMARK  status: ('A' for Active; 'I' for Inactive)
REMARK    1  A    between atoms: C_1  and  C_2
REMARK    2  A    between atoms: C_2  and  C_4
REMARK    3  A    between atoms: C_6  and  C_7
REMARK    4  A    between atoms: N_14  and  C_15
REMARK    5  A    between atoms: C_15  and  C_16
REMARK    6  A    between atoms: C_16  and  C_17
REMARK    7  A    between atoms: N_19  and  C_20
REMARK    8  A    between atoms: C_26  and  C_27
REMARK                            x       y       z     vdW  Elec       q    Type
REMARK                         _______ _______ _______ _____ _____    ______ ____
ROOT
ATOM      1  C   UNL     1       5.183   4.709  16.370  0.00  0.00    +0.000 A 
ATOM      2  C   UNL     1       4.527   3.836  17.269  0.00  0.00    +0.000 A 
ATOM      3  C   UNL     1       3.716   4.563  18.129  0.00  0.00    +0.000 A 
ATOM      4  N   UNL     1       3.877   5.914  17.765  0.00  0.00    +0.000 N 
ATOM      5  C   UNL     1       4.749   5.997  16.679  0.00  0.00    +0.000 A 
ATOM      6  C   UNL     1       5.204   7.213  15.929  0.00  0.00    +0.000 C 
ENDROOT
BRANCH   3   7
ATOM      7  C   UNL     1       2.896   3.997  19.236  0.00  0.00    +0.000 A 
ATOM      8  C   UNL     1       3.538   3.308  20.286  0.00  0.00    +0.000 A 
ATOM      9  C   UNL     1       2.813   2.700  21.319  0.00  0.00    +0.000 A 
ATOM     10  C   UNL     1       1.430   2.795  21.331  0.00  0.00    +0.000 A 
ATOM     11  F   UNL     1       0.732   2.218  22.317  0.00  0.00    +0.000 F 
ATOM     12  C   UNL     1       0.764   3.464  20.316  0.00  0.00    +0.000 A 
ATOM     13  C   UNL     1       1.493   4.036  19.265  0.00  0.00    +0.000 A 
ENDBRANCH   3   7
BRANCH   1  15
ATOM     14  C   UNL     1       5.600   3.911  13.978  0.00  0.00    +0.000 C 
ATOM     15  C   UNL     1       6.143   4.359  15.305  0.00  0.00    +0.000 C 
ATOM     16  O   UNL     1       7.365   4.413  15.471  0.00  0.00    +0.000 OA
ENDBRANCH   1  15
BRANCH   4  17
ATOM     17  C   UNL     1       3.225   6.993  18.504  0.00  0.00    +0.000 C 
BRANCH  17  18
ATOM     18  C   UNL     1       2.618   8.162  17.755  0.00  0.00    +0.000 C 
BRANCH  18  19
ATOM     19  C   UNL     1       1.558   8.860  18.564  0.00  0.00    +0.000 C 
ATOM     20  O   UNL     1       1.470   8.725  19.778  0.00  0.00    +0.000 OA
ATOM     21  N   UNL     1       0.729   9.613  17.745  0.00  0.00    +0.000 N 
ATOM     22  H   UNL     1       0.825   9.485  16.744  0.00  0.00    +0.000 HD
BRANCH  21  23
ATOM     23  C   UNL     1      -0.349  10.407  18.178  0.00  0.00    +0.000 A 
ATOM     24  C   UNL     1      -1.676  10.130  17.873  0.00  0.00    +0.000 A 
ATOM     25  C   UNL     1      -2.678  10.993  18.306  0.00  0.00    +0.000 A 
ATOM     26  C   UNL     1      -2.316  12.104  19.046  0.00  0.00    +0.000 A 
ATOM     27  N   UNL     1      -1.043  12.391  19.395  0.00  0.00    +0.000 NA
ATOM     28  C   UNL     1      -0.092  11.532  18.961  0.00  0.00    +0.000 A 
ENDBRANCH  21  23
ENDBRANCH  18  19
ENDBRANCH  17  18
ENDBRANCH   4  17
TORSDOF 6
ENDMDL
MODEL 3
REMARK VINA RESULT:      -8.2      1.758      2.058
REMARK  Name = 
REMARK  8 active torsions:
REMARK  status: ('A' for Active; 'I' for Inactive)
REMARK    1  A    between atoms: C_1  and  C_2
REMARK    2  A    between atoms: C_2  and  C_4
REMARK    3  A    between atoms: C_6  and  C_7
REMARK    4  A    between atoms: N_14  and  C_15
REMARK    5  A    between atoms: C_15  and  C_16
REMARK    6  A    between atoms: C_16  and  C_17
REMARK    7  A    between atoms: N_19  and  C_20
REMARK    8  A    between atoms: C_26  and  C_27
REMARK                            x       y       z     vdW  Elec       q    Type
REMARK                         _______ _______ _______ _____ _____    ______ ____
ROOT
ATOM      1  C   UNL     1       5.254   4.691  16.254  0.00  0.00    +0.000 A 
ATOM      2  C   UNL     1       4.645   3.785  17.154  0.00  0.00    +0.000 A 
ATOM      3  C   UNL     1       3.812   4.472  18.026  0.00  0.00    +0.000 A 
ATOM      4  N   UNL     1       3.911   5.831  17.669  0.00  0.00    +0.000 N 
ATOM      5  C   UNL     1       4.767   5.957  16.575  0.00  0.00    +0.000 A 
ATOM      6  C   UNL     1       5.161   7.196  15.828  0.00  0.00    +0.000 C 
ENDROOT
BRANCH   3   7
ATOM      7  C   UNL     1       3.029   3.864  19.138  0.00  0.00    +0.000 A 
ATOM      8  C   UNL     1       1.627   4.017  19.156  0.00  0.00    +0.000 A 
ATOM      9  C   UNL     1       0.847   3.523  20.209  0.00  0.00    +0.000 A 
ATOM     10  C   UNL     1       1.457   2.844  21.252  0.00  0.00    +0.000 A 
ATOM     11  F   UNL     1       0.716   2.367  22.260  0.00  0.00    +0.000 F 
ATOM     12  C   UNL     1       2.832   2.674  21.269  0.00  0.00    +0.000 A 
ATOM     13  C   UNL     1       3.611   3.206  20.232  0.00  0.00    +0.000 A 
ENDBRANCH   3   7
BRANCH   1  15
ATOM     14  C   UNL     1       5.684   3.862  13.875  0.00  0.00    +0.000 C 
ATOM     15  C   UNL     1       6.217   4.389  15.177  0.00  0.00    +0.000 C 
ATOM     16  O   UNL     1       7.433   4.545  15.314  0.00  0.00    +0.000 OA
ENDBRANCH   1  15
BRANCH   4  17
ATOM     17  C   UNL     1       3.220   6.876  18.421  0.00  0.00    +0.000 C 
BRANCH  17  18
ATOM     18  C   UNL     1       2.304   7.844  17.702  0.00  0.00    +0.000 C 
BRANCH  18  19
ATOM     19  C   UNL     1       1.575   8.748  18.660  0.00  0.00    +0.000 C 
ATOM     20  O   UNL     1       1.537   8.527  19.863  0.00  0.00    +0.000 OA
ATOM     21  N   UNL     1       0.966   9.794  17.983  0.00  0.00    +0.000 N 
ATOM     22  H   UNL     1       0.944   9.743  16.970  0.00  0.00    +0.000 HD
BRANCH  21  23
ATOM     23  C   UNL     1       0.223  10.832  18.575  0.00  0.00    +0.000 A 
ATOM     24  C   UNL     1      -1.162  10.816  18.690  0.00  0.00    +0.000 A 
ATOM     25  C   UNL     1      -1.821  11.904  19.253  0.00  0.00    +0.000 A 
ATOM     26  C   UNL     1      -1.064  12.974  19.697  0.00  0.00    +0.000 A 
ATOM     27  N   UNL     1       0.284  13.016  19.637  0.00  0.00    +0.000 NA
ATOM     28  C   UNL     1       0.896  11.941  19.088  0.00  0.00    +0.000 A 
ENDBRANCH  21  23
ENDBRANCH  18  19
ENDBRANCH  17  18
ENDBRANCH   4  17
TORSDOF 6
ENDMDL
MODEL 4
REMARK VINA RESULT:      -8.2      1.031      1.128
REMARK  Name = 
REMARK  8 active torsions:
REMARK  status: ('A' for Active; 'I' for Inactive)
REMARK    1  A    between atoms: C_1  and  C_2
REMARK    2  A    between atoms: C_2  and  C_4
REMARK    3  A    between atoms: C_6  and  C_7
REMARK    4  A    between atoms: N_14  and  C_15
REMARK    5  A    between atoms: C_15  and  C_16
REMARK    6  A    between atoms: C_16  and  C_17
REMARK    7  A    between atoms: N_19  and  C_20
REMARK    8  A    between atoms: C_26  and  C_27
REMARK                            x       y       z     vdW  Elec       q    Type
REMARK                         _______ _______ _______ _____ _____    ______ ____
ROOT
ATOM      1  C   UNL     1       5.259   4.710  16.385  0.00  0.00    +0.000 A 
ATOM      2  C   UNL     1       4.613   3.847  17.302  0.00  0.00    +0.000 A 
ATOM      3  C   UNL     1       3.744   4.573  18.105  0.00  0.00    +0.000 A 
ATOM      4  N   UNL     1       3.857   5.914  17.686  0.00  0.00    +0.000 N 
ATOM      5  C   UNL     1       4.758   5.989  16.624  0.00  0.00    +0.000 A 
ATOM      6  C   UNL     1       5.183   7.192  15.836  0.00  0.00    +0.000 C 
ENDROOT
BRANCH   3   7
ATOM      7  C   UNL     1       2.915   4.019  19.211  0.00  0.00    +0.000 A 
ATOM      8  C   UNL     1       3.551   3.365  20.287  0.00  0.00    +0.000 A 
ATOM      9  C   UNL     1       2.818   2.768  21.321  0.00  0.00    +0.000 A 
ATOM     10  C   UNL     1       1.434   2.840  21.307  0.00  0.00    +0.000 A 
ATOM     11  F   UNL     1       0.728   2.274  22.295  0.00  0.00    +0.000 F 
ATOM     12  C   UNL     1       0.774   3.474  20.267  0.00  0.00    +0.000 A 
ATOM     13  C   UNL     1       1.512   4.035  19.215  0.00  0.00    +0.000 A 
ENDBRANCH   3   7
BRANCH   1  15
ATOM     14  C   UNL     1       5.785   3.854  14.036  0.00  0.00    +0.000 C 
ATOM     15  C   UNL     1       6.267   4.359  15.366  0.00  0.00    +0.000 C 
ATOM     16  O   UNL     1       7.479   4.457  15.573  0.00  0.00    +0.000 OA
ENDBRANCH   1  15
BRANCH   4  17
ATOM     17  C   UNL     1       3.135   6.993  18.357  0.00  0.00    +0.000 C 
BRANCH  17  18
ATOM     18  C   UNL     1       1.920   7.613  17.697  0.00  0.00    +0.000 C 
BRANCH  18  19
ATOM     19  C   UNL     1       1.719   9.044  18.119  0.00  0.00    +0.000 C 
ATOM     20  O   UNL     1       2.327   9.968  17.596  0.00  0.00    +0.000 OA
ATOM     21  N   UNL     1       0.804   9.127  19.158  0.00  0.00    +0.000 N 
ATOM     22  H   UNL     1       0.517   8.259  19.596  0.00  0.00    +0.000 HD
BRANCH  21  23
ATOM     23  C   UNL     1       0.369  10.315  19.774  0.00  0.00    +0.000 A 
ATOM     24  C   UNL     1      -0.680  11.089  19.294  0.00  0.00    +0.000 A 
ATOM     25  C   UNL     1      -1.017  12.273  19.941  0.00  0.00    +0.000 A 
ATOM     26  C   UNL     1      -0.295  12.638  21.064  0.00  0.00    +0.000 A 
ATOM     27  N   UNL     1       0.706  11.898  21.585  0.00  0.00    +0.000 NA
ATOM     28  C   UNL     1       1.008  10.751  20.934  0.00  0.00    +0.000 A 
ENDBRANCH  21  23
ENDBRANCH  18  19
ENDBRANCH  17  18
ENDBRANCH   4  17
TORSDOF 6
ENDMDL
MODEL 5
REMARK VINA RESULT:      -8.1      1.536      1.911
REMARK  Name = 
REMARK  8 active torsions:
REMARK  status: ('A' for Active; 'I' for Inactive)
REMARK    1  A    between atoms: C_1  and  C_2
REMARK    2  A    between atoms: C_2  and  C_4
REMARK    3  A    between atoms: C_6  and  C_7
REMARK    4  A    between atoms: N_14  and  C_15
REMARK    5  A    between atoms: C_15  and  C_16
REMARK    6  A    between atoms: C_16  and  C_17
REMARK    7  A    between atoms: N_19  and  C_20
REMARK    8  A    between atoms: C_26  and  C_27
REMARK                            x       y       z     vdW  Elec       q    Type
REMARK                         _______ _______ _______ _____ _____    ______ ____
ROOT
ATOM      1  C   UNL     1       5.475   4.646  16.706  0.00  0.00    +0.000 A 
ATOM      2  C   UNL     1       4.907   3.810  17.695  0.00  0.00    +0.000 A 
ATOM      3  C   UNL     1       3.740   4.381  18.185  0.00  0.00    +0.000 A 
ATOM      4  N   UNL     1       3.585   5.599  17.495  0.00  0.00    +0.000 N 
ATOM      5  C   UNL     1       4.626   5.744  16.578  0.00  0.00    +0.000 A 
ATOM      6  C   UNL     1       4.873   6.858  15.605  0.00  0.00    +0.000 C 
ENDROOT
BRANCH   3   7
ATOM      7  C   UNL     1       2.881   3.814  19.262  0.00  0.00    +0.000 A 
ATOM      8  C   UNL     1       2.992   4.325  20.572  0.00  0.00    +0.000 A 
ATOM      9  C   UNL     1       2.257   3.787  21.636  0.00  0.00    +0.000 A 
ATOM     10  C   UNL     1       1.377   2.743  21.399  0.00  0.00    +0.000 A 
ATOM     11  F   UNL     1       0.669   2.226  22.412  0.00  0.00    +0.000 F 
ATOM     12  C   UNL     1       1.240   2.215  20.125  0.00  0.00    +0.000 A 
ATOM     13  C   UNL     1       2.008   2.732  19.073  0.00  0.00    +0.000 A 
ENDBRANCH   3   7
BRANCH   1  15
ATOM     14  C   UNL     1       6.606   4.090  14.483  0.00  0.00    +0.000 C 
ATOM     15  C   UNL     1       6.719   4.430  15.942  0.00  0.00    +0.000 C 
ATOM     16  O   UNL     1       7.836   4.509  16.459  0.00  0.00    +0.000 OA
ENDBRANCH   1  15
BRANCH   4  17
ATOM     17  C   UNL     1       2.492   6.521  17.798  0.00  0.00    +0.000 C 
BRANCH  17  18
ATOM     18  C   UNL     1       2.710   7.656  18.778  0.00  0.00    +0.000 C 
BRANCH  18  19
ATOM     19  C   UNL     1       1.961   8.898  18.377  0.00  0.00    +0.000 C 
ATOM     20  O   UNL     1       2.135   9.444  17.296  0.00  0.00    +0.000 OA
ATOM     21  N   UNL     1       1.113   9.311  19.394  0.00  0.00    +0.000 N 
ATOM     22  H   UNL     1       1.209   8.854  20.294  0.00  0.00    +0.000 HD
BRANCH  21  23
ATOM     23  C   UNL     1       0.252  10.422  19.343  0.00  0.00    +0.000 A 
ATOM     24  C   UNL     1       0.569  11.665  19.878  0.00  0.00    +0.000 A 
ATOM     25  C   UNL     1      -0.359  12.699  19.821  0.00  0.00    +0.000 A 
ATOM     26  C   UNL     1      -1.578  12.457  19.214  0.00  0.00    +0.000 A 
ATOM     27  N   UNL     1      -1.914  11.277  18.651  0.00  0.00    +0.000 NA
ATOM     28  C   UNL     1      -0.989  10.292  18.719  0.00  0.00    +0.000 A 
ENDBRANCH  21  23
ENDBRANCH  18  19
ENDBRANCH  17  18
ENDBRANCH   4  17
TORSDOF 6
ENDMDL
MODEL 6
REMARK VINA RESULT:      -8.1      1.774      2.164
REMARK  Name = 
REMARK  8 active torsions:
REMARK  status: ('A' for Active; 'I' for Inactive)
REMARK    1  A    between atoms: C_1  and  C_2
REMARK    2  A    between atoms: C_2  and  C_4
REMARK    3  A    between atoms: C_6  and  C_7
REMARK    4  A    between atoms: N_14  and  C_15
REMARK    5  A    between atoms: C_15  and  C_16
REMARK    6  A    between atoms: C_16  and  C_17
REMARK    7  A    between atoms: N_19  and  C_20
REMARK    8  A    between atoms: C_26  and  C_27
REMARK                            x       y       z     vdW  Elec       q    Type
REMARK                         _______ _______ _______ _____ _____    ______ ____
ROOT
ATOM      1  C   UNL     1       5.350   4.632  16.588  0.00  0.00    +0.000 A 
ATOM      2  C   UNL     1       4.735   3.788  17.541  0.00  0.00    +0.000 A 
ATOM      3  C   UNL     1       3.698   4.462  18.172  0.00  0.00    +0.000 A 
ATOM      4  N   UNL     1       3.674   5.752  17.609  0.00  0.00    +0.000 N 
ATOM      5  C   UNL     1       4.662   5.844  16.628  0.00  0.00    +0.000 A 
ATOM      6  C   UNL     1       5.001   7.005  15.741  0.00  0.00    +0.000 C 
ENDROOT
BRANCH   3   7
ATOM      7  C   UNL     1       2.841   3.913  19.260  0.00  0.00    +0.000 A 
ATOM      8  C   UNL     1       3.427   3.591  20.502  0.00  0.00    +0.000 A 
ATOM      9  C   UNL     1       2.682   3.012  21.538  0.00  0.00    +0.000 A 
ATOM     10  C   UNL     1       1.330   2.771  21.356  0.00  0.00    +0.000 A 
ATOM     11  F   UNL     1       0.613   2.222  22.344  0.00  0.00    +0.000 F 
ATOM     12  C   UNL     1       0.719   3.076  20.150  0.00  0.00    +0.000 A 
ATOM     13  C   UNL     1       1.478   3.618  19.103  0.00  0.00    +0.000 A 
ENDBRANCH   3   7
BRANCH   1  15
ATOM     14  C   UNL     1       6.212   3.820  14.323  0.00  0.00    +0.000 C 
ATOM     15  C   UNL     1       6.496   4.324  15.710  0.00  0.00    +0.000 C 
ATOM     16  O   UNL     1       7.666   4.457  16.076  0.00  0.00    +0.000 OA
ENDBRANCH   1  15
BRANCH   4  17
ATOM     17  C   UNL     1       2.749   6.780  18.080  0.00  0.00    +0.000 C 
BRANCH  17  18
ATOM     18  C   UNL     1       2.593   7.033  19.566  0.00  0.00    +0.000 C 
BRANCH  18  19
ATOM     19  C   UNL     1       1.777   8.266  19.845  0.00  0.00    +0.000 C 
ATOM     20  O   UNL     1       1.403   8.558  20.973  0.00  0.00    +0.000 OA
ATOM     21  N   UNL     1       1.513   8.958  18.673  0.00  0.00    +0.000 N 
ATOM     22  H   UNL     1       1.744   8.498  17.799  0.00  0.00    +0.000 HD
BRANCH  21  23
ATOM     23  C   UNL     1       0.796  10.165  18.577  0.00  0.00    +0.000 A 
ATOM     24  C   UNL     1       1.354  11.412  18.829  0.00  0.00    +0.000 A 
ATOM     25  C   UNL     1       0.561  12.552  18.752  0.00  0.00    +0.000 A 
ATOM     26  C   UNL     1      -0.772  12.405  18.409  0.00  0.00    +0.000 A 
ATOM     27  N   UNL     1      -1.345  11.217  18.120  0.00  0.00    +0.000 NA
ATOM     28  C   UNL     1      -0.547  10.128  18.201  0.00  0.00    +0.000 A 
ENDBRANCH  21  23
ENDBRANCH  18  19
ENDBRANCH  17  18
ENDBRANCH   4  17
TORSDOF 6
ENDMDL
MODEL 7
REMARK VINA RESULT:      -8.1      0.792      1.235
REMARK  Name = 
REMARK  8 active torsions:
REMARK  status: ('A' for Active; 'I' for Inactive)
REMARK    1  A    between atoms: C_1  and  C_2
REMARK    2  A    between atoms: C_2  and  C_4
REMARK    3  A    between atoms: C_6  and  C_7
REMARK    4  A    between atoms: N_14  and  C_15
REMARK    5  A    between atoms: C_15  and  C_16
REMARK    6  A    between atoms: C_16  and  C_17
REMARK    7  A    between atoms: N_19  and  C_20
REMARK    8  A    between atoms: C_26  and  C_27
REMARK                            x       y       z     vdW  Elec       q    Type
REMARK                         _______ _______ _______ _____ _____    ______ ____
ROOT
ATOM      1  C   UNL     1       5.436   4.626  16.555  0.00  0.00    +0.000 A 
ATOM      2  C   UNL     1       4.886   3.754  17.524  0.00  0.00    +0.000 A 
ATOM      3  C   UNL     1       3.799   4.358  18.142  0.00  0.00    +0.000 A 
ATOM      4  N   UNL     1       3.677   5.633  17.554  0.00  0.00    +0.000 N 
ATOM      5  C   UNL     1       4.656   5.781  16.571  0.00  0.00    +0.000 A 
ATOM      6  C   UNL     1       4.906   6.947  15.663  0.00  0.00    +0.000 C 
ENDROOT
BRANCH   3   7
ATOM      7  C   UNL     1       2.985   3.767  19.240  0.00  0.00    +0.000 A 
ATOM      8  C   UNL     1       1.659   3.366  18.975  0.00  0.00    +0.000 A 
ATOM      9  C   UNL     1       0.827   2.864  19.984  0.00  0.00    +0.000 A 
ATOM     10  C   UNL     1       1.319   2.730  21.272  0.00  0.00    +0.000 A 
ATOM     11  F   UNL     1       0.529   2.248  22.240  0.00  0.00    +0.000 F 
ATOM     12  C   UNL     1       2.617   3.113  21.571  0.00  0.00    +0.000 A 
ATOM     13  C   UNL     1       3.432   3.652  20.565  0.00  0.00    +0.000 A 
ENDBRANCH   3   7
BRANCH   1  15
ATOM     14  C   UNL     1       6.354   3.990  14.256  0.00  0.00    +0.000 C 
ATOM     15  C   UNL     1       6.603   4.390  15.683  0.00  0.00    +0.000 C 
ATOM     16  O   UNL     1       7.764   4.501  16.086  0.00  0.00    +0.000 OA
ENDBRANCH   1  15
BRANCH   4  17
ATOM     17  C   UNL     1       2.675   6.595  18.005  0.00  0.00    +0.000 C 
BRANCH  17  18
ATOM     18  C   UNL     1       2.654   7.043  19.452  0.00  0.00    +0.000 C 
BRANCH  18  19
ATOM     19  C   UNL     1       1.862   8.309  19.639  0.00  0.00    +0.000 C 
ATOM     20  O   UNL     1       1.813   9.180  18.781  0.00  0.00    +0.000 OA
ATOM     21  N   UNL     1       1.257   8.332  20.888  0.00  0.00    +0.000 N 
ATOM     22  H   UNL     1       1.534   7.616  21.551  0.00  0.00    +0.000 HD
BRANCH  21  23
ATOM     23  C   UNL     1       0.428   9.356  21.378  0.00  0.00    +0.000 A 
ATOM     24  C   UNL     1      -0.344  10.175  20.563  0.00  0.00    +0.000 A 
ATOM     25  C   UNL     1      -1.105  11.193  21.129  0.00  0.00    +0.000 A 
ATOM     26  C   UNL     1      -1.077  11.350  22.503  0.00  0.00    +0.000 A 
ATOM     27  N   UNL     1      -0.370  10.555  23.334  0.00  0.00    +0.000 NA
ATOM     28  C   UNL     1       0.357   9.572  22.754  0.00  0.00    +0.000 A 
ENDBRANCH  21  23
ENDBRANCH  18  19
ENDBRANCH  17  18
ENDBRANCH   4  17
TORSDOF 6
ENDMDL
MODEL 8
REMARK VINA RESULT:      -7.9      3.068      5.066
REMARK  Name = 
REMARK  8 active torsions:
REMARK  status: ('A' for Active; 'I' for Inactive)
REMARK    1  A    between atoms: C_1  and  C_2
REMARK    2  A    between atoms: C_2  and  C_4
REMARK    3  A    between atoms: C_6  and  C_7
REMARK    4  A    between atoms: N_14  and  C_15
REMARK    5  A    between atoms: C_15  and  C_16
REMARK    6  A    between atoms: C_16  and  C_17
REMARK    7  A    between atoms: N_19  and  C_20
REMARK    8  A    between atoms: C_26  and  C_27
REMARK                            x       y       z     vdW  Elec       q    Type
REMARK                         _______ _______ _______ _____ _____    ______ ____
ROOT
ATOM      1  C   UNL     1       2.736   4.455  20.127  0.00  0.00    +0.000 A 
ATOM      2  C   UNL     1       3.720   4.099  19.176  0.00  0.00    +0.000 A 
ATOM      3  C   UNL     1       4.043   5.198  18.393  0.00  0.00    +0.000 A 
ATOM      4  N   UNL     1       3.238   6.256  18.859  0.00  0.00    +0.000 N 
ATOM      5  C   UNL     1       2.464   5.808  19.930  0.00  0.00    +0.000 A 
ATOM      6  C   UNL     1       1.480   6.573  20.764  0.00  0.00    +0.000 C 
ENDROOT
BRANCH   3   7
ATOM      7  C   UNL     1       5.012   5.205  17.262  0.00  0.00    +0.000 A 
ATOM      8  C   UNL     1       4.705   4.485  16.089  0.00  0.00    +0.000 A 
ATOM      9  C   UNL     1       5.607   4.404  15.020  0.00  0.00    +0.000 A 
ATOM     10  C   UNL     1       6.823   5.065  15.099  0.00  0.00    +0.000 A 
ATOM     11  F   UNL     1       7.687   4.992  14.079  0.00  0.00    +0.000 F 
ATOM     12  C   UNL     1       7.158   5.783  16.235  0.00  0.00    +0.000 A 
ATOM     13  C   UNL     1       6.268   5.828  17.317  0.00  0.00    +0.000 A 
ENDBRANCH   3   7
BRANCH   1  15
ATOM     14  C   UNL     1       0.868   2.825  20.749  0.00  0.00    +0.000 C 
ATOM     15  C   UNL     1       2.100   3.591  21.141  0.00  0.00    +0.000 C 
ATOM     16  O   UNL     1       2.537   3.486  22.290  0.00  0.00    +0.000 OA
ENDBRANCH   1  15
BRANCH   4  17
ATOM     17  C   UNL     1       3.250   7.571  18.222  0.00  0.00    +0.000 C 
BRANCH  17  18
ATOM     18  C   UNL     1       1.969   8.150  17.658  0.00  0.00    +0.000 C 
BRANCH  18  19
ATOM     19  C   UNL     1       1.753   9.574  18.096  0.00  0.00    +0.000 C 
ATOM     20  O   UNL     1       2.421  10.500  17.655  0.00  0.00    +0.000 OA
ATOM     21  N   UNL     1       0.748   9.649  19.049  0.00  0.00    +0.000 N 
ATOM     22  H   UNL     1       0.409   8.775  19.437  0.00  0.00    +0.000 HD
BRANCH  21  23
ATOM     23  C   UNL     1       0.278  10.829  19.653  0.00  0.00    +0.000 A 
ATOM     24  C   UNL     1      -0.769  11.588  19.144  0.00  0.00    +0.000 A 
ATOM     25  C   UNL     1      -1.142  12.766  19.783  0.00  0.00    +0.000 A 
ATOM     26  C   UNL     1      -0.459  13.140  20.926  0.00  0.00    +0.000 A 
ATOM     27  N   UNL     1       0.539  12.414  21.475  0.00  0.00    +0.000 NA
ATOM     28  C   UNL     1       0.876  11.272  20.832  0.00  0.00    +0.000 A 
ENDBRANCH  21  23
ENDBRANCH  18  19
ENDBRANCH  17  18
ENDBRANCH   4  17
TORSDOF 6
ENDMDL
MODEL 9
REMARK VINA RESULT:      -7.8      1.453      1.754
REMARK  Name = 
REMARK  8 active torsions:
REMARK  status: ('A' for Active; 'I' for Inactive)
REMARK    1  A    between atoms: C_1  and  C_2
REMARK    2  A    between atoms: C_2  and  C_4
REMARK    3  A    between atoms: C_6  and  C_7
REMARK    4  A    between atoms: N_14  and  C_15
REMARK    5  A    between atoms: C_15  and  C_16
REMARK    6  A    between atoms: C_16  and  C_17
REMARK    7  A    between atoms: N_19  and  C_20
REMARK    8  A    between atoms: C_26  and  C_27
REMARK                            x       y       z     vdW  Elec       q    Type
REMARK                         _______ _______ _______ _____ _____    ______ ____
ROOT
ATOM      1  C   UNL     1       4.877   4.640  16.159  0.00  0.00    +0.000 A 
ATOM      2  C   UNL     1       4.263   3.725  17.047  0.00  0.00    +0.000 A 
ATOM      3  C   UNL     1       3.608   4.414  18.058  0.00  0.00    +0.000 A 
ATOM      4  N   UNL     1       3.827   5.782  17.802  0.00  0.00    +0.000 N 
ATOM      5  C   UNL     1       4.575   5.916  16.632  0.00  0.00    +0.000 A 
ATOM      6  C   UNL     1       5.032   7.169  15.947  0.00  0.00    +0.000 C 
ENDROOT
BRANCH   3   7
ATOM      7  C   UNL     1       2.876   3.795  19.199  0.00  0.00    +0.000 A 
ATOM      8  C   UNL     1       1.471   3.901  19.255  0.00  0.00    +0.000 A 
ATOM      9  C   UNL     1       0.738   3.394  20.335  0.00  0.00    +0.000 A 
ATOM     10  C   UNL     1       1.400   2.749  21.368  0.00  0.00    +0.000 A 
ATOM     11  F   UNL     1       0.704   2.260  22.402  0.00  0.00    +0.000 F 
ATOM     12  C   UNL     1       2.780   2.625  21.347  0.00  0.00    +0.000 A 
ATOM     13  C   UNL     1       3.511   3.169  20.283  0.00  0.00    +0.000 A 
ENDBRANCH   3   7
BRANCH   1  15
ATOM     14  C   UNL     1       7.180   4.439  15.070  0.00  0.00    +0.000 C 
ATOM     15  C   UNL     1       5.685   4.337  14.962  0.00  0.00    +0.000 C 
ATOM     16  O   UNL     1       5.177   4.015  13.885  0.00  0.00    +0.000 OA
ENDBRANCH   1  15
BRANCH   4  17
ATOM     17  C   UNL     1       3.341   6.822  18.706  0.00  0.00    +0.000 C 
BRANCH  17  18
ATOM     18  C   UNL     1       2.337   7.844  18.214  0.00  0.00    +0.000 C 
BRANCH  18  19
ATOM     19  C   UNL     1       1.651   8.553  19.350  0.00  0.00    +0.000 C 
ATOM     20  O   UNL     1       1.598   8.079  20.477  0.00  0.00    +0.000 OA
ATOM     21  N   UNL     1       1.097   9.750  18.921  0.00  0.00    +0.000 N 
ATOM     22  H   UNL     1       1.076   9.921  17.921  0.00  0.00    +0.000 HD
BRANCH  21  23
ATOM     23  C   UNL     1       0.405  10.670  19.730  0.00  0.00    +0.000 A 
ATOM     24  C   UNL     1      -0.959  10.916  19.618  0.00  0.00    +0.000 A 
ATOM     25  C   UNL     1      -1.556  11.874  20.431  0.00  0.00    +0.000 A 
ATOM     26  C   UNL     1      -0.765  12.549  21.343  0.00  0.00    +0.000 A 
ATOM     27  N   UNL     1       0.554  12.316  21.509  0.00  0.00    +0.000 NA
ATOM     28  C   UNL     1       1.105  11.376  20.707  0.00  0.00    +0.000 A 
ENDBRANCH  21  23
ENDBRANCH  18  19
ENDBRANCH  17  18
ENDBRANCH   4  17
TORSDOF 6
ENDMDL
