MODEL 1
REMARK VINA RESULT:      -8.7      0.000      0.000
REMARK  Name = 
REMARK  5 active torsions:
REMARK  status: ('A' for Active; 'I' for Inactive)
REMARK    1  A    between atoms: C_2  and  C_3
REMARK    2  A    between atoms: C_6  and  O_7
REMARK    3  A    between atoms: O_7  and  C_8
REMARK    4  A    between atoms: N_11  and  C_12
REMARK    5  A    between atoms: C_12  and  C_13
REMARK                            x       y       z     vdW  Elec       q    Type
REMARK                         _______ _______ _______ _____ _____    ______ ____
ROOT
ATOM      1  O   UNL     1       2.851   6.169  20.017  0.00  0.00    +0.000 OA
ENDROOT
BRANCH   1   5
ATOM      2  C   UNL     1       0.713   9.719  19.402  0.00  0.00    +0.000 A 
ATOM      3  C   UNL     1       0.612   9.086  20.646  0.00  0.00    +0.000 A 
ATOM      4  C   UNL     1       1.322   7.901  20.895  0.00  0.00    +0.000 A 
ATOM      5  C   UNL     1       2.140   7.340  19.911  0.00  0.00    +0.000 A 
ATOM      6  C   UNL     1       2.266   8.000  18.686  0.00  0.00    +0.000 A 
ATOM      7  C   UNL     1       1.589   9.195  18.444  0.00  0.00    +0.000 A 
BRANCH   2   9
ATOM      8  O   UNL     1       0.276  11.995  19.691  0.00  0.00    +0.000 OA
ATOM      9  C   UNL     1      -0.070  10.959  19.142  0.00  0.00    +0.000 C 
ATOM     10  N   UNL     1      -1.169  10.874  18.294  0.00  0.00    +0.000 N 
ATOM     11  C   UNL     1      -1.942  12.057  17.948  0.00  0.00    +0.000 C 
ATOM     12  C   UNL     1      -3.356  11.534  17.723  0.00  0.00    +0.000 C 
ATOM     13  C   UNL     1      -3.121  10.139  17.165  0.00  0.00    +0.000 C 
ATOM     14  C   UNL     1      -1.889   9.660  17.922  0.00  0.00    +0.000 C 
ENDBRANCH   2   9
ENDBRANCH   1   5
BRANCH   1  15
ATOM     15  C   UNL     1       2.237   4.958  19.550  0.00  0.00    +0.000 C 
ATOM     16  C   UNL     1       3.081   3.755  19.966  0.00  0.00    +0.000 C 
ATOM     17  C   UNL     1       4.418   3.679  19.234  0.00  0.00    +0.000 C 
ATOM     18  N   UNL     1       4.338   3.828  17.780  0.00  0.00    +0.000 NA
ATOM     19  C   UNL     1       3.436   4.880  17.309  0.00  0.00    +0.000 C 
ATOM     20  C   UNL     1       2.091   4.947  18.031  0.00  0.00    +0.000 C 
BRANCH  18  21
ATOM     21  C   UNL     1       5.677   3.921  17.149  0.00  0.00    +0.000 C 
BRANCH  21  22
ATOM     22  C   UNL     1       6.543   5.112  17.552  0.00  0.00    +0.000 A 
ATOM     23  C   UNL     1       7.366   5.036  18.692  0.00  0.00    +0.000 A 
ATOM     24  C   UNL     1       8.112   6.140  19.109  0.00  0.00    +0.000 A 
ATOM     25  C   UNL     1       8.058   7.319  18.378  0.00  0.00    +0.000 A 
ATOM     26  F   UNL     1       8.773   8.379  18.779  0.00  0.00    +0.000 F 
ATOM     27  C   UNL     1       7.272   7.413  17.236  0.00  0.00    +0.000 A 
ATOM     28  C   UNL     1       6.518   6.311  16.822  0.00  0.00    +0.000 A 
ENDBRANCH  21  22
ENDBRANCH  18  21
ENDBRANCH   1  15
TORSDOF 5
ENDMDL
MODEL 2
REMARK VINA RESULT:      -8.5      0.285      1.319
REMARK  Name = 
REMARK  5 active torsions:
REMARK  status: ('A' for Active; 'I' for Inactive)
REMARK    1  A    between atoms: C_2  and  C_3
REMARK    2  A    between atoms: C_6  and  O_7
REMARK    3  A    between atoms: O_7  and  C_8
REMARK    4  A    between atoms: N_11  and  C_12
REMARK    5  A    between atoms: C_12  and  C_13
REMARK                            x       y       z     vdW  Elec       q    Type
REMARK                         _______ _______ _______ _____ _____    ______ ____
ROOT
ATOM      1  O   UNL     1       2.837   5.877  20.102  0.00  0.00    +0.000 OA
ENDROOT
BRANCH   1   5
ATOM      2  C   UNL     1       0.896   9.540  19.491  0.00  0.00    +0.000 A 
ATOM      3  C   UNL     1       1.702   9.033  18.466  0.00  0.00    +0.000 A 
ATOM      4  C   UNL     1       2.360   7.803  18.628  0.00  0.00    +0.000 A 
ATOM      5  C   UNL     1       2.218   7.068  19.807  0.00  0.00    +0.000 A 
ATOM      6  C   UNL     1       1.379   7.562  20.810  0.00  0.00    +0.000 A 
ATOM      7  C   UNL     1       0.697   8.767  20.641  0.00  0.00    +0.000 A 
BRANCH   2   9
ATOM      8  O   UNL     1       0.675  11.825  19.921  0.00  0.00    +0.000 OA
ATOM      9  C   UNL     1       0.228  10.859  19.318  0.00  0.00    +0.000 C 
ATOM     10  N   UNL     1      -0.883  10.927  18.484  0.00  0.00    +0.000 N 
ATOM     11  C   UNL     1      -1.546  12.194  18.220  0.00  0.00    +0.000 C 
ATOM     12  C   UNL     1      -3.005  11.818  17.988  0.00  0.00    +0.000 C 
ATOM     13  C   UNL     1      -2.906  10.443  17.345  0.00  0.00    +0.000 C 
ATOM     14  C   UNL     1      -1.716   9.809  18.053  0.00  0.00    +0.000 C 
ENDBRANCH   2   9
ENDBRANCH   1   5
BRANCH   1  15
ATOM     15  C   UNL     1       2.293   4.672  19.542  0.00  0.00    +0.000 C 
ATOM     16  C   UNL     1       3.210   3.493  19.860  0.00  0.00    +0.000 C 
ATOM     17  C   UNL     1       4.544   3.554  19.123  0.00  0.00    +0.000 C 
ATOM     18  N   UNL     1       4.446   3.812  17.686  0.00  0.00    +0.000 NA
ATOM     19  C   UNL     1       3.481   4.842  17.300  0.00  0.00    +0.000 C 
ATOM     20  C   UNL     1       2.138   4.772  18.027  0.00  0.00    +0.000 C 
BRANCH  18  21
ATOM     21  C   UNL     1       5.774   4.034  17.061  0.00  0.00    +0.000 C 
BRANCH  21  22
ATOM     22  C   UNL     1       6.571   5.236  17.558  0.00  0.00    +0.000 A 
ATOM     23  C   UNL     1       6.500   6.466  16.875  0.00  0.00    +0.000 A 
ATOM     24  C   UNL     1       7.275   7.555  17.280  0.00  0.00    +0.000 A 
ATOM     25  C   UNL     1       8.108   7.429  18.382  0.00  0.00    +0.000 A 
ATOM     26  F   UNL     1       8.853   8.473  18.770  0.00  0.00    +0.000 F 
ATOM     27  C   UNL     1       8.181   6.235  19.089  0.00  0.00    +0.000 A 
ATOM     28  C   UNL     1       7.412   5.141  18.679  0.00  0.00    +0.000 A 
ENDBRANCH  21  22
ENDBRANCH  18  21
ENDBRANCH   1  15
TORSDOF 5
ENDMDL
MODEL 3
REMARK VINA RESULT:      -8.4      1.379      2.043
REMARK  Name = 
REMARK  5 active torsions:
REMARK  status: ('A' for Active; 'I' for Inactive)
REMARK    1  A    between atoms: C_2  and  C_3
REMARK    2  A    between atoms: C_6  and  O_7
REMARK    3  A    between atoms: O_7  and  C_8
REMARK    4  A    between atoms: N_11  and  C_12
REMARK    5  A    between atoms: C_12  and  C_13
REMARK                            x       y       z     vdW  Elec       q    Type
REMARK                         _______ _______ _______ _____ _____    ______ ____
ROOT
ATOM      1  O   UNL     1       2.749   6.486  19.941  0.00  0.00    +0.000 OA
ENDROOT
BRANCH   1   5
ATOM      2  C   UNL     1       0.590   9.976  19.098  0.00  0.00    +0.000 A 
ATOM      3  C   UNL     1       0.470   9.409  20.372  0.00  0.00    +0.000 A 
ATOM      4  C   UNL     1       1.187   8.246  20.697  0.00  0.00    +0.000 A 
ATOM      5  C   UNL     1       2.029   7.642  19.760  0.00  0.00    +0.000 A 
ATOM      6  C   UNL     1       2.173   8.238  18.504  0.00  0.00    +0.000 A 
ATOM      7  C   UNL     1       1.489   9.411  18.187  0.00  0.00    +0.000 A 
BRANCH   2   9
ATOM      8  O   UNL     1      -1.213  11.063  18.085  0.00  0.00    +0.000 OA
ATOM      9  C   UNL     1      -0.200  11.192  18.758  0.00  0.00    +0.000 C 
ATOM     10  N   UNL     1       0.264  12.422  19.213  0.00  0.00    +0.000 N 
ATOM     11  C   UNL     1      -0.489  13.643  18.971  0.00  0.00    +0.000 C 
ATOM     12  C   UNL     1       0.573  14.732  18.879  0.00  0.00    +0.000 C 
ATOM     13  C   UNL     1       1.649  14.243  19.836  0.00  0.00    +0.000 C 
ATOM     14  C   UNL     1       1.619  12.731  19.657  0.00  0.00    +0.000 C 
ENDBRANCH   2   9
ENDBRANCH   1   5
BRANCH   1  15
ATOM     15  C   UNL     1       2.128   5.239  19.594  0.00  0.00    +0.000 C 
ATOM     16  C   UNL     1       2.971   4.077  20.115  0.00  0.00    +0.000 C 
ATOM     17  C   UNL     1       4.302   3.927  19.384  0.00  0.00    +0.000 C 
ATOM     18  N   UNL     1       4.212   3.939  17.924  0.00  0.00    +0.000 NA
ATOM     19  C   UNL     1       3.310   4.946  17.362  0.00  0.00    +0.000 C 
ATOM     20  C   UNL     1       1.970   5.086  18.085  0.00  0.00    +0.000 C 
BRANCH  18  21
ATOM     21  C   UNL     1       5.547   3.967  17.277  0.00  0.00    +0.000 C 
BRANCH  21  22
ATOM     22  C   UNL     1       6.455   5.142  17.631  0.00  0.00    +0.000 A 
ATOM     23  C   UNL     1       7.350   5.044  18.714  0.00  0.00    +0.000 A 
ATOM     24  C   UNL     1       8.139   6.133  19.090  0.00  0.00    +0.000 A 
ATOM     25  C   UNL     1       8.054   7.319  18.374  0.00  0.00    +0.000 A 
ATOM     26  F   UNL     1       8.809   8.365  18.735  0.00  0.00    +0.000 F 
ATOM     27  C   UNL     1       7.196   7.435  17.287  0.00  0.00    +0.000 A 
ATOM     28  C   UNL     1       6.400   6.348  16.915  0.00  0.00    +0.000 A 
ENDBRANCH  21  22
ENDBRANCH  18  21
ENDBRANCH   1  15
TORSDOF 5
ENDMDL
MODEL 4
REMARK VINA RESULT:      -8.3      1.497      2.522
REMARK  Name = 
REMARK  5 active torsions:
REMARK  status: ('A' for Active; 'I' for Inactive)
REMARK    1  A    between atoms: C_2  and  C_3
REMARK    2  A    between atoms: C_6  and  O_7
REMARK    3  A    between atoms: O_7  and  C_8
REMARK    4  A    between atoms: N_11  and  C_12
REMARK    5  A    between atoms: C_12  and  C_13
REMARK                            x       y       z     vdW  Elec       q    Type
REMARK                         _______ _______ _______ _____ _____    ______ ____
ROOT
ATOM      1  O   UNL     1       2.690   6.599  19.935  0.00  0.00    +0.000 OA
ENDROOT
BRANCH   1   5
ATOM      2  C   UNL     1       0.616  10.130  19.051  0.00  0.00    +0.000 A 
ATOM      3  C   UNL     1       1.389   9.541  18.044  0.00  0.00    +0.000 A 
ATOM      4  C   UNL     1       2.089   8.351  18.298  0.00  0.00    +0.000 A 
ATOM      5  C   UNL     1       2.023   7.737  19.551  0.00  0.00    +0.000 A 
ATOM      6  C   UNL     1       1.218   8.312  20.538  0.00  0.00    +0.000 A 
ATOM      7  C   UNL     1       0.493   9.475  20.282  0.00  0.00    +0.000 A 
BRANCH   2   9
ATOM      8  O   UNL     1      -1.158  11.368  18.168  0.00  0.00    +0.000 OA
ATOM      9  C   UNL     1      -0.097  11.408  18.776  0.00  0.00    +0.000 C 
ATOM     10  N   UNL     1       0.486  12.592  19.216  0.00  0.00    +0.000 N 
ATOM     11  C   UNL     1      -0.184  13.870  19.037  0.00  0.00    +0.000 C 
ATOM     12  C   UNL     1       0.951  14.877  18.890  0.00  0.00    +0.000 C 
ATOM     13  C   UNL     1       2.044  14.292  19.771  0.00  0.00    +0.000 C 
ATOM     14  C   UNL     1       1.887  12.790  19.576  0.00  0.00    +0.000 C 
ENDBRANCH   2   9
ENDBRANCH   1   5
BRANCH   1  15
ATOM     15  C   UNL     1       2.128   5.329  19.574  0.00  0.00    +0.000 C 
ATOM     16  C   UNL     1       2.986   4.201  20.145  0.00  0.00    +0.000 C 
ATOM     17  C   UNL     1       4.353   4.090  19.477  0.00  0.00    +0.000 C 
ATOM     18  N   UNL     1       4.330   4.086  18.014  0.00  0.00    +0.000 NA
ATOM     19  C   UNL     1       3.421   5.056  17.401  0.00  0.00    +0.000 C 
ATOM     20  C   UNL     1       2.045   5.157  18.060  0.00  0.00    +0.000 C 
BRANCH  18  21
ATOM     21  C   UNL     1       5.691   4.154  17.428  0.00  0.00    +0.000 C 
BRANCH  21  22
ATOM     22  C   UNL     1       6.533   5.374  17.793  0.00  0.00    +0.000 A 
ATOM     23  C   UNL     1       6.437   6.554  17.031  0.00  0.00    +0.000 A 
ATOM     24  C   UNL     1       7.249   7.655  17.313  0.00  0.00    +0.000 A 
ATOM     25  C   UNL     1       8.145   7.591  18.370  0.00  0.00    +0.000 A 
ATOM     26  F   UNL     1       8.926   8.646  18.640  0.00  0.00    +0.000 F 
ATOM     27  C   UNL     1       8.244   6.446  19.152  0.00  0.00    +0.000 A 
ATOM     28  C   UNL     1       7.437   5.341  18.866  0.00  0.00    +0.000 A 
ENDBRANCH  21  22
ENDBRANCH  18  21
ENDBRANCH   1  15
TORSDOF 5
ENDMDL
MODEL 5
REMARK VINA RESULT:      -8.1      1.283      1.855
REMARK  Name = 
REMARK  5 active torsions:
REMARK  status: ('A' for Active; 'I' for Inactive)
REMARK    1  A    between atoms: C_2  and  C_3
REMARK    2  A    between atoms: C_6  and  O_7
REMARK    3  A    between atoms: O_7  and  C_8
REMARK    4  A    between atoms: N_11  and  C_12
REMARK    5  A    between atoms: C_12  and  C_13
REMARK                            x       y       z     vdW  Elec       q    Type
REMARK                         _______ _______ _______ _____ _____    ______ ____
ROOT
ATOM      1  O   UNL     1       2.373   5.792  20.790  0.00  0.00    +0.000 OA
ENDROOT
BRANCH   1   5
ATOM      2  C   UNL     1       0.798   9.496  19.625  0.00  0.00    +0.000 A 
ATOM      3  C   UNL     1       0.454   8.990  20.885  0.00  0.00    +0.000 A 
ATOM      4  C   UNL     1       0.970   7.758  21.315  0.00  0.00    +0.000 A 
ATOM      5  C   UNL     1       1.835   7.023  20.501  0.00  0.00    +0.000 A 
ATOM      6  C   UNL     1       2.204   7.553  19.262  0.00  0.00    +0.000 A 
ATOM      7  C   UNL     1       1.720   8.792  18.842  0.00  0.00    +0.000 A 
BRANCH   2   9
ATOM      8  O   UNL     1       0.749  11.829  19.533  0.00  0.00    +0.000 OA
ATOM      9  C   UNL     1       0.218  10.789  19.169  0.00  0.00    +0.000 C 
ATOM     10  N   UNL     1      -0.912  10.751  18.359  0.00  0.00    +0.000 N 
ATOM     11  C   UNL     1      -1.494  11.974  17.827  0.00  0.00    +0.000 C 
ATOM     12  C   UNL     1      -2.982  11.665  17.708  0.00  0.00    +0.000 C 
ATOM     13  C   UNL     1      -2.999  10.178  17.390  0.00  0.00    +0.000 C 
ATOM     14  C   UNL     1      -1.834   9.630  18.204  0.00  0.00    +0.000 C 
ENDBRANCH   2   9
ENDBRANCH   1   5
BRANCH   1  15
ATOM     15  C   UNL     1       1.493   4.658  20.824  0.00  0.00    +0.000 C 
ATOM     16  C   UNL     1       2.257   3.423  21.300  0.00  0.00    +0.000 C 
ATOM     17  C   UNL     1       3.290   2.932  20.291  0.00  0.00    +0.000 C 
ATOM     18  N   UNL     1       2.799   2.789  18.920  0.00  0.00    +0.000 NA
ATOM     19  C   UNL     1       1.944   3.879  18.446  0.00  0.00    +0.000 C 
ATOM     20  C   UNL     1       0.898   4.362  19.451  0.00  0.00    +0.000 C 
BRANCH  18  21
ATOM     21  C   UNL     1       3.888   2.480  17.961  0.00  0.00    +0.000 C 
BRANCH  21  22
ATOM     22  C   UNL     1       4.818   3.631  17.587  0.00  0.00    +0.000 A 
ATOM     23  C   UNL     1       4.978   4.003  16.238  0.00  0.00    +0.000 A 
ATOM     24  C   UNL     1       5.875   5.010  15.876  0.00  0.00    +0.000 A 
ATOM     25  C   UNL     1       6.601   5.666  16.860  0.00  0.00    +0.000 A 
ATOM     26  F   UNL     1       7.463   6.631  16.514  0.00  0.00    +0.000 F 
ATOM     27  C   UNL     1       6.445   5.334  18.201  0.00  0.00    +0.000 A 
ATOM     28  C   UNL     1       5.554   4.321  18.563  0.00  0.00    +0.000 A 
ENDBRANCH  21  22
ENDBRANCH  18  21
ENDBRANCH   1  15
TORSDOF 5
ENDMDL
MODEL 6
REMARK VINA RESULT:      -8.1      1.524      2.321
REMARK  Name = 
REMARK  5 active torsions:
REMARK  status: ('A' for Active; 'I' for Inactive)
REMARK    1  A    between atoms: C_2  and  C_3
REMARK    2  A    between atoms: C_6  and  O_7
REMARK    3  A    between atoms: O_7  and  C_8
REMARK    4  A    between atoms: N_11  and  C_12
REMARK    5  A    between atoms: C_12  and  C_13
REMARK                            x       y       z     vdW  Elec       q    Type
REMARK                         _______ _______ _______ _____ _____    ______ ____
ROOT
ATOM      1  O   UNL     1       2.761   6.923  19.620  0.00  0.00    +0.000 OA
ENDROOT
BRANCH   1   5
ATOM      2  C   UNL     1       0.209  10.242  19.450  0.00  0.00    +0.000 A 
ATOM      3  C   UNL     1       0.897   9.869  18.290  0.00  0.00    +0.000 A 
ATOM      4  C   UNL     1       1.752   8.756  18.304  0.00  0.00    +0.000 A 
ATOM      5  C   UNL     1       1.926   8.004  19.468  0.00  0.00    +0.000 A 
ATOM      6  C   UNL     1       1.205   8.359  20.611  0.00  0.00    +0.000 A 
ATOM      7  C   UNL     1       0.328   9.444  20.594  0.00  0.00    +0.000 A 
BRANCH   2   9
ATOM      8  O   UNL     1      -1.831  11.311  19.062  0.00  0.00    +0.000 OA
ATOM      9  C   UNL     1      -0.672  11.442  19.429  0.00  0.00    +0.000 C 
ATOM     10  N   UNL     1      -0.126  12.662  19.817  0.00  0.00    +0.000 N 
ATOM     11  C   UNL     1      -0.945  13.863  19.879  0.00  0.00    +0.000 C 
ATOM     12  C   UNL     1       0.023  14.998  19.564  0.00  0.00    +0.000 C 
ATOM     13  C   UNL     1       1.337  14.499  20.144  0.00  0.00    +0.000 C 
ATOM     14  C   UNL     1       1.292  13.000  19.879  0.00  0.00    +0.000 C 
ENDBRANCH   2   9
ENDBRANCH   1   5
BRANCH   1  15
ATOM     15  C   UNL     1       2.209   5.610  19.445  0.00  0.00    +0.000 C 
ATOM     16  C   UNL     1       3.059   4.586  20.195  0.00  0.00    +0.000 C 
ATOM     17  C   UNL     1       4.439   4.384  19.576  0.00  0.00    +0.000 C 
ATOM     18  N   UNL     1       4.443   4.159  18.130  0.00  0.00    +0.000 NA
ATOM     19  C   UNL     1       3.543   5.020  17.361  0.00  0.00    +0.000 C 
ATOM     20  C   UNL     1       2.155   5.211  17.973  0.00  0.00    +0.000 C 
BRANCH  18  21
ATOM     21  C   UNL     1       5.815   4.146  17.566  0.00  0.00    +0.000 C 
BRANCH  21  22
ATOM     22  C   UNL     1       6.665   5.390  17.804  0.00  0.00    +0.000 A 
ATOM     23  C   UNL     1       7.560   5.440  18.891  0.00  0.00    +0.000 A 
ATOM     24  C   UNL     1       8.295   6.597  19.159  0.00  0.00    +0.000 A 
ATOM     25  C   UNL     1       8.158   7.702  18.331  0.00  0.00    +0.000 A 
ATOM     26  F   UNL     1       8.861   8.813  18.589  0.00  0.00    +0.000 F 
ATOM     27  C   UNL     1       7.300   7.672  17.238  0.00  0.00    +0.000 A 
ATOM     28  C   UNL     1       6.557   6.517  16.974  0.00  0.00    +0.000 A 
ENDBRANCH  21  22
ENDBRANCH  18  21
ENDBRANCH   1  15
TORSDOF 5
ENDMDL
MODEL 7
REMARK VINA RESULT:      -8.0      1.087      1.654
REMARK  Name = 
REMARK  5 active torsions:
REMARK  status: ('A' for Active; 'I' for Inactive)
REMARK    1  A    between atoms: C_2  and  C_3
REMARK    2  A    between atoms: C_6  and  O_7
REMARK    3  A    between atoms: O_7  and  C_8
REMARK    4  A    between atoms: N_11  and  C_12
REMARK    5  A    between atoms: C_12  and  C_13
REMARK                            x       y       z     vdW  Elec       q    Type
REMARK                         _______ _______ _______ _____ _____    ______ ____
ROOT
ATOM      1  O   UNL     1       2.623   5.814  20.586  0.00  0.00    +0.000 OA
ENDROOT
BRANCH   1   5
ATOM      2  C   UNL     1       0.926   9.515  19.598  0.00  0.00    +0.000 A 
ATOM      3  C   UNL     1       1.726   8.872  18.646  0.00  0.00    +0.000 A 
ATOM      4  C   UNL     1       2.303   7.626  18.935  0.00  0.00    +0.000 A 
ATOM      5  C   UNL     1       2.085   7.007  20.169  0.00  0.00    +0.000 A 
ATOM      6  C   UNL     1       1.253   7.637  21.098  0.00  0.00    +0.000 A 
ATOM      7  C   UNL     1       0.650   8.860  20.804  0.00  0.00    +0.000 A 
BRANCH   2   9
ATOM      8  O   UNL     1       0.885  11.845  19.753  0.00  0.00    +0.000 OA
ATOM      9  C   UNL     1       0.345  10.850  19.289  0.00  0.00    +0.000 C 
ATOM     10  N   UNL     1      -0.796  10.901  18.495  0.00  0.00    +0.000 N 
ATOM     11  C   UNL     1      -1.381  12.174  18.103  0.00  0.00    +0.000 C 
ATOM     12  C   UNL     1      -2.872  11.883  17.973  0.00  0.00    +0.000 C 
ATOM     13  C   UNL     1      -2.899  10.437  17.500  0.00  0.00    +0.000 C 
ATOM     14  C   UNL     1      -1.725   9.805  18.235  0.00  0.00    +0.000 C 
ENDBRANCH   2   9
ENDBRANCH   1   5
BRANCH   1  15
ATOM     15  C   UNL     1       1.782   4.651  20.580  0.00  0.00    +0.000 C 
ATOM     16  C   UNL     1       2.595   3.419  20.970  0.00  0.00    +0.000 C 
ATOM     17  C   UNL     1       3.619   3.017  19.913  0.00  0.00    +0.000 C 
ATOM     18  N   UNL     1       3.099   2.931  18.548  0.00  0.00    +0.000 NA
ATOM     19  C   UNL     1       2.198   4.015  18.153  0.00  0.00    +0.000 C 
ATOM     20  C   UNL     1       1.163   4.409  19.206  0.00  0.00    +0.000 C 
BRANCH  18  21
ATOM     21  C   UNL     1       4.173   2.709  17.548  0.00  0.00    +0.000 C 
BRANCH  21  22
ATOM     22  C   UNL     1       5.155   3.858  17.334  0.00  0.00    +0.000 A 
ATOM     23  C   UNL     1       5.805   4.450  18.434  0.00  0.00    +0.000 A 
ATOM     24  C   UNL     1       6.655   5.544  18.258  0.00  0.00    +0.000 A 
ATOM     25  C   UNL     1       6.879   6.038  16.981  0.00  0.00    +0.000 A 
ATOM     26  F   UNL     1       7.693   7.089  16.812  0.00  0.00    +0.000 F 
ATOM     27  C   UNL     1       6.269   5.458  15.875  0.00  0.00    +0.000 A 
ATOM     28  C   UNL     1       5.411   4.368  16.051  0.00  0.00    +0.000 A 
ENDBRANCH  21  22
ENDBRANCH  18  21
ENDBRANCH   1  15
TORSDOF 5
ENDMDL
MODEL 8
REMARK VINA RESULT:      -7.9      2.182      2.716
REMARK  Name = 
REMARK  5 active torsions:
REMARK  status: ('A' for Active; 'I' for Inactive)
REMARK    1  A    between atoms: C_2  and  C_3
REMARK    2  A    between atoms: C_6  and  O_7
REMARK    3  A    between atoms: O_7  and  C_8
REMARK    4  A    between atoms: N_11  and  C_12
REMARK    5  A    between atoms: C_12  and  C_13
REMARK                            x       y       z     vdW  Elec       q    Type
REMARK                         _______ _______ _______ _____ _____    ______ ____
ROOT
ATOM      1  O   UNL     1       2.865   6.923  19.699  0.00  0.00    +0.000 OA
ENDROOT
BRANCH   1   5
ATOM      2  C   UNL     1       0.017   9.993  19.823  0.00  0.00    +0.000 A 
ATOM      3  C   UNL     1       0.166   9.175  20.949  0.00  0.00    +0.000 A 
ATOM      4  C   UNL     1       1.117   8.143  20.951  0.00  0.00    +0.000 A 
ATOM      5  C   UNL     1       1.929   7.920  19.836  0.00  0.00    +0.000 A 
ATOM      6  C   UNL     1       1.801   8.766  18.732  0.00  0.00    +0.000 A 
ATOM      7  C   UNL     1       0.881   9.814  18.737  0.00  0.00    +0.000 A 
BRANCH   2   9
ATOM      8  O   UNL     1      -0.977  11.916  20.701  0.00  0.00    +0.000 OA
ATOM      9  C   UNL     1      -1.017  11.064  19.825  0.00  0.00    +0.000 C 
ATOM     10  N   UNL     1      -1.991  11.036  18.832  0.00  0.00    +0.000 N 
ATOM     11  C   UNL     1      -2.995  12.085  18.736  0.00  0.00    +0.000 C 
ATOM     12  C   UNL     1      -4.219  11.387  18.154  0.00  0.00    +0.000 C 
ATOM     13  C   UNL     1      -3.610  10.324  17.252  0.00  0.00    +0.000 C 
ATOM     14  C   UNL     1      -2.366   9.888  18.013  0.00  0.00    +0.000 C 
ENDBRANCH   2   9
ENDBRANCH   1   5
BRANCH   1  15
ATOM     15  C   UNL     1       2.409   5.610  19.340  0.00  0.00    +0.000 C 
ATOM     16  C   UNL     1       3.296   4.555  20.000  0.00  0.00    +0.000 C 
ATOM     17  C   UNL     1       4.709   4.516  19.426  0.00  0.00    +0.000 C 
ATOM     18  N   UNL     1       4.784   4.473  17.965  0.00  0.00    +0.000 NA
ATOM     19  C   UNL     1       3.859   5.365  17.265  0.00  0.00    +0.000 C 
ATOM     20  C   UNL     1       2.439   5.394  17.830  0.00  0.00    +0.000 C 
BRANCH  18  21
ATOM     21  C   UNL     1       6.174   4.613  17.468  0.00  0.00    +0.000 C 
BRANCH  21  22
ATOM     22  C   UNL     1       6.382   4.454  15.964  0.00  0.00    +0.000 A 
ATOM     23  C   UNL     1       7.387   5.189  15.306  0.00  0.00    +0.000 A 
ATOM     24  C   UNL     1       7.545   5.103  13.921  0.00  0.00    +0.000 A 
ATOM     25  C   UNL     1       6.715   4.266  13.189  0.00  0.00    +0.000 A 
ATOM     26  F   UNL     1       6.865   4.184  11.860  0.00  0.00    +0.000 F 
ATOM     27  C   UNL     1       5.730   3.512  13.816  0.00  0.00    +0.000 A 
ATOM     28  C   UNL     1       5.566   3.604  15.201  0.00  0.00    +0.000 A 
ENDBRANCH  21  22
ENDBRANCH  18  21
ENDBRANCH   1  15
TORSDOF 5
ENDMDL
MODEL 9
REMARK VINA RESULT:      -7.8      1.642      2.566
REMARK  Name = 
REMARK  5 active torsions:
REMARK  status: ('A' for Active; 'I' for Inactive)
REMARK    1  A    between atoms: C_2  and  C_3
REMARK    2  A    between atoms: C_6  and  O_7
REMARK    3  A    between atoms: O_7  and  C_8
REMARK    4  A    between atoms: N_11  and  C_12
REMARK    5  A    between atoms: C_12  and  C_13
REMARK                            x       y       z     vdW  Elec       q    Type
REMARK                         _______ _______ _______ _____ _____    ______ ____
ROOT
ATOM      1  O   UNL     1       2.453   6.236  20.484  0.00  0.00    +0.000 OA
ENDROOT
BRANCH   1   5
ATOM      2  C   UNL     1       0.627   9.822  19.319  0.00  0.00    +0.000 A 
ATOM      3  C   UNL     1       0.366   9.326  20.602  0.00  0.00    +0.000 A 
ATOM      4  C   UNL     1       0.967   8.133  21.033  0.00  0.00    +0.000 A 
ATOM      5  C   UNL     1       1.836   7.429  20.196  0.00  0.00    +0.000 A 
ATOM      6  C   UNL     1       2.122   7.952  18.932  0.00  0.00    +0.000 A 
ATOM      7  C   UNL     1       1.553   9.153  18.510  0.00  0.00    +0.000 A 
BRANCH   2   9
ATOM      8  O   UNL     1      -1.013  10.980  18.126  0.00  0.00    +0.000 OA
ATOM      9  C   UNL     1      -0.042  11.072  18.864  0.00  0.00    +0.000 C 
ATOM     10  N   UNL     1       0.480  12.288  19.292  0.00  0.00    +0.000 N 
ATOM     11  C   UNL     1      -0.160  13.545  18.936  0.00  0.00    +0.000 C 
ATOM     12  C   UNL     1       0.986  14.548  18.870  0.00  0.00    +0.000 C 
ATOM     13  C   UNL     1       1.953  14.035  19.926  0.00  0.00    +0.000 C 
ATOM     14  C   UNL     1       1.821  12.522  19.818  0.00  0.00    +0.000 C 
ENDBRANCH   2   9
ENDBRANCH   1   5
BRANCH   1  15
ATOM     15  C   UNL     1       1.650   5.047  20.519  0.00  0.00    +0.000 C 
ATOM     16  C   UNL     1       2.489   3.867  21.006  0.00  0.00    +0.000 C 
ATOM     17  C   UNL     1       3.559   3.440  20.006  0.00  0.00    +0.000 C 
ATOM     18  N   UNL     1       3.087   3.259  18.633  0.00  0.00    +0.000 NA
ATOM     19  C   UNL     1       2.166   4.288  18.148  0.00  0.00    +0.000 C 
ATOM     20  C   UNL     1       1.084   4.706  19.144  0.00  0.00    +0.000 C 
BRANCH  18  21
ATOM     21  C   UNL     1       4.199   3.017  17.681  0.00  0.00    +0.000 C 
BRANCH  21  22
ATOM     22  C   UNL     1       5.175   4.170  17.462  0.00  0.00    +0.000 A 
ATOM     23  C   UNL     1       5.254   4.802  16.206  0.00  0.00    +0.000 A 
ATOM     24  C   UNL     1       6.188   5.813  15.973  0.00  0.00    +0.000 A 
ATOM     25  C   UNL     1       7.033   6.215  16.998  0.00  0.00    +0.000 A 
ATOM     26  F   UNL     1       7.931   7.184  16.774  0.00  0.00    +0.000 F 
ATOM     27  C   UNL     1       6.961   5.624  18.254  0.00  0.00    +0.000 A 
ATOM     28  C   UNL     1       6.031   4.605  18.486  0.00  0.00    +0.000 A 
ENDBRANCH  21  22
ENDBRANCH  18  21
ENDBRANCH   1  15
TORSDOF 5
ENDMDL
