MODEL 1
REMARK VINA RESULT:      -7.7      0.000      0.000
REMARK  Name = 
REMARK  15 active torsions:
REMARK  status: ('A' for Active; 'I' for Inactive)
REMARK    1  A    between atoms: C_1  and  N_2
REMARK    2  A    between atoms: N_2  and  C_3
REMARK    3  A    between atoms: N_2  and  C_4
REMARK    4  A    between atoms: C_4  and  C_5
REMARK    5  A    between atoms: C_5  and  C_6
REMARK    6  A    between atoms: C_6  and  O_7
REMARK    7  A    between atoms: O_7  and  C_8
REMARK    8  A    between atoms: C_11  and  C_12
REMARK    9  A    between atoms: C_16  and  C_17
REMARK   10  A    between atoms: N_25  and  C_26
REMARK   11  A    between atoms: C_26  and  C_27
REMARK   12  A    between atoms: C_27  and  C_28
REMARK   13  A    between atoms: C_28  and  N_29
REMARK   14  A    between atoms: N_29  and  C_30
REMARK   15  A    between atoms: N_29  and  C_31
REMARK                            x       y       z     vdW  Elec       q    Type
REMARK                         _______ _______ _______ _____ _____    ______ ____
ROOT
ATOM      1  C   UNL     1       0.943  10.008  19.771  0.00  0.00    +0.000 A 
ATOM      2  C   UNL     1       1.325  10.477  18.516  0.00  0.00    +0.000 A 
ATOM      3  N   UNL     1       2.050   9.772  17.612  0.00  0.00    +0.000 NA
ATOM      4  C   UNL     1       2.396   8.508  17.959  0.00  0.00    +0.000 A 
ATOM      5  C   UNL     1       2.037   7.903  19.155  0.00  0.00    +0.000 A 
ATOM      6  C   UNL     1       1.342   8.698  20.067  0.00  0.00    +0.000 A 
ENDROOT
BRANCH   5   7
ATOM      7  C   UNL     1       2.339   6.518  19.532  0.00  0.00    +0.000 A 
ATOM      8  C   UNL     1       1.869   5.857  20.654  0.00  0.00    +0.000 A 
ATOM      9  C   UNL     1       2.380   4.548  20.663  0.00  0.00    +0.000 A 
ATOM     10  C   UNL     1       2.229   3.484  21.570  0.00  0.00    +0.000 A 
ATOM     11  C   UNL     1       2.990   2.334  21.399  0.00  0.00    +0.000 A 
ATOM     12  C   UNL     1       3.896   2.251  20.347  0.00  0.00    +0.000 A 
ATOM     13  C   UNL     1       4.013   3.279  19.392  0.00  0.00    +0.000 A 
ATOM     14  C   UNL     1       3.212   4.424  19.546  0.00  0.00    +0.000 A 
ATOM     15  N   UNL     1       3.026   5.566  18.774  0.00  0.00    +0.000 N 
BRANCH  15  16
ATOM     16  C   UNL     1       3.464   5.803  17.406  0.00  0.00    +0.000 C 
BRANCH  16  17
ATOM     17  C   UNL     1       4.950   5.768  17.031  0.00  0.00    +0.000 C 
BRANCH  17  18
ATOM     18  C   UNL     1       5.876   6.426  18.064  0.00  0.00    +0.000 C 
BRANCH  18  19
ATOM     19  N   UNL     1       7.258   5.900  18.016  0.00  0.00    +0.000 NA
ATOM     20  C   UNL     1       7.859   5.759  19.342  0.00  0.00    +0.000 C 
ATOM     21  C   UNL     1       7.276   4.599  17.334  0.00  0.00    +0.000 C 
ENDBRANCH  18  19
ENDBRANCH  17  18
ENDBRANCH  16  17
ENDBRANCH  15  16
ENDBRANCH   5   7
BRANCH   1  25
ATOM     22  C   UNL     1      -1.475  12.174  22.603  0.00  0.00    +0.000 A 
ATOM     23  C   UNL     1      -0.995  10.901  22.892  0.00  0.00    +0.000 A 
ATOM     24  C   UNL     1      -0.217  10.214  21.966  0.00  0.00    +0.000 A 
ATOM     25  C   UNL     1       0.135  10.781  20.730  0.00  0.00    +0.000 A 
ATOM     26  C   UNL     1      -0.320  12.084  20.469  0.00  0.00    +0.000 A 
ATOM     27  C   UNL     1      -1.125  12.766  21.392  0.00  0.00    +0.000 A 
BRANCH  22  28
ATOM     28  O   UNL     1      -2.297  12.902  23.426  0.00  0.00    +0.000 OA
BRANCH  28  29
ATOM     29  C   UNL     1      -3.438  12.179  23.896  0.00  0.00    +0.000 C 
BRANCH  29  30
ATOM     30  C   UNL     1      -4.675  13.058  23.860  0.00  0.00    +0.000 C 
BRANCH  30  31
ATOM     31  C   UNL     1      -5.001  13.486  22.422  0.00  0.00    +0.000 C 
BRANCH  31  33
ATOM     32  C   UNL     1      -6.752  12.170  21.348  0.00  0.00    +0.000 C 
ATOM     33  N   UNL     1      -5.310  12.365  21.515  0.00  0.00    +0.000 NA
ATOM     34  C   UNL     1      -4.680  12.578  20.209  0.00  0.00    +0.000 C 
ENDBRANCH  31  33
ENDBRANCH  30  31
ENDBRANCH  29  30
ENDBRANCH  28  29
ENDBRANCH  22  28
ENDBRANCH   1  25
TORSDOF 11
ENDMDL
MODEL 2
REMARK VINA RESULT:      -7.6      1.190      1.729
REMARK  Name = 
REMARK  15 active torsions:
REMARK  status: ('A' for Active; 'I' for Inactive)
REMARK    1  A    between atoms: C_1  and  N_2
REMARK    2  A    between atoms: N_2  and  C_3
REMARK    3  A    between atoms: N_2  and  C_4
REMARK    4  A    between atoms: C_4  and  C_5
REMARK    5  A    between atoms: C_5  and  C_6
REMARK    6  A    between atoms: C_6  and  O_7
REMARK    7  A    between atoms: O_7  and  C_8
REMARK    8  A    between atoms: C_11  and  C_12
REMARK    9  A    between atoms: C_16  and  C_17
REMARK   10  A    between atoms: N_25  and  C_26
REMARK   11  A    between atoms: C_26  and  C_27
REMARK   12  A    between atoms: C_27  and  C_28
REMARK   13  A    between atoms: C_28  and  N_29
REMARK   14  A    between atoms: N_29  and  C_30
REMARK   15  A    between atoms: N_29  and  C_31
REMARK                            x       y       z     vdW  Elec       q    Type
REMARK                         _______ _______ _______ _____ _____    ______ ____
ROOT
ATOM      1  C   UNL     1       0.892   9.856  19.838  0.00  0.00    +0.000 A 
ATOM      2  C   UNL     1       1.212  10.354  18.577  0.00  0.00    +0.000 A 
ATOM      3  N   UNL     1       1.944   9.694  17.645  0.00  0.00    +0.000 NA
ATOM      4  C   UNL     1       2.364   8.447  17.969  0.00  0.00    +0.000 A 
ATOM      5  C   UNL     1       2.072   7.814  19.169  0.00  0.00    +0.000 A 
ATOM      6  C   UNL     1       1.365   8.565  20.110  0.00  0.00    +0.000 A 
ENDROOT
BRANCH   5   7
ATOM      7  C   UNL     1       2.455   6.444  19.523  0.00  0.00    +0.000 A 
ATOM      8  C   UNL     1       1.761   5.595  20.369  0.00  0.00    +0.000 A 
ATOM      9  C   UNL     1       2.445   4.371  20.454  0.00  0.00    +0.000 A 
ATOM     10  C   UNL     1       2.183   3.193  21.176  0.00  0.00    +0.000 A 
ATOM     11  C   UNL     1       3.132   2.179  21.188  0.00  0.00    +0.000 A 
ATOM     12  C   UNL     1       4.330   2.341  20.500  0.00  0.00    +0.000 A 
ATOM     13  C   UNL     1       4.583   3.485  19.719  0.00  0.00    +0.000 A 
ATOM     14  C   UNL     1       3.601   4.492  19.678  0.00  0.00    +0.000 A 
ATOM     15  N   UNL     1       3.494   5.687  18.974  0.00  0.00    +0.000 N 
BRANCH  15  16
ATOM     16  C   UNL     1       4.305   6.144  17.856  0.00  0.00    +0.000 C 
BRANCH  16  17
ATOM     17  C   UNL     1       4.518   5.265  16.618  0.00  0.00    +0.000 C 
BRANCH  17  18
ATOM     18  C   UNL     1       5.314   5.943  15.494  0.00  0.00    +0.000 C 
BRANCH  18  19
ATOM     19  N   UNL     1       6.703   5.443  15.391  0.00  0.00    +0.000 NA
ATOM     20  C   UNL     1       7.090   4.599  16.522  0.00  0.00    +0.000 C 
ATOM     21  C   UNL     1       6.873   4.688  14.142  0.00  0.00    +0.000 C 
ENDBRANCH  18  19
ENDBRANCH  17  18
ENDBRANCH  16  17
ENDBRANCH  15  16
ENDBRANCH   5   7
BRANCH   1  25
ATOM     22  C   UNL     1      -1.447  12.064  22.704  0.00  0.00    +0.000 A 
ATOM     23  C   UNL     1      -1.150  12.597  21.454  0.00  0.00    +0.000 A 
ATOM     24  C   UNL     1      -0.392  11.872  20.541  0.00  0.00    +0.000 A 
ATOM     25  C   UNL     1       0.075  10.578  20.827  0.00  0.00    +0.000 A 
ATOM     26  C   UNL     1      -0.270  10.035  22.076  0.00  0.00    +0.000 A 
ATOM     27  C   UNL     1      -1.013  10.776  23.007  0.00  0.00    +0.000 A 
BRANCH  22  28
ATOM     28  O   UNL     1      -2.134  12.725  23.690  0.00  0.00    +0.000 OA
BRANCH  28  29
ATOM     29  C   UNL     1      -3.546  12.498  23.666  0.00  0.00    +0.000 C 
BRANCH  29  30
ATOM     30  C   UNL     1      -4.269  13.708  23.099  0.00  0.00    +0.000 C 
BRANCH  30  31
ATOM     31  C   UNL     1      -5.615  13.302  22.484  0.00  0.00    +0.000 C 
BRANCH  31  33
ATOM     32  C   UNL     1      -7.471  13.106  24.054  0.00  0.00    +0.000 C 
ATOM     33  N   UNL     1      -6.782  13.969  23.093  0.00  0.00    +0.000 NA
ATOM     34  C   UNL     1      -6.372  15.216  23.744  0.00  0.00    +0.000 C 
ENDBRANCH  31  33
ENDBRANCH  30  31
ENDBRANCH  29  30
ENDBRANCH  28  29
ENDBRANCH  22  28
ENDBRANCH   1  25
TORSDOF 11
ENDMDL
MODEL 3
REMARK VINA RESULT:      -7.6      1.574      2.048
REMARK  Name = 
REMARK  15 active torsions:
REMARK  status: ('A' for Active; 'I' for Inactive)
REMARK    1  A    between atoms: C_1  and  N_2
REMARK    2  A    between atoms: N_2  and  C_3
REMARK    3  A    between atoms: N_2  and  C_4
REMARK    4  A    between atoms: C_4  and  C_5
REMARK    5  A    between atoms: C_5  and  C_6
REMARK    6  A    between atoms: C_6  and  O_7
REMARK    7  A    between atoms: O_7  and  C_8
REMARK    8  A    between atoms: C_11  and  C_12
REMARK    9  A    between atoms: C_16  and  C_17
REMARK   10  A    between atoms: N_25  and  C_26
REMARK   11  A    between atoms: C_26  and  C_27
REMARK   12  A    between atoms: C_27  and  C_28
REMARK   13  A    between atoms: C_28  and  N_29
REMARK   14  A    between atoms: N_29  and  C_30
REMARK   15  A    between atoms: N_29  and  C_31
REMARK                            x       y       z     vdW  Elec       q    Type
REMARK                         _______ _______ _______ _____ _____    ______ ____
ROOT
ATOM      1  C   UNL     1       0.834   9.892  19.868  0.00  0.00    +0.000 A 
ATOM      2  C   UNL     1       1.210  10.392  18.623  0.00  0.00    +0.000 A 
ATOM      3  N   UNL     1       1.969   9.727  17.717  0.00  0.00    +0.000 NA
ATOM      4  C   UNL     1       2.358   8.472  18.049  0.00  0.00    +0.000 A 
ATOM      5  C   UNL     1       2.010   7.837  19.234  0.00  0.00    +0.000 A 
ATOM      6  C   UNL     1       1.278   8.593  20.150  0.00  0.00    +0.000 A 
ENDROOT
BRANCH   5   7
ATOM      7  C   UNL     1       2.360   6.460  19.594  0.00  0.00    +0.000 A 
ATOM      8  C   UNL     1       1.802   5.719  20.623  0.00  0.00    +0.000 A 
ATOM      9  C   UNL     1       2.398   4.447  20.649  0.00  0.00    +0.000 A 
ATOM     10  C   UNL     1       2.212   3.335  21.490  0.00  0.00    +0.000 A 
ATOM     11  C   UNL     1       3.065   2.246  21.374  0.00  0.00    +0.000 A 
ATOM     12  C   UNL     1       4.098   2.269  20.442  0.00  0.00    +0.000 A 
ATOM     13  C   UNL     1       4.260   3.344  19.547  0.00  0.00    +0.000 A 
ATOM     14  C   UNL     1       3.368   4.427  19.642  0.00  0.00    +0.000 A 
ATOM     15  N   UNL     1       3.199   5.589  18.894  0.00  0.00    +0.000 N 
BRANCH  15  16
ATOM     16  C   UNL     1       3.785   5.915  17.603  0.00  0.00    +0.000 C 
BRANCH  16  17
ATOM     17  C   UNL     1       5.286   6.185  17.457  0.00  0.00    +0.000 C 
BRANCH  17  18
ATOM     18  C   UNL     1       5.774   6.259  16.003  0.00  0.00    +0.000 C 
BRANCH  18  19
ATOM     19  N   UNL     1       7.061   5.560  15.792  0.00  0.00    +0.000 NA
ATOM     20  C   UNL     1       7.393   4.638  16.878  0.00  0.00    +0.000 C 
ATOM     21  C   UNL     1       7.029   4.822  14.523  0.00  0.00    +0.000 C 
ENDBRANCH  18  19
ENDBRANCH  17  18
ENDBRANCH  16  17
ENDBRANCH  15  16
ENDBRANCH   5   7
BRANCH   1  25
ATOM     22  C   UNL     1      -1.679  11.926  22.715  0.00  0.00    +0.000 A 
ATOM     23  C   UNL     1      -1.025  10.744  23.048  0.00  0.00    +0.000 A 
ATOM     24  C   UNL     1      -0.219  10.099  22.116  0.00  0.00    +0.000 A 
ATOM     25  C   UNL     1      -0.011  10.621  20.828  0.00  0.00    +0.000 A 
ATOM     26  C   UNL     1      -0.641  11.838  20.522  0.00  0.00    +0.000 A 
ATOM     27  C   UNL     1      -1.474  12.476  21.452  0.00  0.00    +0.000 A 
BRANCH  22  28
ATOM     28  O   UNL     1      -2.539  12.601  23.544  0.00  0.00    +0.000 OA
BRANCH  28  29
ATOM     29  C   UNL     1      -3.870  12.714  23.032  0.00  0.00    +0.000 C 
BRANCH  29  30
ATOM     30  C   UNL     1      -4.360  14.148  23.140  0.00  0.00    +0.000 C 
BRANCH  30  31
ATOM     31  C   UNL     1      -3.754  14.841  24.369  0.00  0.00    +0.000 C 
BRANCH  31  33
ATOM     32  C   UNL     1      -2.666  16.831  25.266  0.00  0.00    +0.000 C 
ATOM     33  N   UNL     1      -3.455  16.271  24.167  0.00  0.00    +0.000 NA
ATOM     34  C   UNL     1      -2.753  16.470  22.896  0.00  0.00    +0.000 C 
ENDBRANCH  31  33
ENDBRANCH  30  31
ENDBRANCH  29  30
ENDBRANCH  28  29
ENDBRANCH  22  28
ENDBRANCH   1  25
TORSDOF 11
ENDMDL
MODEL 4
REMARK VINA RESULT:      -7.5      0.851      1.075
REMARK  Name = 
REMARK  15 active torsions:
REMARK  status: ('A' for Active; 'I' for Inactive)
REMARK    1  A    between atoms: C_1  and  N_2
REMARK    2  A    between atoms: N_2  and  C_3
REMARK    3  A    between atoms: N_2  and  C_4
REMARK    4  A    between atoms: C_4  and  C_5
REMARK    5  A    between atoms: C_5  and  C_6
REMARK    6  A    between atoms: C_6  and  O_7
REMARK    7  A    between atoms: O_7  and  C_8
REMARK    8  A    between atoms: C_11  and  C_12
REMARK    9  A    between atoms: C_16  and  C_17
REMARK   10  A    between atoms: N_25  and  C_26
REMARK   11  A    between atoms: C_26  and  C_27
REMARK   12  A    between atoms: C_27  and  C_28
REMARK   13  A    between atoms: C_28  and  N_29
REMARK   14  A    between atoms: N_29  and  C_30
REMARK   15  A    between atoms: N_29  and  C_31
REMARK                            x       y       z     vdW  Elec       q    Type
REMARK                         _______ _______ _______ _____ _____    ______ ____
ROOT
ATOM      1  C   UNL     1       0.987   9.863  19.785  0.00  0.00    +0.000 A 
ATOM      2  C   UNL     1       1.318  10.339  18.518  0.00  0.00    +0.000 A 
ATOM      3  N   UNL     1       2.030   9.649  17.592  0.00  0.00    +0.000 NA
ATOM      4  C   UNL     1       2.416   8.394  17.928  0.00  0.00    +0.000 A 
ATOM      5  C   UNL     1       2.109   7.782  19.136  0.00  0.00    +0.000 A 
ATOM      6  C   UNL     1       1.425   8.562  20.069  0.00  0.00    +0.000 A 
ENDROOT
BRANCH   5   7
ATOM      7  C   UNL     1       2.455   6.406  19.503  0.00  0.00    +0.000 A 
ATOM      8  C   UNL     1       1.895   5.672  20.535  0.00  0.00    +0.000 A 
ATOM      9  C   UNL     1       2.488   4.399  20.568  0.00  0.00    +0.000 A 
ATOM     10  C   UNL     1       2.298   3.291  21.414  0.00  0.00    +0.000 A 
ATOM     11  C   UNL     1       3.150   2.200  21.305  0.00  0.00    +0.000 A 
ATOM     12  C   UNL     1       4.183   2.216  20.374  0.00  0.00    +0.000 A 
ATOM     13  C   UNL     1       4.349   3.286  19.474  0.00  0.00    +0.000 A 
ATOM     14  C   UNL     1       3.459   4.372  19.562  0.00  0.00    +0.000 A 
ATOM     15  N   UNL     1       3.294   5.530  18.809  0.00  0.00    +0.000 N 
BRANCH  15  16
ATOM     16  C   UNL     1       3.881   5.849  17.516  0.00  0.00    +0.000 C 
BRANCH  16  17
ATOM     17  C   UNL     1       5.035   5.018  16.942  0.00  0.00    +0.000 C 
BRANCH  17  18
ATOM     18  C   UNL     1       6.326   5.814  16.705  0.00  0.00    +0.000 C 
BRANCH  18  19
ATOM     19  N   UNL     1       6.797   6.522  17.916  0.00  0.00    +0.000 NA
ATOM     20  C   UNL     1       7.551   5.656  18.824  0.00  0.00    +0.000 C 
ATOM     21  C   UNL     1       7.631   7.668  17.534  0.00  0.00    +0.000 C 
ENDBRANCH  18  19
ENDBRANCH  17  18
ENDBRANCH  16  17
ENDBRANCH  15  16
ENDBRANCH   5   7
BRANCH   1  25
ATOM     22  C   UNL     1      -1.400  11.979  22.679  0.00  0.00    +0.000 A 
ATOM     23  C   UNL     1      -1.009  10.661  22.894  0.00  0.00    +0.000 A 
ATOM     24  C   UNL     1      -0.240   9.992  21.948  0.00  0.00    +0.000 A 
ATOM     25  C   UNL     1       0.192  10.618  20.767  0.00  0.00    +0.000 A 
ATOM     26  C   UNL     1      -0.173  11.961  20.585  0.00  0.00    +0.000 A 
ATOM     27  C   UNL     1      -0.970  12.629  21.526  0.00  0.00    +0.000 A 
BRANCH  22  28
ATOM     28  O   UNL     1      -2.207  12.700  23.523  0.00  0.00    +0.000 OA
BRANCH  28  29
ATOM     29  C   UNL     1      -3.092  13.601  22.852  0.00  0.00    +0.000 C 
BRANCH  29  30
ATOM     30  C   UNL     1      -4.238  12.839  22.210  0.00  0.00    +0.000 C 
BRANCH  30  31
ATOM     31  C   UNL     1      -5.590  13.330  22.747  0.00  0.00    +0.000 C 
BRANCH  31  33
ATOM     32  C   UNL     1      -7.729  12.625  23.683  0.00  0.00    +0.000 C 
ATOM     33  N   UNL     1      -6.647  12.301  22.751  0.00  0.00    +0.000 NA
ATOM     34  C   UNL     1      -7.187  12.120  21.401  0.00  0.00    +0.000 C 
ENDBRANCH  31  33
ENDBRANCH  30  31
ENDBRANCH  29  30
ENDBRANCH  28  29
ENDBRANCH  22  28
ENDBRANCH   1  25
TORSDOF 11
ENDMDL
MODEL 5
REMARK VINA RESULT:      -7.5      1.698      2.370
REMARK  Name = 
REMARK  15 active torsions:
REMARK  status: ('A' for Active; 'I' for Inactive)
REMARK    1  A    between atoms: C_1  and  N_2
REMARK    2  A    between atoms: N_2  and  C_3
REMARK    3  A    between atoms: N_2  and  C_4
REMARK    4  A    between atoms: C_4  and  C_5
REMARK    5  A    between atoms: C_5  and  C_6
REMARK    6  A    between atoms: C_6  and  O_7
REMARK    7  A    between atoms: O_7  and  C_8
REMARK    8  A    between atoms: C_11  and  C_12
REMARK    9  A    between atoms: C_16  and  C_17
REMARK   10  A    between atoms: N_25  and  C_26
REMARK   11  A    between atoms: C_26  and  C_27
REMARK   12  A    between atoms: C_27  and  C_28
REMARK   13  A    between atoms: C_28  and  N_29
REMARK   14  A    between atoms: N_29  and  C_30
REMARK   15  A    between atoms: N_29  and  C_31
REMARK                            x       y       z     vdW  Elec       q    Type
REMARK                         _______ _______ _______ _____ _____    ______ ____
ROOT
ATOM      1  C   UNL     1       0.794   9.871  19.888  0.00  0.00    +0.000 A 
ATOM      2  C   UNL     1       1.160  10.422  18.662  0.00  0.00    +0.000 A 
ATOM      3  N   UNL     1       1.949   9.813  17.742  0.00  0.00    +0.000 NA
ATOM      4  C   UNL     1       2.383   8.564  18.040  0.00  0.00    +0.000 A 
ATOM      5  C   UNL     1       2.051   7.881  19.202  0.00  0.00    +0.000 A 
ATOM      6  C   UNL     1       1.285   8.581  20.135  0.00  0.00    +0.000 A 
ENDROOT
BRANCH   5   7
ATOM      7  C   UNL     1       2.449   6.507  19.524  0.00  0.00    +0.000 A 
ATOM      8  C   UNL     1       1.788   5.646  20.382  0.00  0.00    +0.000 A 
ATOM      9  C   UNL     1       2.477   4.422  20.427  0.00  0.00    +0.000 A 
ATOM     10  C   UNL     1       2.243   3.234  21.142  0.00  0.00    +0.000 A 
ATOM     11  C   UNL     1       3.194   2.223  21.107  0.00  0.00    +0.000 A 
ATOM     12  C   UNL     1       4.367   2.397  20.379  0.00  0.00    +0.000 A 
ATOM     13  C   UNL     1       4.589   3.552  19.605  0.00  0.00    +0.000 A 
ATOM     14  C   UNL     1       3.605   4.556  19.612  0.00  0.00    +0.000 A 
ATOM     15  N   UNL     1       3.470   5.761  18.928  0.00  0.00    +0.000 N 
BRANCH  15  16
ATOM     16  C   UNL     1       4.240   6.234  17.788  0.00  0.00    +0.000 C 
BRANCH  16  17
ATOM     17  C   UNL     1       4.581   5.304  16.618  0.00  0.00    +0.000 C 
BRANCH  17  18
ATOM     18  C   UNL     1       5.389   5.973  15.497  0.00  0.00    +0.000 C 
BRANCH  18  19
ATOM     19  N   UNL     1       6.695   5.321  15.261  0.00  0.00    +0.000 NA
ATOM     20  C   UNL     1       7.171   4.564  16.420  0.00  0.00    +0.000 C 
ATOM     21  C   UNL     1       6.608   4.426  14.100  0.00  0.00    +0.000 C 
ENDBRANCH  18  19
ENDBRANCH  17  18
ENDBRANCH  16  17
ENDBRANCH  15  16
ENDBRANCH   5   7
BRANCH   1  25
ATOM     22  C   UNL     1      -1.743  11.921  22.701  0.00  0.00    +0.000 A 
ATOM     23  C   UNL     1      -1.611  12.370  21.391  0.00  0.00    +0.000 A 
ATOM     24  C   UNL     1      -0.786  11.698  20.496  0.00  0.00    +0.000 A 
ATOM     25  C   UNL     1      -0.084  10.538  20.863  0.00  0.00    +0.000 A 
ATOM     26  C   UNL     1      -0.261  10.071  22.176  0.00  0.00    +0.000 A 
ATOM     27  C   UNL     1      -1.073  10.763  23.087  0.00  0.00    +0.000 A 
BRANCH  22  28
ATOM     28  O   UNL     1      -2.483  12.551  23.670  0.00  0.00    +0.000 OA
BRANCH  28  29
ATOM     29  C   UNL     1      -3.846  12.781  23.302  0.00  0.00    +0.000 C 
BRANCH  29  30
ATOM     30  C   UNL     1      -4.346  14.082  23.905  0.00  0.00    +0.000 C 
BRANCH  30  31
ATOM     31  C   UNL     1      -3.286  14.699  24.829  0.00  0.00    +0.000 C 
BRANCH  31  33
ATOM     32  C   UNL     1      -2.448  16.887  24.152  0.00  0.00    +0.000 C 
ATOM     33  N   UNL     1      -3.404  16.161  24.990  0.00  0.00    +0.000 NA
ATOM     34  C   UNL     1      -4.769  16.598  24.685  0.00  0.00    +0.000 C 
ENDBRANCH  31  33
ENDBRANCH  30  31
ENDBRANCH  29  30
ENDBRANCH  28  29
ENDBRANCH  22  28
ENDBRANCH   1  25
TORSDOF 11
ENDMDL
MODEL 6
REMARK VINA RESULT:      -7.5      1.293      1.855
REMARK  Name = 
REMARK  15 active torsions:
REMARK  status: ('A' for Active; 'I' for Inactive)
REMARK    1  A    between atoms: C_1  and  N_2
REMARK    2  A    between atoms: N_2  and  C_3
REMARK    3  A    between atoms: N_2  and  C_4
REMARK    4  A    between atoms: C_4  and  C_5
REMARK    5  A    between atoms: C_5  and  C_6
REMARK    6  A    between atoms: C_6  and  O_7
REMARK    7  A    between atoms: O_7  and  C_8
REMARK    8  A    between atoms: C_11  and  C_12
REMARK    9  A    between atoms: C_16  and  C_17
REMARK   10  A    between atoms: N_25  and  C_26
REMARK   11  A    between atoms: C_26  and  C_27
REMARK   12  A    between atoms: C_27  and  C_28
REMARK   13  A    between atoms: C_28  and  N_29
REMARK   14  A    between atoms: N_29  and  C_30
REMARK   15  A    between atoms: N_29  and  C_31
REMARK                            x       y       z     vdW  Elec       q    Type
REMARK                         _______ _______ _______ _____ _____    ______ ____
ROOT
ATOM      1  C   UNL     1       0.640  10.090  19.883  0.00  0.00    +0.000 A 
ATOM      2  C   UNL     1       1.123  10.670  18.712  0.00  0.00    +0.000 A 
ATOM      3  N   UNL     1       1.989  10.077  17.853  0.00  0.00    +0.000 NA
ATOM      4  C   UNL     1       2.382   8.816  18.154  0.00  0.00    +0.000 A 
ATOM      5  C   UNL     1       1.938   8.105  19.261  0.00  0.00    +0.000 A 
ATOM      6  C   UNL     1       1.094   8.789  20.138  0.00  0.00    +0.000 A 
ENDROOT
BRANCH   5   7
ATOM      7  C   UNL     1       2.293   6.719  19.580  0.00  0.00    +0.000 A 
ATOM      8  C   UNL     1       1.730   5.941  20.577  0.00  0.00    +0.000 A 
ATOM      9  C   UNL     1       2.334   4.673  20.567  0.00  0.00    +0.000 A 
ATOM     10  C   UNL     1       2.146   3.532  21.368  0.00  0.00    +0.000 A 
ATOM     11  C   UNL     1       3.008   2.453  21.226  0.00  0.00    +0.000 A 
ATOM     12  C   UNL     1       4.051   2.514  20.308  0.00  0.00    +0.000 A 
ATOM     13  C   UNL     1       4.216   3.620  19.451  0.00  0.00    +0.000 A 
ATOM     14  C   UNL     1       3.315   4.693  19.571  0.00  0.00    +0.000 A 
ATOM     15  N   UNL     1       3.147   5.878  18.861  0.00  0.00    +0.000 N 
BRANCH  15  16
ATOM     16  C   UNL     1       3.745   6.251  17.588  0.00  0.00    +0.000 C 
BRANCH  16  17
ATOM     17  C   UNL     1       5.214   6.676  17.495  0.00  0.00    +0.000 C 
BRANCH  17  18
ATOM     18  C   UNL     1       6.172   5.545  17.096  0.00  0.00    +0.000 C 
BRANCH  18  19
ATOM     19  N   UNL     1       5.857   4.962  15.774  0.00  0.00    +0.000 NA
ATOM     20  C   UNL     1       6.992   4.998  14.850  0.00  0.00    +0.000 C 
ATOM     21  C   UNL     1       5.404   3.574  15.932  0.00  0.00    +0.000 C 
ENDBRANCH  18  19
ENDBRANCH  17  18
ENDBRANCH  16  17
ENDBRANCH  15  16
ENDBRANCH   5   7
BRANCH   1  25
ATOM     22  C   UNL     1      -2.148  12.089  22.489  0.00  0.00    +0.000 A 
ATOM     23  C   UNL     1      -2.080  12.399  21.134  0.00  0.00    +0.000 A 
ATOM     24  C   UNL     1      -1.172  11.745  20.307  0.00  0.00    +0.000 A 
ATOM     25  C   UNL     1      -0.319  10.740  20.792  0.00  0.00    +0.000 A 
ATOM     26  C   UNL     1      -0.430  10.406  22.151  0.00  0.00    +0.000 A 
ATOM     27  C   UNL     1      -1.327  11.083  22.991  0.00  0.00    +0.000 A 
BRANCH  22  28
ATOM     28  O   UNL     1      -2.965  12.720  23.392  0.00  0.00    +0.000 OA
BRANCH  28  29
ATOM     29  C   UNL     1      -3.759  13.766  22.826  0.00  0.00    +0.000 C 
BRANCH  29  30
ATOM     30  C   UNL     1      -5.214  13.339  22.735  0.00  0.00    +0.000 C 
BRANCH  30  31
ATOM     31  C   UNL     1      -5.681  12.706  24.054  0.00  0.00    +0.000 C 
BRANCH  31  33
ATOM     32  C   UNL     1      -7.709  14.054  24.204  0.00  0.00    +0.000 C 
ATOM     33  N   UNL     1      -7.145  12.703  24.235  0.00  0.00    +0.000 NA
ATOM     34  C   UNL     1      -7.782  11.871  23.210  0.00  0.00    +0.000 C 
ENDBRANCH  31  33
ENDBRANCH  30  31
ENDBRANCH  29  30
ENDBRANCH  28  29
ENDBRANCH  22  28
ENDBRANCH   1  25
TORSDOF 11
ENDMDL
MODEL 7
REMARK VINA RESULT:      -7.4      1.057      1.365
REMARK  Name = 
REMARK  15 active torsions:
REMARK  status: ('A' for Active; 'I' for Inactive)
REMARK    1  A    between atoms: C_1  and  N_2
REMARK    2  A    between atoms: N_2  and  C_3
REMARK    3  A    between atoms: N_2  and  C_4
REMARK    4  A    between atoms: C_4  and  C_5
REMARK    5  A    between atoms: C_5  and  C_6
REMARK    6  A    between atoms: C_6  and  O_7
REMARK    7  A    between atoms: O_7  and  C_8
REMARK    8  A    between atoms: C_11  and  C_12
REMARK    9  A    between atoms: C_16  and  C_17
REMARK   10  A    between atoms: N_25  and  C_26
REMARK   11  A    between atoms: C_26  and  C_27
REMARK   12  A    between atoms: C_27  and  C_28
REMARK   13  A    between atoms: C_28  and  N_29
REMARK   14  A    between atoms: N_29  and  C_30
REMARK   15  A    between atoms: N_29  and  C_31
REMARK                            x       y       z     vdW  Elec       q    Type
REMARK                         _______ _______ _______ _____ _____    ______ ____
ROOT
ATOM      1  C   UNL     1       0.786  10.009  19.872  0.00  0.00    +0.000 A 
ATOM      2  C   UNL     1       1.226  10.550  18.665  0.00  0.00    +0.000 A 
ATOM      3  N   UNL     1       2.044   9.920  17.786  0.00  0.00    +0.000 NA
ATOM      4  C   UNL     1       2.431   8.661  18.104  0.00  0.00    +0.000 A 
ATOM      5  C   UNL     1       2.026   7.988  19.248  0.00  0.00    +0.000 A 
ATOM      6  C   UNL     1       1.232   8.708  20.142  0.00  0.00    +0.000 A 
ENDROOT
BRANCH   5   7
ATOM      7  C   UNL     1       2.373   6.605  19.589  0.00  0.00    +0.000 A 
ATOM      8  C   UNL     1       1.705   5.795  20.492  0.00  0.00    +0.000 A 
ATOM      9  C   UNL     1       2.339   4.542  20.541  0.00  0.00    +0.000 A 
ATOM     10  C   UNL     1       2.079   3.382  21.293  0.00  0.00    +0.000 A 
ATOM     11  C   UNL     1       2.981   2.328  21.249  0.00  0.00    +0.000 A 
ATOM     12  C   UNL     1       4.132   2.431  20.475  0.00  0.00    +0.000 A 
ATOM     13  C   UNL     1       4.378   3.557  19.665  0.00  0.00    +0.000 A 
ATOM     14  C   UNL     1       3.441   4.605  19.683  0.00  0.00    +0.000 A 
ATOM     15  N   UNL     1       3.335   5.798  18.975  0.00  0.00    +0.000 N 
BRANCH  15  16
ATOM     16  C   UNL     1       4.083   6.210  17.796  0.00  0.00    +0.000 C 
BRANCH  16  17
ATOM     17  C   UNL     1       4.569   5.184  16.766  0.00  0.00    +0.000 C 
BRANCH  17  18
ATOM     18  C   UNL     1       5.276   5.799  15.551  0.00  0.00    +0.000 C 
BRANCH  18  19
ATOM     19  N   UNL     1       6.725   5.505  15.518  0.00  0.00    +0.000 NA
ATOM     20  C   UNL     1       7.131   4.530  16.532  0.00  0.00    +0.000 C 
ATOM     21  C   UNL     1       7.108   5.010  14.190  0.00  0.00    +0.000 C 
ENDBRANCH  18  19
ENDBRANCH  17  18
ENDBRANCH  16  17
ENDBRANCH  15  16
ENDBRANCH   5   7
BRANCH   1  25
ATOM     22  C   UNL     1      -1.895  11.929  22.643  0.00  0.00    +0.000 A 
ATOM     23  C   UNL     1      -1.062  10.892  23.049  0.00  0.00    +0.000 A 
ATOM     24  C   UNL     1      -0.204  10.281  22.141  0.00  0.00    +0.000 A 
ATOM     25  C   UNL     1      -0.122  10.699  20.803  0.00  0.00    +0.000 A 
ATOM     26  C   UNL     1      -0.936  11.777  20.418  0.00  0.00    +0.000 A 
ATOM     27  C   UNL     1      -1.820  12.376  21.326  0.00  0.00    +0.000 A 
BRANCH  22  28
ATOM     28  O   UNL     1      -2.815  12.551  23.449  0.00  0.00    +0.000 OA
BRANCH  28  29
ATOM     29  C   UNL     1      -3.667  13.469  22.757  0.00  0.00    +0.000 C 
BRANCH  29  30
ATOM     30  C   UNL     1      -5.073  12.905  22.642  0.00  0.00    +0.000 C 
BRANCH  30  31
ATOM     31  C   UNL     1      -5.436  12.635  21.175  0.00  0.00    +0.000 C 
BRANCH  31  33
ATOM     32  C   UNL     1      -7.454  12.623  19.806  0.00  0.00    +0.000 C 
ATOM     33  N   UNL     1      -6.592  13.411  20.689  0.00  0.00    +0.000 NA
ATOM     34  C   UNL     1      -7.371  13.926  21.818  0.00  0.00    +0.000 C 
ENDBRANCH  31  33
ENDBRANCH  30  31
ENDBRANCH  29  30
ENDBRANCH  28  29
ENDBRANCH  22  28
ENDBRANCH   1  25
TORSDOF 11
ENDMDL
MODEL 8
REMARK VINA RESULT:      -7.4      2.664     10.073
REMARK  Name = 
REMARK  15 active torsions:
REMARK  status: ('A' for Active; 'I' for Inactive)
REMARK    1  A    between atoms: C_1  and  N_2
REMARK    2  A    between atoms: N_2  and  C_3
REMARK    3  A    between atoms: N_2  and  C_4
REMARK    4  A    between atoms: C_4  and  C_5
REMARK    5  A    between atoms: C_5  and  C_6
REMARK    6  A    between atoms: C_6  and  O_7
REMARK    7  A    between atoms: O_7  and  C_8
REMARK    8  A    between atoms: C_11  and  C_12
REMARK    9  A    between atoms: C_16  and  C_17
REMARK   10  A    between atoms: N_25  and  C_26
REMARK   11  A    between atoms: C_26  and  C_27
REMARK   12  A    between atoms: C_27  and  C_28
REMARK   13  A    between atoms: C_28  and  N_29
REMARK   14  A    between atoms: N_29  and  C_30
REMARK   15  A    between atoms: N_29  and  C_31
REMARK                            x       y       z     vdW  Elec       q    Type
REMARK                         _______ _______ _______ _____ _____    ______ ____
ROOT
ATOM      1  C   UNL     1       0.262  11.207  19.347  0.00  0.00    +0.000 A 
ATOM      2  C   UNL     1       0.773  12.377  18.790  0.00  0.00    +0.000 A 
ATOM      3  N   UNL     1       0.180  13.595  18.864  0.00  0.00    +0.000 NA
ATOM      4  C   UNL     1      -0.982  13.668  19.558  0.00  0.00    +0.000 A 
ATOM      5  C   UNL     1      -1.573  12.590  20.203  0.00  0.00    +0.000 A 
ATOM      6  C   UNL     1      -0.946  11.353  20.042  0.00  0.00    +0.000 A 
ENDROOT
BRANCH   5   7
ATOM      7  C   UNL     1      -2.792  12.649  21.015  0.00  0.00    +0.000 A 
ATOM      8  C   UNL     1      -2.849  12.733  22.396  0.00  0.00    +0.000 A 
ATOM      9  C   UNL     1      -4.194  12.769  22.799  0.00  0.00    +0.000 A 
ATOM     10  C   UNL     1      -4.797  12.835  24.068  0.00  0.00    +0.000 A 
ATOM     11  C   UNL     1      -6.175  12.699  24.173  0.00  0.00    +0.000 A 
ATOM     12  C   UNL     1      -6.940  12.488  23.031  0.00  0.00    +0.000 A 
ATOM     13  C   UNL     1      -6.363  12.484  21.746  0.00  0.00    +0.000 A 
ATOM     14  C   UNL     1      -4.972  12.663  21.642  0.00  0.00    +0.000 A 
ATOM     15  N   UNL     1      -4.106  12.780  20.559  0.00  0.00    +0.000 N 
BRANCH  15  16
ATOM     16  C   UNL     1      -4.446  12.986  19.160  0.00  0.00    +0.000 C 
BRANCH  16  17
ATOM     17  C   UNL     1      -4.973  11.836  18.293  0.00  0.00    +0.000 C 
BRANCH  17  18
ATOM     18  C   UNL     1      -3.971  10.690  18.091  0.00  0.00    +0.000 C 
BRANCH  18  19
ATOM     19  N   UNL     1      -3.043  10.930  16.964  0.00  0.00    +0.000 NA
ATOM     20  C   UNL     1      -2.021   9.890  16.838  0.00  0.00    +0.000 C 
ATOM     21  C   UNL     1      -3.795  11.025  15.706  0.00  0.00    +0.000 C 
ENDBRANCH  18  19
ENDBRANCH  17  18
ENDBRANCH  16  17
ENDBRANCH  15  16
ENDBRANCH   5   7
BRANCH   1  25
ATOM     22  C   UNL     1       2.269   7.397  19.245  0.00  0.00    +0.000 A 
ATOM     23  C   UNL     1       1.676   7.867  20.413  0.00  0.00    +0.000 A 
ATOM     24  C   UNL     1       1.034   9.100  20.429  0.00  0.00    +0.000 A 
ATOM     25  C   UNL     1       0.933   9.899  19.277  0.00  0.00    +0.000 A 
ATOM     26  C   UNL     1       1.497   9.392  18.095  0.00  0.00    +0.000 A 
ATOM     27  C   UNL     1       2.167   8.160  18.084  0.00  0.00    +0.000 A 
BRANCH  22  28
ATOM     28  O   UNL     1       2.975   6.225  19.147  0.00  0.00    +0.000 OA
BRANCH  28  29
ATOM     29  C   UNL     1       2.536   5.369  18.088  0.00  0.00    +0.000 C 
BRANCH  29  30
ATOM     30  C   UNL     1       3.625   4.376  17.722  0.00  0.00    +0.000 C 
BRANCH  30  31
ATOM     31  C   UNL     1       4.418   3.951  18.967  0.00  0.00    +0.000 C 
BRANCH  31  33
ATOM     32  C   UNL     1       3.092   2.732  20.611  0.00  0.00    +0.000 C 
ATOM     33  N   UNL     1       4.040   2.629  19.500  0.00  0.00    +0.000 NA
ATOM     34  C   UNL     1       3.475   1.794  18.437  0.00  0.00    +0.000 C 
ENDBRANCH  31  33
ENDBRANCH  30  31
ENDBRANCH  29  30
ENDBRANCH  28  29
ENDBRANCH  22  28
ENDBRANCH   1  25
TORSDOF 11
ENDMDL
MODEL 9
REMARK VINA RESULT:      -7.4      3.519     10.408
REMARK  Name = 
REMARK  15 active torsions:
REMARK  status: ('A' for Active; 'I' for Inactive)
REMARK    1  A    between atoms: C_1  and  N_2
REMARK    2  A    between atoms: N_2  and  C_3
REMARK    3  A    between atoms: N_2  and  C_4
REMARK    4  A    between atoms: C_4  and  C_5
REMARK    5  A    between atoms: C_5  and  C_6
REMARK    6  A    between atoms: C_6  and  O_7
REMARK    7  A    between atoms: O_7  and  C_8
REMARK    8  A    between atoms: C_11  and  C_12
REMARK    9  A    between atoms: C_16  and  C_17
REMARK   10  A    between atoms: N_25  and  C_26
REMARK   11  A    between atoms: C_26  and  C_27
REMARK   12  A    between atoms: C_27  and  C_28
REMARK   13  A    between atoms: C_28  and  N_29
REMARK   14  A    between atoms: N_29  and  C_30
REMARK   15  A    between atoms: N_29  and  C_31
REMARK                            x       y       z     vdW  Elec       q    Type
REMARK                         _______ _______ _______ _____ _____    ______ ____
ROOT
ATOM      1  C   UNL     1       1.190   8.510  20.683  0.00  0.00    +0.000 A 
ATOM      2  C   UNL     1       0.345   8.339  21.777  0.00  0.00    +0.000 A 
ATOM      3  N   UNL     1      -0.338   9.336  22.393  0.00  0.00    +0.000 NA
ATOM      4  C   UNL     1      -0.199  10.581  21.877  0.00  0.00    +0.000 A 
ATOM      5  C   UNL     1       0.570  10.881  20.762  0.00  0.00    +0.000 A 
ATOM      6  C   UNL     1       1.293   9.824  20.207  0.00  0.00    +0.000 A 
ENDROOT
BRANCH   5   7
ATOM      7  C   UNL     1       0.688  12.204  20.141  0.00  0.00    +0.000 A 
ATOM      8  C   UNL     1       1.869  12.861  19.839  0.00  0.00    +0.000 A 
ATOM      9  C   UNL     1       1.567  14.101  19.253  0.00  0.00    +0.000 A 
ATOM     10  C   UNL     1       2.384  15.146  18.784  0.00  0.00    +0.000 A 
ATOM     11  C   UNL     1       1.797  16.341  18.389  0.00  0.00    +0.000 A 
ATOM     12  C   UNL     1       0.418  16.498  18.472  0.00  0.00    +0.000 A 
ATOM     13  C   UNL     1      -0.421  15.442  18.877  0.00  0.00    +0.000 A 
ATOM     14  C   UNL     1       0.174  14.221  19.237  0.00  0.00    +0.000 A 
ATOM     15  N   UNL     1      -0.342  12.983  19.607  0.00  0.00    +0.000 N 
BRANCH  15  16
ATOM     16  C   UNL     1      -1.717  12.518  19.501  0.00  0.00    +0.000 C 
BRANCH  16  17
ATOM     17  C   UNL     1      -2.073  11.270  18.686  0.00  0.00    +0.000 C 
BRANCH  17  18
ATOM     18  C   UNL     1      -2.187  11.516  17.175  0.00  0.00    +0.000 C 
BRANCH  18  19
ATOM     19  N   UNL     1      -3.309  10.778  16.555  0.00  0.00    +0.000 NA
ATOM     20  C   UNL     1      -4.592  11.467  16.699  0.00  0.00    +0.000 C 
ATOM     21  C   UNL     1      -3.036  10.555  15.130  0.00  0.00    +0.000 C 
ENDBRANCH  18  19
ENDBRANCH  17  18
ENDBRANCH  16  17
ENDBRANCH  15  16
ENDBRANCH   5   7
BRANCH   1  25
ATOM     22  C   UNL     1       3.241   5.334  18.619  0.00  0.00    +0.000 A 
ATOM     23  C   UNL     1       3.217   6.627  18.107  0.00  0.00    +0.000 A 
ATOM     24  C   UNL     1       2.549   7.640  18.785  0.00  0.00    +0.000 A 
ATOM     25  C   UNL     1       1.903   7.411  20.011  0.00  0.00    +0.000 A 
ATOM     26  C   UNL     1       1.974   6.112  20.538  0.00  0.00    +0.000 A 
ATOM     27  C   UNL     1       2.626   5.083  19.843  0.00  0.00    +0.000 A 
BRANCH  22  28
ATOM     28  O   UNL     1       3.822   4.259  17.995  0.00  0.00    +0.000 OA
BRANCH  28  29
ATOM     29  C   UNL     1       4.110   4.477  16.611  0.00  0.00    +0.000 C 
BRANCH  29  30
ATOM     30  C   UNL     1       5.509   3.988  16.277  0.00  0.00    +0.000 C 
BRANCH  30  31
ATOM     31  C   UNL     1       6.380   5.138  15.753  0.00  0.00    +0.000 C 
BRANCH  31  33
ATOM     32  C   UNL     1       6.911   6.909  17.344  0.00  0.00    +0.000 C 
ATOM     33  N   UNL     1       7.353   5.653  16.734  0.00  0.00    +0.000 NA
ATOM     34  C   UNL     1       7.603   4.653  17.776  0.00  0.00    +0.000 C 
ENDBRANCH  31  33
ENDBRANCH  30  31
ENDBRANCH  29  30
ENDBRANCH  28  29
ENDBRANCH  22  28
ENDBRANCH   1  25
TORSDOF 11
ENDMDL
