MODEL 1
REMARK VINA RESULT:      -7.4      0.000      0.000
REMARK  Name = 
REMARK  6 active torsions:
REMARK  status: ('A' for Active; 'I' for Inactive)
REMARK    1  A    between atoms: C_1  and  O_2
REMARK    2  A    between atoms: O_2  and  C_3
REMARK    3  A    between atoms: C_6  and  N_7
REMARK    4  A    between atoms: C_8  and  C_10
REMARK    5  A    between atoms: C_11  and  C_12
REMARK    6  A    between atoms: C_17  and  C_18
REMARK                            x       y       z     vdW  Elec       q    Type
REMARK                         _______ _______ _______ _____ _____    ______ ____
ROOT
ATOM      1  C   UNL     1       5.706   4.714  17.370  0.00  0.00    +0.000 C 
ATOM      2  C   UNL     1       7.042   4.561  17.520  0.00  0.00    +0.000 C 
ATOM      3  C   UNL     1       7.741   5.335  18.674  0.00  0.00    +0.000 C 
ATOM      4  N   UNL     1       7.728   4.803  16.331  0.00  0.00    +0.000 N 
ATOM      5  C   UNL     1       7.157   5.468  15.248  0.00  0.00    +0.000 C 
ATOM      6  O   UNL     1       7.638   5.409  14.126  0.00  0.00    +0.000 OA
ATOM      7  N   UNL     1       5.972   6.166  15.540  0.00  0.00    +0.000 N 
ATOM      8  C   UNL     1       5.548   6.177  16.941  0.00  0.00    +0.000 C 
ATOM      9  H   UNL     1       8.677   4.429  16.230  0.00  0.00    +0.000 HD
ATOM     10  H   UNL     1       5.315   6.244  14.788  0.00  0.00    +0.000 HD
ENDROOT
BRANCH   8  11
ATOM     11  C   UNL     1       4.315   6.777  17.512  0.00  0.00    +0.000 A 
ATOM     12  C   UNL     1       3.286   7.629  17.185  0.00  0.00    +0.000 A 
ATOM     13  C   UNL     1       2.390   7.626  18.297  0.00  0.00    +0.000 A 
ATOM     14  C   UNL     1       2.924   6.783  19.236  0.00  0.00    +0.000 A 
ATOM     15  O   UNL     1       4.106   6.313  18.798  0.00  0.00    +0.000 OA
ENDBRANCH   8  11
BRANCH   1  17
ATOM     16  N   UNL     1       3.576   3.287  17.035  0.00  0.00    +0.000 N 
ATOM     17  C   UNL     1       4.662   3.957  16.532  0.00  0.00    +0.000 C 
ATOM     18  O   UNL     1       4.813   3.801  15.313  0.00  0.00    +0.000 OA
ATOM     19  H   UNL     1       3.334   2.523  16.407  0.00  0.00    +0.000 HD
BRANCH  16  23
ATOM     20  C   UNL     1       2.495   2.926  21.014  0.00  0.00    +0.000 A 
ATOM     21  C   UNL     1       1.571   3.370  20.061  0.00  0.00    +0.000 A 
ATOM     22  C   UNL     1       1.940   3.496  18.731  0.00  0.00    +0.000 A 
ATOM     23  C   UNL     1       3.234   3.157  18.361  0.00  0.00    +0.000 A 
ATOM     24  C   UNL     1       4.131   2.611  19.266  0.00  0.00    +0.000 A 
ATOM     25  C   UNL     1       3.773   2.540  20.613  0.00  0.00    +0.000 A 
BRANCH  20  27
ATOM     26  C   UNL     1       0.857   2.157  22.535  0.00  0.00    +0.000 C 
ATOM     27  O   UNL     1       2.019   2.935  22.294  0.00  0.00    +0.000 OA
ENDBRANCH  20  27
ENDBRANCH  16  23
ENDBRANCH   1  17
TORSDOF 4
ENDMDL
MODEL 2
REMARK VINA RESULT:      -7.3      0.161      1.001
REMARK  Name = 
REMARK  6 active torsions:
REMARK  status: ('A' for Active; 'I' for Inactive)
REMARK    1  A    between atoms: C_1  and  O_2
REMARK    2  A    between atoms: O_2  and  C_3
REMARK    3  A    between atoms: C_6  and  N_7
REMARK    4  A    between atoms: C_8  and  C_10
REMARK    5  A    between atoms: C_11  and  C_12
REMARK    6  A    between atoms: C_17  and  C_18
REMARK                            x       y       z     vdW  Elec       q    Type
REMARK                         _______ _______ _______ _____ _____    ______ ____
ROOT
ATOM      1  C   UNL     1       5.645   4.753  17.395  0.00  0.00    +0.000 C 
ATOM      2  C   UNL     1       6.976   4.597  17.579  0.00  0.00    +0.000 C 
ATOM      3  C   UNL     1       7.646   5.364  18.756  0.00  0.00    +0.000 C 
ATOM      4  N   UNL     1       7.694   4.845  16.411  0.00  0.00    +0.000 N 
ATOM      5  C   UNL     1       7.151   5.516  15.316  0.00  0.00    +0.000 C 
ATOM      6  O   UNL     1       7.661   5.461  14.206  0.00  0.00    +0.000 OA
ATOM      7  N   UNL     1       5.959   6.213  15.580  0.00  0.00    +0.000 N 
ATOM      8  C   UNL     1       5.500   6.218  16.970  0.00  0.00    +0.000 C 
ATOM      9  H   UNL     1       8.645   4.470  16.332  0.00  0.00    +0.000 HD
ATOM     10  H   UNL     1       5.323   6.295  14.812  0.00  0.00    +0.000 HD
ENDROOT
BRANCH   8  11
ATOM     11  C   UNL     1       4.252   6.817  17.512  0.00  0.00    +0.000 A 
ATOM     12  C   UNL     1       3.202   7.624  17.143  0.00  0.00    +0.000 A 
ATOM     13  C   UNL     1       2.308   7.658  18.257  0.00  0.00    +0.000 A 
ATOM     14  C   UNL     1       2.865   6.880  19.238  0.00  0.00    +0.000 A 
ATOM     15  O   UNL     1       4.057   6.417  18.822  0.00  0.00    +0.000 OA
ENDBRANCH   8  11
BRANCH   1  17
ATOM     16  N   UNL     1       3.491   3.380  16.993  0.00  0.00    +0.000 N 
ATOM     17  C   UNL     1       4.622   4.001  16.527  0.00  0.00    +0.000 C 
ATOM     18  O   UNL     1       4.831   3.802  15.323  0.00  0.00    +0.000 OA
ATOM     19  H   UNL     1       3.258   2.604  16.376  0.00  0.00    +0.000 HD
BRANCH  16  23
ATOM     20  C   UNL     1       2.297   3.118  20.946  0.00  0.00    +0.000 A 
ATOM     21  C   UNL     1       3.609   2.799  20.575  0.00  0.00    +0.000 A 
ATOM     22  C   UNL     1       4.000   2.882  19.248  0.00  0.00    +0.000 A 
ATOM     23  C   UNL     1       3.077   3.302  18.302  0.00  0.00    +0.000 A 
ATOM     24  C   UNL     1       1.808   3.728  18.663  0.00  0.00    +0.000 A 
ATOM     25  C   UNL     1       1.400   3.588  19.989  0.00  0.00    +0.000 A 
BRANCH  20  27
ATOM     26  C   UNL     1       0.898   2.100  22.557  0.00  0.00    +0.000 C 
ATOM     27  O   UNL     1       2.029   2.907  22.269  0.00  0.00    +0.000 OA
ENDBRANCH  20  27
ENDBRANCH  16  23
ENDBRANCH   1  17
TORSDOF 4
ENDMDL
MODEL 3
REMARK VINA RESULT:      -7.0      1.872      5.904
REMARK  Name = 
REMARK  6 active torsions:
REMARK  status: ('A' for Active; 'I' for Inactive)
REMARK    1  A    between atoms: C_1  and  O_2
REMARK    2  A    between atoms: O_2  and  C_3
REMARK    3  A    between atoms: C_6  and  N_7
REMARK    4  A    between atoms: C_8  and  C_10
REMARK    5  A    between atoms: C_11  and  C_12
REMARK    6  A    between atoms: C_17  and  C_18
REMARK                            x       y       z     vdW  Elec       q    Type
REMARK                         _______ _______ _______ _____ _____    ______ ____
ROOT
ATOM      1  C   UNL     1       3.861   3.727  18.490  0.00  0.00    +0.000 C 
ATOM      2  C   UNL     1       3.183   2.558  18.447  0.00  0.00    +0.000 C 
ATOM      3  C   UNL     1       1.942   2.467  17.513  0.00  0.00    +0.000 C 
ATOM      4  N   UNL     1       2.824   2.118  19.720  0.00  0.00    +0.000 N 
ATOM      5  C   UNL     1       2.836   2.949  20.839  0.00  0.00    +0.000 C 
ATOM      6  O   UNL     1       2.823   2.501  21.977  0.00  0.00    +0.000 OA
ATOM      7  N   UNL     1       2.910   4.324  20.556  0.00  0.00    +0.000 N 
ATOM      8  C   UNL     1       2.875   4.702  19.142  0.00  0.00    +0.000 C 
ATOM      9  H   UNL     1       2.593   1.128  19.848  0.00  0.00    +0.000 HD
ATOM     10  H   UNL     1       3.373   4.886  21.242  0.00  0.00    +0.000 HD
ENDROOT
BRANCH   8  11
ATOM     11  C   UNL     1       3.000   6.065  18.563  0.00  0.00    +0.000 A 
ATOM     12  C   UNL     1       3.617   6.742  17.538  0.00  0.00    +0.000 A 
ATOM     13  C   UNL     1       3.138   8.086  17.595  0.00  0.00    +0.000 A 
ATOM     14  C   UNL     1       2.267   8.153  18.650  0.00  0.00    +0.000 A 
ATOM     15  O   UNL     1       2.220   6.961  19.271  0.00  0.00    +0.000 OA
ENDBRANCH   8  11
BRANCH   1  17
ATOM     16  N   UNL     1       6.340   4.452  18.356  0.00  0.00    +0.000 N 
ATOM     17  C   UNL     1       5.227   4.114  19.083  0.00  0.00    +0.000 C 
ATOM     18  O   UNL     1       5.444   4.023  20.299  0.00  0.00    +0.000 OA
ATOM     19  H   UNL     1       7.173   4.205  18.887  0.00  0.00    +0.000 HD
BRANCH  16  23
ATOM     20  C   UNL     1       6.627   4.517  14.228  0.00  0.00    +0.000 A 
ATOM     21  C   UNL     1       5.863   3.538  14.875  0.00  0.00    +0.000 A 
ATOM     22  C   UNL     1       5.776   3.517  16.258  0.00  0.00    +0.000 A 
ATOM     23  C   UNL     1       6.444   4.491  16.986  0.00  0.00    +0.000 A 
ATOM     24  C   UNL     1       7.115   5.533  16.363  0.00  0.00    +0.000 A 
ATOM     25  C   UNL     1       7.247   5.517  14.974  0.00  0.00    +0.000 A 
BRANCH  20  27
ATOM     26  C   UNL     1       5.917   3.308  12.325  0.00  0.00    +0.000 C 
ATOM     27  O   UNL     1       6.692   4.363  12.873  0.00  0.00    +0.000 OA
ENDBRANCH  20  27
ENDBRANCH  16  23
ENDBRANCH   1  17
TORSDOF 4
ENDMDL
MODEL 4
REMARK VINA RESULT:      -6.7      2.736      4.916
REMARK  Name = 
REMARK  6 active torsions:
REMARK  status: ('A' for Active; 'I' for Inactive)
REMARK    1  A    between atoms: C_1  and  O_2
REMARK    2  A    between atoms: O_2  and  C_3
REMARK    3  A    between atoms: C_6  and  N_7
REMARK    4  A    between atoms: C_8  and  C_10
REMARK    5  A    between atoms: C_11  and  C_12
REMARK    6  A    between atoms: C_17  and  C_18
REMARK                            x       y       z     vdW  Elec       q    Type
REMARK                         _______ _______ _______ _____ _____    ______ ____
ROOT
ATOM      1  C   UNL     1       6.264   6.015  17.830  0.00  0.00    +0.000 C 
ATOM      2  C   UNL     1       6.930   7.045  18.399  0.00  0.00    +0.000 C 
ATOM      3  C   UNL     1       7.574   8.107  17.461  0.00  0.00    +0.000 C 
ATOM      4  N   UNL     1       7.889   6.604  19.309  0.00  0.00    +0.000 N 
ATOM      5  C   UNL     1       8.349   5.289  19.347  0.00  0.00    +0.000 C 
ATOM      6  O   UNL     1       8.943   4.839  20.317  0.00  0.00    +0.000 OA
ATOM      7  N   UNL     1       8.038   4.519  18.212  0.00  0.00    +0.000 N 
ATOM      8  C   UNL     1       7.361   5.216  17.116  0.00  0.00    +0.000 C 
ATOM      9  H   UNL     1       8.233   7.263  20.015  0.00  0.00    +0.000 HD
ATOM     10  H   UNL     1       7.918   3.539  18.370  0.00  0.00    +0.000 HD
ENDROOT
BRANCH   8  11
ATOM     11  C   UNL     1       6.865   4.636  15.842  0.00  0.00    +0.000 A 
ATOM     12  C   UNL     1       5.951   3.728  15.361  0.00  0.00    +0.000 A 
ATOM     13  C   UNL     1       6.013   3.808  13.936  0.00  0.00    +0.000 A 
ATOM     14  C   UNL     1       6.960   4.750  13.632  0.00  0.00    +0.000 A 
ATOM     15  O   UNL     1       7.516   5.212  14.766  0.00  0.00    +0.000 OA
ENDBRANCH   8  11
BRANCH   1  17
ATOM     16  N   UNL     1       4.017   5.144  18.767  0.00  0.00    +0.000 N 
ATOM     17  C   UNL     1       5.325   4.941  18.405  0.00  0.00    +0.000 C 
ATOM     18  O   UNL     1       5.747   3.815  18.700  0.00  0.00    +0.000 OA
ATOM     19  H   UNL     1       3.772   4.493  19.510  0.00  0.00    +0.000 HD
BRANCH  16  23
ATOM     20  C   UNL     1       1.892   8.692  18.609  0.00  0.00    +0.000 A 
ATOM     21  C   UNL     1       1.876   7.901  19.765  0.00  0.00    +0.000 A 
ATOM     22  C   UNL     1       2.584   6.711  19.809  0.00  0.00    +0.000 A 
ATOM     23  C   UNL     1       3.320   6.327  18.697  0.00  0.00    +0.000 A 
ATOM     24  C   UNL     1       3.439   7.147  17.585  0.00  0.00    +0.000 A 
ATOM     25  C   UNL     1       2.680   8.315  17.523  0.00  0.00    +0.000 A 
BRANCH  20  27
ATOM     26  C   UNL     1       0.606  10.136  19.969  0.00  0.00    +0.000 C 
ATOM     27  O   UNL     1       1.082   9.789  18.677  0.00  0.00    +0.000 OA
ENDBRANCH  20  27
ENDBRANCH  16  23
ENDBRANCH   1  17
TORSDOF 4
ENDMDL
MODEL 5
REMARK VINA RESULT:      -6.7      1.890      5.973
REMARK  Name = 
REMARK  6 active torsions:
REMARK  status: ('A' for Active; 'I' for Inactive)
REMARK    1  A    between atoms: C_1  and  O_2
REMARK    2  A    between atoms: O_2  and  C_3
REMARK    3  A    between atoms: C_6  and  N_7
REMARK    4  A    between atoms: C_8  and  C_10
REMARK    5  A    between atoms: C_11  and  C_12
REMARK    6  A    between atoms: C_17  and  C_18
REMARK                            x       y       z     vdW  Elec       q    Type
REMARK                         _______ _______ _______ _____ _____    ______ ____
ROOT
ATOM      1  C   UNL     1       3.604   3.808  18.713  0.00  0.00    +0.000 C 
ATOM      2  C   UNL     1       2.832   2.698  18.750  0.00  0.00    +0.000 C 
ATOM      3  C   UNL     1       1.579   2.648  17.829  0.00  0.00    +0.000 C 
ATOM      4  N   UNL     1       2.451   2.374  20.051  0.00  0.00    +0.000 N 
ATOM      5  C   UNL     1       2.541   3.272  21.112  0.00  0.00    +0.000 C 
ATOM      6  O   UNL     1       2.502   2.902  22.278  0.00  0.00    +0.000 OA
ATOM      7  N   UNL     1       2.724   4.615  20.739  0.00  0.00    +0.000 N 
ATOM      8  C   UNL     1       2.705   4.901  19.303  0.00  0.00    +0.000 C 
ATOM      9  H   UNL     1       2.141   1.416  20.245  0.00  0.00    +0.000 HD
ATOM     10  H   UNL     1       3.237   5.181  21.385  0.00  0.00    +0.000 HD
ENDROOT
BRANCH   8  11
ATOM     11  C   UNL     1       2.936   6.209  18.636  0.00  0.00    +0.000 A 
ATOM     12  C   UNL     1       3.653   6.777  17.610  0.00  0.00    +0.000 A 
ATOM     13  C   UNL     1       3.237   8.141  17.532  0.00  0.00    +0.000 A 
ATOM     14  C   UNL     1       2.300   8.327  18.514  0.00  0.00    +0.000 A 
ATOM     15  O   UNL     1       2.154   7.189  19.217  0.00  0.00    +0.000 OA
ENDBRANCH   8  11
BRANCH   1  17
ATOM     16  N   UNL     1       6.125   4.348  18.520  0.00  0.00    +0.000 N 
ATOM     17  C   UNL     1       5.002   4.121  19.274  0.00  0.00    +0.000 C 
ATOM     18  O   UNL     1       5.229   4.064  20.489  0.00  0.00    +0.000 OA
ATOM     19  H   UNL     1       6.946   4.064  19.051  0.00  0.00    +0.000 HD
BRANCH  16  23
ATOM     20  C   UNL     1       6.429   4.319  14.393  0.00  0.00    +0.000 A 
ATOM     21  C   UNL     1       7.379   4.988  15.174  0.00  0.00    +0.000 A 
ATOM     22  C   UNL     1       7.269   5.000  16.555  0.00  0.00    +0.000 A 
ATOM     23  C   UNL     1       6.212   4.324  17.148  0.00  0.00    +0.000 A 
ATOM     24  C   UNL     1       5.324   3.564  16.402  0.00  0.00    +0.000 A 
ATOM     25  C   UNL     1       5.406   3.602  15.010  0.00  0.00    +0.000 A 
BRANCH  20  27
ATOM     26  C   UNL     1       6.204   3.374  12.238  0.00  0.00    +0.000 C 
ATOM     27  O   UNL     1       6.615   4.464  13.048  0.00  0.00    +0.000 OA
ENDBRANCH  20  27
ENDBRANCH  16  23
ENDBRANCH   1  17
TORSDOF 4
ENDMDL
MODEL 6
REMARK VINA RESULT:      -6.5      2.012      3.787
REMARK  Name = 
REMARK  6 active torsions:
REMARK  status: ('A' for Active; 'I' for Inactive)
REMARK    1  A    between atoms: C_1  and  O_2
REMARK    2  A    between atoms: O_2  and  C_3
REMARK    3  A    between atoms: C_6  and  N_7
REMARK    4  A    between atoms: C_8  and  C_10
REMARK    5  A    between atoms: C_11  and  C_12
REMARK    6  A    between atoms: C_17  and  C_18
REMARK                            x       y       z     vdW  Elec       q    Type
REMARK                         _______ _______ _______ _____ _____    ______ ____
ROOT
ATOM      1  C   UNL     1       5.602   5.520  16.898  0.00  0.00    +0.000 C 
ATOM      2  C   UNL     1       5.043   6.636  17.419  0.00  0.00    +0.000 C 
ATOM      3  C   UNL     1       3.975   7.383  16.570  0.00  0.00    +0.000 C 
ATOM      4  N   UNL     1       6.007   7.550  17.841  0.00  0.00    +0.000 N 
ATOM      5  C   UNL     1       7.341   7.484  17.441  0.00  0.00    +0.000 C 
ATOM      6  O   UNL     1       8.225   8.081  18.039  0.00  0.00    +0.000 OA
ATOM      7  N   UNL     1       7.588   6.648  16.338  0.00  0.00    +0.000 N 
ATOM      8  C   UNL     1       6.417   6.037  15.706  0.00  0.00    +0.000 C 
ATOM      9  H   UNL     1       5.735   8.272  18.516  0.00  0.00    +0.000 HD
ATOM     10  H   UNL     1       8.489   6.214  16.314  0.00  0.00    +0.000 HD
ENDROOT
BRANCH   8  11
ATOM     11  C   UNL     1       6.395   5.072  14.577  0.00  0.00    +0.000 A 
ATOM     12  C   UNL     1       5.660   4.022  14.078  0.00  0.00    +0.000 A 
ATOM     13  C   UNL     1       6.264   3.661  12.835  0.00  0.00    +0.000 A 
ATOM     14  C   UNL     1       7.330   4.501  12.652  0.00  0.00    +0.000 A 
ATOM     15  O   UNL     1       7.450   5.314  13.718  0.00  0.00    +0.000 OA
ENDBRANCH   8  11
BRANCH   1  17
ATOM     16  N   UNL     1       6.041   3.431  18.358  0.00  0.00    +0.000 N 
ATOM     17  C   UNL     1       6.481   4.416  17.509  0.00  0.00    +0.000 C 
ATOM     18  O   UNL     1       7.710   4.423  17.361  0.00  0.00    +0.000 OA
ATOM     19  H   UNL     1       6.807   3.150  18.967  0.00  0.00    +0.000 HD
BRANCH  16  23
ATOM     20  C   UNL     1       2.194   2.954  19.806  0.00  0.00    +0.000 A 
ATOM     21  C   UNL     1       3.065   3.882  20.388  0.00  0.00    +0.000 A 
ATOM     22  C   UNL     1       4.355   4.033  19.903  0.00  0.00    +0.000 A 
ATOM     23  C   UNL     1       4.759   3.261  18.823  0.00  0.00    +0.000 A 
ATOM     24  C   UNL     1       3.879   2.418  18.162  0.00  0.00    +0.000 A 
ATOM     25  C   UNL     1       2.601   2.228  18.688  0.00  0.00    +0.000 A 
BRANCH  20  27
ATOM     26  C   UNL     1       1.036   2.658  21.845  0.00  0.00    +0.000 C 
ATOM     27  O   UNL     1       0.989   2.851  20.440  0.00  0.00    +0.000 OA
ENDBRANCH  20  27
ENDBRANCH  16  23
ENDBRANCH   1  17
TORSDOF 4
ENDMDL
MODEL 7
REMARK VINA RESULT:      -6.5      2.080      5.954
REMARK  Name = 
REMARK  6 active torsions:
REMARK  status: ('A' for Active; 'I' for Inactive)
REMARK    1  A    between atoms: C_1  and  O_2
REMARK    2  A    between atoms: O_2  and  C_3
REMARK    3  A    between atoms: C_6  and  N_7
REMARK    4  A    between atoms: C_8  and  C_10
REMARK    5  A    between atoms: C_11  and  C_12
REMARK    6  A    between atoms: C_17  and  C_18
REMARK                            x       y       z     vdW  Elec       q    Type
REMARK                         _______ _______ _______ _____ _____    ______ ____
ROOT
ATOM      1  C   UNL     1       3.188   4.896  18.561  0.00  0.00    +0.000 C 
ATOM      2  C   UNL     1       2.546   3.707  18.513  0.00  0.00    +0.000 C 
ATOM      3  C   UNL     1       1.248   3.610  17.660  0.00  0.00    +0.000 C 
ATOM      4  N   UNL     1       2.287   3.206  19.788  0.00  0.00    +0.000 N 
ATOM      5  C   UNL     1       2.348   3.992  20.937  0.00  0.00    +0.000 C 
ATOM      6  O   UNL     1       2.425   3.499  22.054  0.00  0.00    +0.000 OA
ATOM      7  N   UNL     1       2.359   5.379  20.707  0.00  0.00    +0.000 N 
ATOM      8  C   UNL     1       2.217   5.811  19.316  0.00  0.00    +0.000 C 
ATOM      9  H   UNL     1       2.096   2.204  19.890  0.00  0.00    +0.000 HD
ATOM     10  H   UNL     1       2.849   5.929  21.385  0.00  0.00    +0.000 HD
ENDROOT
BRANCH   8  11
ATOM     11  C   UNL     1       2.260   7.199  18.787  0.00  0.00    +0.000 A 
ATOM     12  C   UNL     1       2.689   7.918  17.696  0.00  0.00    +0.000 A 
ATOM     13  C   UNL     1       2.257   9.263  17.904  0.00  0.00    +0.000 A 
ATOM     14  C   UNL     1       1.599   9.288  19.106  0.00  0.00    +0.000 A 
ATOM     15  O   UNL     1       1.645   8.068  19.669  0.00  0.00    +0.000 OA
ENDBRANCH   8  11
BRANCH   1  17
ATOM     16  N   UNL     1       5.708   5.420  18.309  0.00  0.00    +0.000 N 
ATOM     17  C   UNL     1       4.578   5.306  19.078  0.00  0.00    +0.000 C 
ATOM     18  O   UNL     1       4.792   5.446  20.289  0.00  0.00    +0.000 OA
ATOM     19  H   UNL     1       6.525   5.232  18.887  0.00  0.00    +0.000 HD
BRANCH  16  23
ATOM     20  C   UNL     1       6.045   4.640  14.259  0.00  0.00    +0.000 A 
ATOM     21  C   UNL     1       6.343   3.650  15.203  0.00  0.00    +0.000 A 
ATOM     22  C   UNL     1       6.235   3.920  16.558  0.00  0.00    +0.000 A 
ATOM     23  C   UNL     1       5.811   5.178  16.960  0.00  0.00    +0.000 A 
ATOM     24  C   UNL     1       5.404   6.136  16.043  0.00  0.00    +0.000 A 
ATOM     25  C   UNL     1       5.569   5.880  14.681  0.00  0.00    +0.000 A 
BRANCH  20  27
ATOM     26  C   UNL     1       5.482   3.198  12.473  0.00  0.00    +0.000 C 
ATOM     27  O   UNL     1       6.279   4.263  12.968  0.00  0.00    +0.000 OA
ENDBRANCH  20  27
ENDBRANCH  16  23
ENDBRANCH   1  17
TORSDOF 4
ENDMDL
MODEL 8
REMARK VINA RESULT:      -6.5      2.702      4.937
REMARK  Name = 
REMARK  6 active torsions:
REMARK  status: ('A' for Active; 'I' for Inactive)
REMARK    1  A    between atoms: C_1  and  O_2
REMARK    2  A    between atoms: O_2  and  C_3
REMARK    3  A    between atoms: C_6  and  N_7
REMARK    4  A    between atoms: C_8  and  C_10
REMARK    5  A    between atoms: C_11  and  C_12
REMARK    6  A    between atoms: C_17  and  C_18
REMARK                            x       y       z     vdW  Elec       q    Type
REMARK                         _______ _______ _______ _____ _____    ______ ____
ROOT
ATOM      1  C   UNL     1       6.201   6.006  17.908  0.00  0.00    +0.000 C 
ATOM      2  C   UNL     1       6.938   7.009  18.438  0.00  0.00    +0.000 C 
ATOM      3  C   UNL     1       7.540   8.066  17.469  0.00  0.00    +0.000 C 
ATOM      4  N   UNL     1       7.949   6.527  19.267  0.00  0.00    +0.000 N 
ATOM      5  C   UNL     1       8.372   5.199  19.253  0.00  0.00    +0.000 C 
ATOM      6  O   UNL     1       9.024   4.718  20.169  0.00  0.00    +0.000 OA
ATOM      7  N   UNL     1       7.955   4.456  18.135  0.00  0.00    +0.000 N 
ATOM      8  C   UNL     1       7.217   5.188  17.103  0.00  0.00    +0.000 C 
ATOM      9  H   UNL     1       8.364   7.164  19.954  0.00  0.00    +0.000 HD
ATOM     10  H   UNL     1       7.818   3.476  18.288  0.00  0.00    +0.000 HD
ENDROOT
BRANCH   8  11
ATOM     11  C   UNL     1       6.610   4.642  15.862  0.00  0.00    +0.000 A 
ATOM     12  C   UNL     1       5.460   4.043  15.405  0.00  0.00    +0.000 A 
ATOM     13  C   UNL     1       5.613   3.899  13.992  0.00  0.00    +0.000 A 
ATOM     14  C   UNL     1       6.843   4.410  13.671  0.00  0.00    +0.000 A 
ATOM     15  O   UNL     1       7.471   4.806  14.793  0.00  0.00    +0.000 OA
ENDBRANCH   8  11
BRANCH   1  17
ATOM     16  N   UNL     1       3.984   5.169  18.942  0.00  0.00    +0.000 N 
ATOM     17  C   UNL     1       5.277   4.950  18.538  0.00  0.00    +0.000 C 
ATOM     18  O   UNL     1       5.702   3.828  18.840  0.00  0.00    +0.000 OA
ATOM     19  H   UNL     1       3.762   4.535  19.707  0.00  0.00    +0.000 HD
BRANCH  16  23
ATOM     20  C   UNL     1       1.929   8.752  18.683  0.00  0.00    +0.000 A 
ATOM     21  C   UNL     1       2.660   8.268  17.592  0.00  0.00    +0.000 A 
ATOM     22  C   UNL     1       3.352   7.071  17.687  0.00  0.00    +0.000 A 
ATOM     23  C   UNL     1       3.292   6.355  18.873  0.00  0.00    +0.000 A 
ATOM     24  C   UNL     1       2.486   6.759  19.927  0.00  0.00    +0.000 A 
ATOM     25  C   UNL     1       1.839   7.992  19.848  0.00  0.00    +0.000 A 
BRANCH  20  27
ATOM     26  C   UNL     1      -0.007   9.996  18.146  0.00  0.00    +0.000 C 
ATOM     27  O   UNL     1       1.373   9.982  18.476  0.00  0.00    +0.000 OA
ENDBRANCH  20  27
ENDBRANCH  16  23
ENDBRANCH   1  17
TORSDOF 4
ENDMDL
MODEL 9
REMARK VINA RESULT:      -6.4      2.103      5.867
REMARK  Name = 
REMARK  6 active torsions:
REMARK  status: ('A' for Active; 'I' for Inactive)
REMARK    1  A    between atoms: C_1  and  O_2
REMARK    2  A    between atoms: O_2  and  C_3
REMARK    3  A    between atoms: C_6  and  N_7
REMARK    4  A    between atoms: C_8  and  C_10
REMARK    5  A    between atoms: C_11  and  C_12
REMARK    6  A    between atoms: C_17  and  C_18
REMARK                            x       y       z     vdW  Elec       q    Type
REMARK                         _______ _______ _______ _____ _____    ______ ____
ROOT
ATOM      1  C   UNL     1       4.458   3.806  17.962  0.00  0.00    +0.000 C 
ATOM      2  C   UNL     1       4.044   2.525  17.839  0.00  0.00    +0.000 C 
ATOM      3  C   UNL     1       2.628   2.268  17.248  0.00  0.00    +0.000 C 
ATOM      4  N   UNL     1       4.170   1.822  19.036  0.00  0.00    +0.000 N 
ATOM      5  C   UNL     1       4.343   2.449  20.268  0.00  0.00    +0.000 C 
ATOM      6  O   UNL     1       4.754   1.845  21.249  0.00  0.00    +0.000 OA
ATOM      7  N   UNL     1       4.056   3.825  20.279  0.00  0.00    +0.000 N 
ATOM      8  C   UNL     1       3.532   4.392  19.034  0.00  0.00    +0.000 C 
ATOM      9  H   UNL     1       4.188   0.797  19.002  0.00  0.00    +0.000 HD
ATOM     10  H   UNL     1       4.578   4.375  20.932  0.00  0.00    +0.000 HD
ENDROOT
BRANCH   8  11
ATOM     11  C   UNL     1       3.209   5.814  18.750  0.00  0.00    +0.000 A 
ATOM     12  C   UNL     1       3.332   6.766  17.766  0.00  0.00    +0.000 A 
ATOM     13  C   UNL     1       2.649   7.927  18.238  0.00  0.00    +0.000 A 
ATOM     14  C   UNL     1       2.156   7.621  19.480  0.00  0.00    +0.000 A 
ATOM     15  O   UNL     1       2.534   6.376  19.819  0.00  0.00    +0.000 OA
ENDBRANCH   8  11
BRANCH   1  17
ATOM     16  N   UNL     1       6.785   4.741  17.327  0.00  0.00    +0.000 N 
ATOM     17  C   UNL     1       5.832   4.430  18.264  0.00  0.00    +0.000 C 
ATOM     18  O   UNL     1       6.222   4.582  19.429  0.00  0.00    +0.000 OA
ATOM     19  H   UNL     1       7.706   4.679  17.755  0.00  0.00    +0.000 HD
BRANCH  16  23
ATOM     20  C   UNL     1       6.477   4.099  13.250  0.00  0.00    +0.000 A 
ATOM     21  C   UNL     1       5.581   3.491  14.137  0.00  0.00    +0.000 A 
ATOM     22  C   UNL     1       5.693   3.704  15.502  0.00  0.00    +0.000 A 
ATOM     23  C   UNL     1       6.696   4.542  15.969  0.00  0.00    +0.000 A 
ATOM     24  C   UNL     1       7.522   5.241  15.102  0.00  0.00    +0.000 A 
ATOM     25  C   UNL     1       7.442   4.979  13.735  0.00  0.00    +0.000 A 
BRANCH  20  27
ATOM     26  C   UNL     1       5.517   2.570  11.725  0.00  0.00    +0.000 C 
ATOM     27  O   UNL     1       6.301   3.731  11.947  0.00  0.00    +0.000 OA
ENDBRANCH  20  27
ENDBRANCH  16  23
ENDBRANCH   1  17
TORSDOF 4
ENDMDL
