MODEL 1
REMARK VINA RESULT:      -6.4      0.000      0.000
REMARK  Name = 
REMARK  8 active torsions:
REMARK  status: ('A' for Active; 'I' for Inactive)
REMARK    1  A    between atoms: C_2  and  C_3
REMARK    2  A    between atoms: C_3  and  C_4
REMARK    3  A    between atoms: C_3  and  N_6
REMARK    4  A    between atoms: C_7  and  C_8
REMARK    5  A    between atoms: C_8  and  N_9
REMARK    6  A    between atoms: N_9  and  C_10
REMARK    7  A    between atoms: C_16  and  C_17
REMARK    8  A    between atoms: C_25  and  C_26
REMARK                            x       y       z     vdW  Elec       q    Type
REMARK                         _______ _______ _______ _____ _____    ______ ____
ROOT
ATOM      1  N   UNL     1      -4.977  12.187  20.092  0.00  0.00    +0.000 N 
ATOM      2  C   UNL     1      -4.608  12.789  21.292  0.00  0.00    +0.000 A 
ATOM      3  N   UNL     1      -3.326  13.075  21.280  0.00  0.00    +0.000 NA
ATOM      4  C   UNL     1      -2.819  12.578  20.108  0.00  0.00    +0.000 A 
ATOM      5  C   UNL     1      -3.815  11.977  19.303  0.00  0.00    +0.000 A 
ENDROOT
BRANCH   4   6
ATOM      6  C   UNL     1      -1.385  12.682  19.847  0.00  0.00    +0.000 A 
ATOM      7  C   UNL     1      -0.906  13.674  18.971  0.00  0.00    +0.000 A 
ATOM      8  C   UNL     1       0.378  13.583  18.424  0.00  0.00    +0.000 A 
ATOM      9  C   UNL     1       1.239  12.572  18.840  0.00  0.00    +0.000 A 
ATOM     10 CL   UNL     1       2.768  12.379  18.072  0.00  0.00    +0.000 Cl
ATOM     11  C   UNL     1       0.846  11.695  19.846  0.00  0.00    +0.000 A 
ATOM     12  C   UNL     1      -0.464  11.738  20.344  0.00  0.00    +0.000 A 
ATOM     13 CL   UNL     1      -0.863  10.552  21.538  0.00  0.00    +0.000 Cl
ENDBRANCH   4   6
BRANCH   5  14
ATOM     14  C   UNL     1      -3.705  11.312  17.935  0.00  0.00    +0.000 A 
ATOM     15  C   UNL     1      -2.795  10.265  17.707  0.00  0.00    +0.000 A 
ATOM     16  C   UNL     1      -2.452   9.801  16.425  0.00  0.00    +0.000 A 
ATOM     17  C   UNL     1      -3.134  10.269  15.316  0.00  0.00    +0.000 A 
ATOM     18 CL   UNL     1      -2.745   9.714  13.742  0.00  0.00    +0.000 Cl
ATOM     19  C   UNL     1      -4.160  11.171  15.503  0.00  0.00    +0.000 A 
ATOM     20  C   UNL     1      -4.420  11.683  16.784  0.00  0.00    +0.000 A 
ENDBRANCH   5  14
BRANCH   1  21
ATOM     21  C   UNL     1      -6.366  11.850  19.778  0.00  0.00    +0.000 C 
BRANCH  21  23
ATOM     22  F   UNL     1      -7.491  12.330  17.742  0.00  0.00    +0.000 F 
ATOM     23  C   UNL     1      -7.023  12.903  18.881  0.00  0.00    +0.000 C 
ENDBRANCH  21  23
BRANCH  21  24
ATOM     24  C   UNL     1      -6.545  10.361  19.484  0.00  0.00    +0.000 C 
ATOM     25  F   UNL     1      -7.197   9.756  20.508  0.00  0.00    +0.000 F 
ENDBRANCH  21  24
ENDBRANCH   1  21
BRANCH   2  26
ATOM     26  C   UNL     1      -5.507  13.064  22.486  0.00  0.00    +0.000 C 
BRANCH  26  27
ATOM     27  N   UNL     1      -5.978  14.452  22.582  0.00  0.00    +0.000 NA
ATOM     28  H   UNL     1      -7.000  14.416  22.614  0.00  0.00    +0.000 HD
BRANCH  27  29
ATOM     29  C   UNL     1      -5.501  15.155  23.766  0.00  0.00    +0.000 C 
ATOM     30  C   UNL     1      -3.991  15.384  23.848  0.00  0.00    +0.000 C 
ATOM     31  C   UNL     1      -3.877  16.363  25.013  0.00  0.00    +0.000 C 
ATOM     32  C   UNL     1      -5.146  17.220  24.940  0.00  0.00    +0.000 C 
ATOM     33  C   UNL     1      -6.004  16.600  23.835  0.00  0.00    +0.000 C 
ENDBRANCH  27  29
ENDBRANCH  26  27
ENDBRANCH   2  26
TORSDOF 8
ENDMDL
MODEL 2
REMARK VINA RESULT:      -6.4      4.023      6.599
REMARK  Name = 
REMARK  8 active torsions:
REMARK  status: ('A' for Active; 'I' for Inactive)
REMARK    1  A    between atoms: C_2  and  C_3
REMARK    2  A    between atoms: C_3  and  C_4
REMARK    3  A    between atoms: C_3  and  N_6
REMARK    4  A    between atoms: C_7  and  C_8
REMARK    5  A    between atoms: C_8  and  N_9
REMARK    6  A    between atoms: N_9  and  C_10
REMARK    7  A    between atoms: C_16  and  C_17
REMARK    8  A    between atoms: C_25  and  C_26
REMARK                            x       y       z     vdW  Elec       q    Type
REMARK                         _______ _______ _______ _____ _____    ______ ____
ROOT
ATOM      1  N   UNL     1      -0.504  13.447  19.997  0.00  0.00    +0.000 N 
ATOM      2  C   UNL     1      -1.537  12.513  20.023  0.00  0.00    +0.000 A 
ATOM      3  N   UNL     1      -1.054  11.299  19.898  0.00  0.00    +0.000 NA
ATOM      4  C   UNL     1       0.295  11.426  19.694  0.00  0.00    +0.000 A 
ATOM      5  C   UNL     1       0.718  12.776  19.724  0.00  0.00    +0.000 A 
ENDROOT
BRANCH   4   6
ATOM      6  C   UNL     1       1.098  10.231  19.443  0.00  0.00    +0.000 A 
ATOM      7  C   UNL     1       1.624  10.001  18.159  0.00  0.00    +0.000 A 
ATOM      8  C   UNL     1       2.076   8.730  17.790  0.00  0.00    +0.000 A 
ATOM      9  C   UNL     1       2.123   7.710  18.735  0.00  0.00    +0.000 A 
ATOM     10 CL   UNL     1       2.552   6.114  18.252  0.00  0.00    +0.000 Cl
ATOM     11  C   UNL     1       1.784   7.972  20.058  0.00  0.00    +0.000 A 
ATOM     12  C   UNL     1       1.262   9.223  20.415  0.00  0.00    +0.000 A 
ATOM     13 CL   UNL     1       0.804   9.412  22.073  0.00  0.00    +0.000 Cl
ENDBRANCH   4   6
BRANCH   5  14
ATOM     14  C   UNL     1       2.110  13.374  19.554  0.00  0.00    +0.000 A 
ATOM     15  C   UNL     1       2.871  13.772  20.668  0.00  0.00    +0.000 A 
ATOM     16  C   UNL     1       4.026  14.568  20.573  0.00  0.00    +0.000 A 
ATOM     17  C   UNL     1       4.557  14.869  19.332  0.00  0.00    +0.000 A 
ATOM     18 CL   UNL     1       5.970  15.830  19.187  0.00  0.00    +0.000 Cl
ATOM     19  C   UNL     1       3.946  14.354  18.209  0.00  0.00    +0.000 A 
ATOM     20  C   UNL     1       2.745  13.637  18.329  0.00  0.00    +0.000 A 
ENDBRANCH   5  14
BRANCH   1  21
ATOM     21  C   UNL     1      -0.731  14.875  20.217  0.00  0.00    +0.000 C 
BRANCH  21  23
ATOM     22  F   UNL     1      -0.728  16.584  21.867  0.00  0.00    +0.000 F 
ATOM     23  C   UNL     1      -0.325  15.309  21.629  0.00  0.00    +0.000 C 
ENDBRANCH  21  23
BRANCH  21  24
ATOM     24  C   UNL     1      -0.333  15.715  19.004  0.00  0.00    +0.000 C 
ATOM     25  F   UNL     1       0.809  16.400  19.261  0.00  0.00    +0.000 F 
ENDBRANCH  21  24
ENDBRANCH   1  21
BRANCH   2  26
ATOM     26  C   UNL     1      -3.023  12.807  20.139  0.00  0.00    +0.000 C 
BRANCH  26  27
ATOM     27  N   UNL     1      -3.834  12.275  19.034  0.00  0.00    +0.000 NA
ATOM     28  H   UNL     1      -3.543  11.304  18.896  0.00  0.00    +0.000 HD
BRANCH  27  29
ATOM     29  C   UNL     1      -5.268  12.298  19.293  0.00  0.00    +0.000 C 
ATOM     30  C   UNL     1      -6.044  11.046  18.885  0.00  0.00    +0.000 C 
ATOM     31  C   UNL     1      -7.402  11.280  19.542  0.00  0.00    +0.000 C 
ATOM     32  C   UNL     1      -7.094  12.046  20.833  0.00  0.00    +0.000 C 
ATOM     33  C   UNL     1      -5.595  12.351  20.789  0.00  0.00    +0.000 C 
ENDBRANCH  27  29
ENDBRANCH  26  27
ENDBRANCH   2  26
TORSDOF 8
ENDMDL
MODEL 3
REMARK VINA RESULT:      -6.3      0.765      1.394
REMARK  Name = 
REMARK  8 active torsions:
REMARK  status: ('A' for Active; 'I' for Inactive)
REMARK    1  A    between atoms: C_2  and  C_3
REMARK    2  A    between atoms: C_3  and  C_4
REMARK    3  A    between atoms: C_3  and  N_6
REMARK    4  A    between atoms: C_7  and  C_8
REMARK    5  A    between atoms: C_8  and  N_9
REMARK    6  A    between atoms: N_9  and  C_10
REMARK    7  A    between atoms: C_16  and  C_17
REMARK    8  A    between atoms: C_25  and  C_26
REMARK                            x       y       z     vdW  Elec       q    Type
REMARK                         _______ _______ _______ _____ _____    ______ ____
ROOT
ATOM      1  N   UNL     1      -4.967  12.084  19.713  0.00  0.00    +0.000 N 
ATOM      2  C   UNL     1      -4.641  12.687  20.925  0.00  0.00    +0.000 A 
ATOM      3  N   UNL     1      -3.356  12.948  20.971  0.00  0.00    +0.000 NA
ATOM      4  C   UNL     1      -2.804  12.433  19.827  0.00  0.00    +0.000 A 
ATOM      5  C   UNL     1      -3.774  11.846  18.980  0.00  0.00    +0.000 A 
ENDROOT
BRANCH   4   6
ATOM      6  C   UNL     1      -1.357  12.507  19.632  0.00  0.00    +0.000 A 
ATOM      7  C   UNL     1      -0.796  13.635  19.006  0.00  0.00    +0.000 A 
ATOM      8  C   UNL     1       0.502  13.589  18.485  0.00  0.00    +0.000 A 
ATOM      9  C   UNL     1       1.293  12.464  18.694  0.00  0.00    +0.000 A 
ATOM     10 CL   UNL     1       2.838  12.352  17.943  0.00  0.00    +0.000 Cl
ATOM     11  C   UNL     1       0.818  11.415  19.475  0.00  0.00    +0.000 A 
ATOM     12  C   UNL     1      -0.506  11.426  19.936  0.00  0.00    +0.000 A 
ATOM     13 CL   UNL     1      -1.011  10.036  20.833  0.00  0.00    +0.000 Cl
ENDBRANCH   4   6
BRANCH   5  14
ATOM     14  C   UNL     1      -3.614  11.170  17.623  0.00  0.00    +0.000 A 
ATOM     15  C   UNL     1      -2.649  10.167  17.419  0.00  0.00    +0.000 A 
ATOM     16  C   UNL     1      -2.268   9.705  16.148  0.00  0.00    +0.000 A 
ATOM     17  C   UNL     1      -2.959  10.123  15.025  0.00  0.00    +0.000 A 
ATOM     18 CL   UNL     1      -2.523   9.568  13.463  0.00  0.00    +0.000 Cl
ATOM     19  C   UNL     1      -4.032  10.973  15.188  0.00  0.00    +0.000 A 
ATOM     20  C   UNL     1      -4.333  11.489  16.459  0.00  0.00    +0.000 A 
ENDBRANCH   5  14
BRANCH   1  21
ATOM     21  C   UNL     1      -6.346  11.773  19.337  0.00  0.00    +0.000 C 
BRANCH  21  23
ATOM     22  F   UNL     1      -7.135   9.533  19.362  0.00  0.00    +0.000 F 
ATOM     23  C   UNL     1      -6.916  10.612  20.157  0.00  0.00    +0.000 C 
ENDBRANCH  21  23
BRANCH  21  24
ATOM     24  C   UNL     1      -7.177  13.033  19.098  0.00  0.00    +0.000 C 
ATOM     25  F   UNL     1      -7.916  12.901  17.968  0.00  0.00    +0.000 F 
ENDBRANCH  21  24
ENDBRANCH   1  21
BRANCH   2  26
ATOM     26  C   UNL     1      -5.590  12.988  22.074  0.00  0.00    +0.000 C 
BRANCH  26  27
ATOM     27  N   UNL     1      -5.080  12.601  23.397  0.00  0.00    +0.000 NA
ATOM     28  H   UNL     1      -4.242  12.035  23.237  0.00  0.00    +0.000 HD
BRANCH  27  29
ATOM     29  C   UNL     1      -4.721  13.732  24.243  0.00  0.00    +0.000 C 
ATOM     30  C   UNL     1      -3.226  14.019  24.383  0.00  0.00    +0.000 C 
ATOM     31  C   UNL     1      -3.222  15.385  25.063  0.00  0.00    +0.000 C 
ATOM     32  C   UNL     1      -4.462  16.104  24.521  0.00  0.00    +0.000 C 
ATOM     33  C   UNL     1      -5.206  15.069  23.674  0.00  0.00    +0.000 C 
ENDBRANCH  27  29
ENDBRANCH  26  27
ENDBRANCH   2  26
TORSDOF 8
ENDMDL
MODEL 4
REMARK VINA RESULT:      -6.3      3.826      7.063
REMARK  Name = 
REMARK  8 active torsions:
REMARK  status: ('A' for Active; 'I' for Inactive)
REMARK    1  A    between atoms: C_2  and  C_3
REMARK    2  A    between atoms: C_3  and  C_4
REMARK    3  A    between atoms: C_3  and  N_6
REMARK    4  A    between atoms: C_7  and  C_8
REMARK    5  A    between atoms: C_8  and  N_9
REMARK    6  A    between atoms: N_9  and  C_10
REMARK    7  A    between atoms: C_16  and  C_17
REMARK    8  A    between atoms: C_25  and  C_26
REMARK                            x       y       z     vdW  Elec       q    Type
REMARK                         _______ _______ _______ _____ _____    ______ ____
ROOT
ATOM      1  N   UNL     1      -0.675  13.106  19.801  0.00  0.00    +0.000 N 
ATOM      2  C   UNL     1      -1.661  12.123  19.784  0.00  0.00    +0.000 A 
ATOM      3  N   UNL     1      -1.114  10.934  19.686  0.00  0.00    +0.000 NA
ATOM      4  C   UNL     1       0.235  11.127  19.541  0.00  0.00    +0.000 A 
ATOM      5  C   UNL     1       0.589  12.497  19.584  0.00  0.00    +0.000 A 
ENDROOT
BRANCH   4   6
ATOM      6  C   UNL     1       1.106   9.973  19.331  0.00  0.00    +0.000 A 
ATOM      7  C   UNL     1       1.665   9.744  18.060  0.00  0.00    +0.000 A 
ATOM      8  C   UNL     1       2.192   8.491  17.728  0.00  0.00    +0.000 A 
ATOM      9  C   UNL     1       2.280   7.497  18.697  0.00  0.00    +0.000 A 
ATOM     10 CL   UNL     1       2.804   5.916  18.258  0.00  0.00    +0.000 Cl
ATOM     11  C   UNL     1       1.906   7.770  20.008  0.00  0.00    +0.000 A 
ATOM     12  C   UNL     1       1.310   8.998  20.328  0.00  0.00    +0.000 A 
ATOM     13 CL   UNL     1       0.816   9.199  21.974  0.00  0.00    +0.000 Cl
ENDBRANCH   4   6
BRANCH   5  14
ATOM     14  C   UNL     1       1.957  13.162  19.474  0.00  0.00    +0.000 A 
ATOM     15  C   UNL     1       2.643  13.607  20.618  0.00  0.00    +0.000 A 
ATOM     16  C   UNL     1       3.760  14.460  20.570  0.00  0.00    +0.000 A 
ATOM     17  C   UNL     1       4.334  14.777  19.352  0.00  0.00    +0.000 A 
ATOM     18 CL   UNL     1       5.702  15.806  19.264  0.00  0.00    +0.000 Cl
ATOM     19  C   UNL     1       3.804  14.222  18.207  0.00  0.00    +0.000 A 
ATOM     20  C   UNL     1       2.635  13.447  18.278  0.00  0.00    +0.000 A 
ENDBRANCH   5  14
BRANCH   1  21
ATOM     21  C   UNL     1      -0.982  14.522  20.006  0.00  0.00    +0.000 C 
BRANCH  21  23
ATOM     22  F   UNL     1      -1.726  15.921  21.774  0.00  0.00    +0.000 F 
ATOM     23  C   UNL     1      -0.846  14.932  21.475  0.00  0.00    +0.000 C 
ENDBRANCH  21  23
BRANCH  21  24
ATOM     24  C   UNL     1      -0.402  15.403  18.899  0.00  0.00    +0.000 C 
ATOM     25  F   UNL     1      -1.107  16.557  18.800  0.00  0.00    +0.000 F 
ENDBRANCH  21  24
ENDBRANCH   1  21
BRANCH   2  26
ATOM     26  C   UNL     1      -3.164  12.343  19.834  0.00  0.00    +0.000 C 
BRANCH  26  27
ATOM     27  N   UNL     1      -3.854  12.095  18.560  0.00  0.00    +0.000 NA
ATOM     28  H   UNL     1      -4.045  13.010  18.144  0.00  0.00    +0.000 HD
BRANCH  27  29
ATOM     29  C   UNL     1      -3.076  11.307  17.613  0.00  0.00    +0.000 C 
ATOM     30  C   UNL     1      -3.329   9.800  17.624  0.00  0.00    +0.000 C 
ATOM     31  C   UNL     1      -2.602   9.341  16.364  0.00  0.00    +0.000 C 
ATOM     32  C   UNL     1      -2.749  10.502  15.373  0.00  0.00    +0.000 C 
ATOM     33  C   UNL     1      -3.419  11.634  16.156  0.00  0.00    +0.000 C 
ENDBRANCH  27  29
ENDBRANCH  26  27
ENDBRANCH   2  26
TORSDOF 8
ENDMDL
MODEL 5
REMARK VINA RESULT:      -6.3      3.810      6.611
REMARK  Name = 
REMARK  8 active torsions:
REMARK  status: ('A' for Active; 'I' for Inactive)
REMARK    1  A    between atoms: C_2  and  C_3
REMARK    2  A    between atoms: C_3  and  C_4
REMARK    3  A    between atoms: C_3  and  N_6
REMARK    4  A    between atoms: C_7  and  C_8
REMARK    5  A    between atoms: C_8  and  N_9
REMARK    6  A    between atoms: N_9  and  C_10
REMARK    7  A    between atoms: C_16  and  C_17
REMARK    8  A    between atoms: C_25  and  C_26
REMARK                            x       y       z     vdW  Elec       q    Type
REMARK                         _______ _______ _______ _____ _____    ______ ____
ROOT
ATOM      1  N   UNL     1      -0.761  12.978  19.777  0.00  0.00    +0.000 N 
ATOM      2  C   UNL     1      -1.721  11.989  19.575  0.00  0.00    +0.000 A 
ATOM      3  N   UNL     1      -1.143  10.818  19.444  0.00  0.00    +0.000 NA
ATOM      4  C   UNL     1       0.209  11.035  19.464  0.00  0.00    +0.000 A 
ATOM      5  C   UNL     1       0.530  12.401  19.654  0.00  0.00    +0.000 A 
ENDROOT
BRANCH   4   6
ATOM      6  C   UNL     1       1.120   9.910  19.261  0.00  0.00    +0.000 A 
ATOM      7  C   UNL     1       1.731   9.727  18.007  0.00  0.00    +0.000 A 
ATOM      8  C   UNL     1       2.305   8.497  17.668  0.00  0.00    +0.000 A 
ATOM      9  C   UNL     1       2.385   7.483  18.617  0.00  0.00    +0.000 A 
ATOM     10 CL   UNL     1       2.969   5.929  18.162  0.00  0.00    +0.000 Cl
ATOM     11  C   UNL     1       1.955   7.715  19.919  0.00  0.00    +0.000 A 
ATOM     12  C   UNL     1       1.314   8.919  20.243  0.00  0.00    +0.000 A 
ATOM     13 CL   UNL     1       0.754   9.067  21.874  0.00  0.00    +0.000 Cl
ENDBRANCH   4   6
BRANCH   5  14
ATOM     14  C   UNL     1       1.889  13.087  19.747  0.00  0.00    +0.000 A 
ATOM     15  C   UNL     1       2.457  13.408  20.993  0.00  0.00    +0.000 A 
ATOM     16  C   UNL     1       3.556  14.271  21.144  0.00  0.00    +0.000 A 
ATOM     17  C   UNL     1       4.235  14.727  20.028  0.00  0.00    +0.000 A 
ATOM     18 CL   UNL     1       5.585  15.772  20.183  0.00  0.00    +0.000 Cl
ATOM     19  C   UNL     1       3.824  14.299  18.784  0.00  0.00    +0.000 A 
ATOM     20  C   UNL     1       2.670  13.510  18.658  0.00  0.00    +0.000 A 
ENDBRANCH   5  14
BRANCH   1  21
ATOM     21  C   UNL     1      -1.115  14.370  20.057  0.00  0.00    +0.000 C 
BRANCH  21  23
ATOM     22  F   UNL     1      -0.735  13.571  22.261  0.00  0.00    +0.000 F 
ATOM     23  C   UNL     1      -1.094  14.676  21.558  0.00  0.00    +0.000 C 
ENDBRANCH  21  23
BRANCH  21  24
ATOM     24  C   UNL     1      -0.479  15.338  19.060  0.00  0.00    +0.000 C 
ATOM     25  F   UNL     1      -0.404  14.764  17.833  0.00  0.00    +0.000 F 
ENDBRANCH  21  24
ENDBRANCH   1  21
BRANCH   2  26
ATOM     26  C   UNL     1      -3.224  12.189  19.476  0.00  0.00    +0.000 C 
BRANCH  26  27
ATOM     27  N   UNL     1      -3.869  11.410  18.410  0.00  0.00    +0.000 NA
ATOM     28  H   UNL     1      -3.592  10.435  18.548  0.00  0.00    +0.000 HD
BRANCH  27  29
ATOM     29  C   UNL     1      -5.324  11.486  18.424  0.00  0.00    +0.000 C 
ATOM     30  C   UNL     1      -5.958  12.000  19.718  0.00  0.00    +0.000 C 
ATOM     31  C   UNL     1      -7.408  12.224  19.300  0.00  0.00    +0.000 C 
ATOM     32  C   UNL     1      -7.338  12.653  17.830  0.00  0.00    +0.000 C 
ATOM     33  C   UNL     1      -5.869  12.511  17.424  0.00  0.00    +0.000 C 
ENDBRANCH  27  29
ENDBRANCH  26  27
ENDBRANCH   2  26
TORSDOF 8
ENDMDL
MODEL 6
REMARK VINA RESULT:      -6.2      3.680      6.981
REMARK  Name = 
REMARK  8 active torsions:
REMARK  status: ('A' for Active; 'I' for Inactive)
REMARK    1  A    between atoms: C_2  and  C_3
REMARK    2  A    between atoms: C_3  and  C_4
REMARK    3  A    between atoms: C_3  and  N_6
REMARK    4  A    between atoms: C_7  and  C_8
REMARK    5  A    between atoms: C_8  and  N_9
REMARK    6  A    between atoms: N_9  and  C_10
REMARK    7  A    between atoms: C_16  and  C_17
REMARK    8  A    between atoms: C_25  and  C_26
REMARK                            x       y       z     vdW  Elec       q    Type
REMARK                         _______ _______ _______ _____ _____    ______ ____
ROOT
ATOM      1  N   UNL     1      -0.945  13.358  19.938  0.00  0.00    +0.000 N 
ATOM      2  C   UNL     1      -1.898  12.346  19.857  0.00  0.00    +0.000 A 
ATOM      3  N   UNL     1      -1.310  11.178  19.739  0.00  0.00    +0.000 NA
ATOM      4  C   UNL     1       0.036  11.418  19.646  0.00  0.00    +0.000 A 
ATOM      5  C   UNL     1       0.344  12.795  19.745  0.00  0.00    +0.000 A 
ENDROOT
BRANCH   4   6
ATOM      6  C   UNL     1       0.950  10.298  19.428  0.00  0.00    +0.000 A 
ATOM      7  C   UNL     1       1.564  10.134  18.173  0.00  0.00    +0.000 A 
ATOM      8  C   UNL     1       2.142   8.911  17.817  0.00  0.00    +0.000 A 
ATOM      9  C   UNL     1       2.224   7.884  18.753  0.00  0.00    +0.000 A 
ATOM     10 CL   UNL     1       2.813   6.337  18.277  0.00  0.00    +0.000 Cl
ATOM     11  C   UNL     1       1.792   8.097  20.057  0.00  0.00    +0.000 A 
ATOM     12  C   UNL     1       1.146   9.294  20.397  0.00  0.00    +0.000 A 
ATOM     13 CL   UNL     1       0.584   9.418  22.029  0.00  0.00    +0.000 Cl
ENDBRANCH   4   6
BRANCH   5  14
ATOM     14  C   UNL     1       1.693  13.506  19.703  0.00  0.00    +0.000 A 
ATOM     15  C   UNL     1       2.326  13.791  18.480  0.00  0.00    +0.000 A 
ATOM     16  C   UNL     1       3.671  14.189  18.377  0.00  0.00    +0.000 A 
ATOM     17  C   UNL     1       4.397  14.471  19.521  0.00  0.00    +0.000 A 
ATOM     18 CL   UNL     1       6.034  14.967  19.426  0.00  0.00    +0.000 Cl
ATOM     19  C   UNL     1       3.767  14.376  20.744  0.00  0.00    +0.000 A 
ATOM     20  C   UNL     1       2.451  13.891  20.821  0.00  0.00    +0.000 A 
ENDBRANCH   5  14
BRANCH   1  21
ATOM     21  C   UNL     1      -1.304  14.756  20.178  0.00  0.00    +0.000 C 
BRANCH  21  23
ATOM     22  F   UNL     1      -0.742  14.075  22.383  0.00  0.00    +0.000 F 
ATOM     23  C   UNL     1      -1.209  15.126  21.661  0.00  0.00    +0.000 C 
ENDBRANCH  21  23
BRANCH  21  24
ATOM     24  C   UNL     1      -0.734  15.688  19.108  0.00  0.00    +0.000 C 
ATOM     25  F   UNL     1       0.259  16.450  19.631  0.00  0.00    +0.000 F 
ENDBRANCH  21  24
ENDBRANCH   1  21
BRANCH   2  26
ATOM     26  C   UNL     1      -3.408  12.517  19.863  0.00  0.00    +0.000 C 
BRANCH  26  27
ATOM     27  N   UNL     1      -4.130  11.551  19.023  0.00  0.00    +0.000 NA
ATOM     28  H   UNL     1      -5.047  11.960  18.824  0.00  0.00    +0.000 HD
BRANCH  27  29
ATOM     29  C   UNL     1      -3.467  11.260  17.758  0.00  0.00    +0.000 C 
ATOM     30  C   UNL     1      -3.153   9.789  17.487  0.00  0.00    +0.000 C 
ATOM     31  C   UNL     1      -2.751   9.811  16.015  0.00  0.00    +0.000 C 
ATOM     32  C   UNL     1      -3.604  10.918  15.385  0.00  0.00    +0.000 C 
ATOM     33  C   UNL     1      -4.346  11.583  16.546  0.00  0.00    +0.000 C 
ENDBRANCH  27  29
ENDBRANCH  26  27
ENDBRANCH   2  26
TORSDOF 8
ENDMDL
MODEL 7
REMARK VINA RESULT:      -6.0      2.347      3.189
REMARK  Name = 
REMARK  8 active torsions:
REMARK  status: ('A' for Active; 'I' for Inactive)
REMARK    1  A    between atoms: C_2  and  C_3
REMARK    2  A    between atoms: C_3  and  C_4
REMARK    3  A    between atoms: C_3  and  N_6
REMARK    4  A    between atoms: C_7  and  C_8
REMARK    5  A    between atoms: C_8  and  N_9
REMARK    6  A    between atoms: N_9  and  C_10
REMARK    7  A    between atoms: C_16  and  C_17
REMARK    8  A    between atoms: C_25  and  C_26
REMARK                            x       y       z     vdW  Elec       q    Type
REMARK                         _______ _______ _______ _____ _____    ______ ____
ROOT
ATOM      1  N   UNL     1      -2.730  12.656  20.791  0.00  0.00    +0.000 N 
ATOM      2  C   UNL     1      -1.882  12.818  21.884  0.00  0.00    +0.000 A 
ATOM      3  N   UNL     1      -0.744  12.200  21.670  0.00  0.00    +0.000 NA
ATOM      4  C   UNL     1      -0.866  11.543  20.473  0.00  0.00    +0.000 A 
ATOM      5  C   UNL     1      -2.121  11.773  19.861  0.00  0.00    +0.000 A 
ENDROOT
BRANCH   4   6
ATOM      6  C   UNL     1       0.230  10.698  20.004  0.00  0.00    +0.000 A 
ATOM      7  C   UNL     1       1.015  11.117  18.914  0.00  0.00    +0.000 A 
ATOM      8  C   UNL     1       1.815  10.203  18.219  0.00  0.00    +0.000 A 
ATOM      9  C   UNL     1       1.936   8.896  18.680  0.00  0.00    +0.000 A 
ATOM     10 CL   UNL     1       2.812   7.739  17.754  0.00  0.00    +0.000 Cl
ATOM     11  C   UNL     1       1.315   8.517  19.865  0.00  0.00    +0.000 A 
ATOM     12  C   UNL     1       0.454   9.407  20.524  0.00  0.00    +0.000 A 
ATOM     13 CL   UNL     1      -0.322   8.803  21.947  0.00  0.00    +0.000 Cl
ENDBRANCH   4   6
BRANCH   5  14
ATOM     14  C   UNL     1      -2.678  11.257  18.538  0.00  0.00    +0.000 A 
ATOM     15  C   UNL     1      -2.065  10.190  17.858  0.00  0.00    +0.000 A 
ATOM     16  C   UNL     1      -2.357   9.851  16.525  0.00  0.00    +0.000 A 
ATOM     17  C   UNL     1      -3.399  10.477  15.865  0.00  0.00    +0.000 A 
ATOM     18 CL   UNL     1      -3.783  10.077  14.243  0.00  0.00    +0.000 Cl
ATOM     19  C   UNL     1      -4.148  11.411  16.548  0.00  0.00    +0.000 A 
ATOM     20  C   UNL     1      -3.778  11.794  17.848  0.00  0.00    +0.000 A 
ENDBRANCH   5  14
BRANCH   1  21
ATOM     21  C   UNL     1      -4.031  13.320  20.702  0.00  0.00    +0.000 C 
BRANCH  21  23
ATOM     22  F   UNL     1      -6.350  12.900  20.998  0.00  0.00    +0.000 F 
ATOM     23  C   UNL     1      -5.120  12.553  21.458  0.00  0.00    +0.000 C 
ENDBRANCH  21  23
BRANCH  21  24
ATOM     24  C   UNL     1      -3.913  14.838  20.841  0.00  0.00    +0.000 C 
ATOM     25  F   UNL     1      -4.776  15.291  21.785  0.00  0.00    +0.000 F 
ENDBRANCH  21  24
ENDBRANCH   1  21
BRANCH   2  26
ATOM     26  C   UNL     1      -2.192  13.561  23.172  0.00  0.00    +0.000 C 
BRANCH  26  27
ATOM     27  N   UNL     1      -1.034  14.231  23.779  0.00  0.00    +0.000 NA
ATOM     28  H   UNL     1      -0.324  14.314  23.047  0.00  0.00    +0.000 HD
BRANCH  27  29
ATOM     29  C   UNL     1      -1.327  15.563  24.293  0.00  0.00    +0.000 C 
ATOM     30  C   UNL     1      -2.807  15.908  24.460  0.00  0.00    +0.000 C 
ATOM     31  C   UNL     1      -2.748  17.204  25.262  0.00  0.00    +0.000 C 
ATOM     32  C   UNL     1      -1.515  17.061  26.161  0.00  0.00    +0.000 C 
ATOM     33  C   UNL     1      -0.834  15.760  25.730  0.00  0.00    +0.000 C 
ENDBRANCH  27  29
ENDBRANCH  26  27
ENDBRANCH   2  26
TORSDOF 8
ENDMDL
MODEL 8
REMARK VINA RESULT:      -5.9      3.671      6.063
REMARK  Name = 
REMARK  8 active torsions:
REMARK  status: ('A' for Active; 'I' for Inactive)
REMARK    1  A    between atoms: C_2  and  C_3
REMARK    2  A    between atoms: C_3  and  C_4
REMARK    3  A    between atoms: C_3  and  N_6
REMARK    4  A    between atoms: C_7  and  C_8
REMARK    5  A    between atoms: C_8  and  N_9
REMARK    6  A    between atoms: N_9  and  C_10
REMARK    7  A    between atoms: C_16  and  C_17
REMARK    8  A    between atoms: C_25  and  C_26
REMARK                            x       y       z     vdW  Elec       q    Type
REMARK                         _______ _______ _______ _____ _____    ______ ____
ROOT
ATOM      1  N   UNL     1      -0.542  13.364  20.275  0.00  0.00    +0.000 N 
ATOM      2  C   UNL     1      -1.563  12.419  20.331  0.00  0.00    +0.000 A 
ATOM      3  N   UNL     1      -1.075  11.214  20.151  0.00  0.00    +0.000 NA
ATOM      4  C   UNL     1       0.261  11.361  19.881  0.00  0.00    +0.000 A 
ATOM      5  C   UNL     1       0.671  12.715  19.923  0.00  0.00    +0.000 A 
ENDROOT
BRANCH   4   6
ATOM      6  C   UNL     1       1.061  10.181  19.560  0.00  0.00    +0.000 A 
ATOM      7  C   UNL     1       1.539   9.999  18.249  0.00  0.00    +0.000 A 
ATOM      8  C   UNL     1       1.984   8.745  17.821  0.00  0.00    +0.000 A 
ATOM      9  C   UNL     1       2.076   7.694  18.728  0.00  0.00    +0.000 A 
ATOM     10 CL   UNL     1       2.497   6.118  18.175  0.00  0.00    +0.000 Cl
ATOM     11  C   UNL     1       1.787   7.909  20.071  0.00  0.00    +0.000 A 
ATOM     12  C   UNL     1       1.270   9.143  20.490  0.00  0.00    +0.000 A 
ATOM     13 CL   UNL     1       0.876   9.273  22.170  0.00  0.00    +0.000 Cl
ENDBRANCH   4   6
BRANCH   5  14
ATOM     14  C   UNL     1       2.047  13.332  19.697  0.00  0.00    +0.000 A 
ATOM     15  C   UNL     1       2.855  13.723  20.780  0.00  0.00    +0.000 A 
ATOM     16  C   UNL     1       3.994  14.535  20.643  0.00  0.00    +0.000 A 
ATOM     17  C   UNL     1       4.463  14.861  19.383  0.00  0.00    +0.000 A 
ATOM     18 CL   UNL     1       5.856  15.841  19.186  0.00  0.00    +0.000 Cl
ATOM     19  C   UNL     1       3.806  14.355  18.282  0.00  0.00    +0.000 A 
ATOM     20  C   UNL     1       2.620  13.621  18.448  0.00  0.00    +0.000 A 
ENDBRANCH   5  14
BRANCH   1  21
ATOM     21  C   UNL     1      -0.771  14.785  20.543  0.00  0.00    +0.000 C 
BRANCH  21  23
ATOM     22  F   UNL     1       0.802  15.934  21.902  0.00  0.00    +0.000 F 
ATOM     23  C   UNL     1      -0.327  15.181  21.954  0.00  0.00    +0.000 C 
ENDBRANCH  21  23
BRANCH  21  24
ATOM     24  C   UNL     1      -0.414  15.662  19.343  0.00  0.00    +0.000 C 
ATOM     25  F   UNL     1      -0.538  14.955  18.192  0.00  0.00    +0.000 F 
ENDBRANCH  21  24
ENDBRANCH   1  21
BRANCH   2  26
ATOM     26  C   UNL     1      -3.044  12.693  20.531  0.00  0.00    +0.000 C 
BRANCH  26  27
ATOM     27  N   UNL     1      -3.501  12.564  21.922  0.00  0.00    +0.000 NA
ATOM     28  H   UNL     1      -2.674  12.669  22.515  0.00  0.00    +0.000 HD
BRANCH  27  29
ATOM     29  C   UNL     1      -4.483  13.567  22.314  0.00  0.00    +0.000 C 
ATOM     30  C   UNL     1      -5.649  13.069  23.168  0.00  0.00    +0.000 C 
ATOM     31  C   UNL     1      -6.294  14.373  23.626  0.00  0.00    +0.000 C 
ATOM     32  C   UNL     1      -5.133  15.364  23.769  0.00  0.00    +0.000 C 
ATOM     33  C   UNL     1      -3.895  14.634  23.243  0.00  0.00    +0.000 C 
ENDBRANCH  27  29
ENDBRANCH  26  27
ENDBRANCH   2  26
TORSDOF 8
ENDMDL
MODEL 9
REMARK VINA RESULT:      -5.9      3.705      6.296
REMARK  Name = 
REMARK  8 active torsions:
REMARK  status: ('A' for Active; 'I' for Inactive)
REMARK    1  A    between atoms: C_2  and  C_3
REMARK    2  A    between atoms: C_3  and  C_4
REMARK    3  A    between atoms: C_3  and  N_6
REMARK    4  A    between atoms: C_7  and  C_8
REMARK    5  A    between atoms: C_8  and  N_9
REMARK    6  A    between atoms: N_9  and  C_10
REMARK    7  A    between atoms: C_16  and  C_17
REMARK    8  A    between atoms: C_25  and  C_26
REMARK                            x       y       z     vdW  Elec       q    Type
REMARK                         _______ _______ _______ _____ _____    ______ ____
ROOT
ATOM      1  N   UNL     1      -0.860  13.645  20.546  0.00  0.00    +0.000 N 
ATOM      2  C   UNL     1      -1.830  12.649  20.622  0.00  0.00    +0.000 A 
ATOM      3  N   UNL     1      -1.290  11.473  20.404  0.00  0.00    +0.000 NA
ATOM      4  C   UNL     1       0.025  11.691  20.088  0.00  0.00    +0.000 A 
ATOM      5  C   UNL     1       0.369  13.062  20.138  0.00  0.00    +0.000 A 
ENDROOT
BRANCH   4   6
ATOM      6  C   UNL     1       0.871  10.558  19.717  0.00  0.00    +0.000 A 
ATOM      7  C   UNL     1       1.372  10.462  18.406  0.00  0.00    +0.000 A 
ATOM      8  C   UNL     1       1.867   9.248  17.919  0.00  0.00    +0.000 A 
ATOM      9  C   UNL     1       1.983   8.154  18.772  0.00  0.00    +0.000 A 
ATOM     10 CL   UNL     1       2.466   6.626  18.143  0.00  0.00    +0.000 Cl
ATOM     11  C   UNL     1       1.668   8.287  20.119  0.00  0.00    +0.000 A 
ATOM     12  C   UNL     1       1.103   9.479  20.595  0.00  0.00    +0.000 A 
ATOM     13 CL   UNL     1       0.682   9.506  22.273  0.00  0.00    +0.000 Cl
ENDBRANCH   4   6
BRANCH   5  14
ATOM     14  C   UNL     1       1.704  13.751  19.873  0.00  0.00    +0.000 A 
ATOM     15  C   UNL     1       2.102  14.085  18.566  0.00  0.00    +0.000 A 
ATOM     16  C   UNL     1       3.413  14.464  18.228  0.00  0.00    +0.000 A 
ATOM     17  C   UNL     1       4.349  14.677  19.225  0.00  0.00    +0.000 A 
ATOM     18 CL   UNL     1       5.952  15.150  18.843  0.00  0.00    +0.000 Cl
ATOM     19  C   UNL     1       3.959  14.534  20.539  0.00  0.00    +0.000 A 
ATOM     20  C   UNL     1       2.669  14.068  20.843  0.00  0.00    +0.000 A 
ENDBRANCH   5  14
BRANCH   1  21
ATOM     21  C   UNL     1      -1.149  15.048  20.846  0.00  0.00    +0.000 C 
BRANCH  21  23
ATOM     22  F   UNL     1      -0.082  14.388  22.863  0.00  0.00    +0.000 F 
ATOM     23  C   UNL     1      -0.677  15.443  22.248  0.00  0.00    +0.000 C 
ENDBRANCH  21  23
BRANCH  21  24
ATOM     24  C   UNL     1      -0.877  15.960  19.651  0.00  0.00    +0.000 C 
ATOM     25  F   UNL     1      -1.924  16.801  19.455  0.00  0.00    +0.000 F 
ENDBRANCH  21  24
ENDBRANCH   1  21
BRANCH   2  26
ATOM     26  C   UNL     1      -3.314  12.845  20.881  0.00  0.00    +0.000 C 
BRANCH  26  27
ATOM     27  N   UNL     1      -4.105  13.141  19.678  0.00  0.00    +0.000 NA
ATOM     28  H   UNL     1      -3.683  12.612  18.910  0.00  0.00    +0.000 HD
BRANCH  27  29
ATOM     29  C   UNL     1      -5.508  12.760  19.788  0.00  0.00    +0.000 C 
ATOM     30  C   UNL     1      -5.893  11.423  19.154  0.00  0.00    +0.000 C 
ATOM     31  C   UNL     1      -7.305  11.208  19.690  0.00  0.00    +0.000 C 
ATOM     32  C   UNL     1      -7.301  11.834  21.090  0.00  0.00    +0.000 C 
ATOM     33  C   UNL     1      -5.938  12.514  21.237  0.00  0.00    +0.000 C 
ENDBRANCH  27  29
ENDBRANCH  26  27
ENDBRANCH   2  26
TORSDOF 8
ENDMDL
