MODEL 1
REMARK VINA RESULT:     -10.8      0.000      0.000
REMARK  Name = 
REMARK  6 active torsions:
REMARK  status: ('A' for Active; 'I' for Inactive)
REMARK    1  A    between atoms: C_1  and  C_2
REMARK    2  A    between atoms: N_10  and  C_11
REMARK    3  A    between atoms: C_15  and  C_16
REMARK    4  A    between atoms: C_16  and  N_17
REMARK    5  A    between atoms: N_17  and  C_18
REMARK    6  A    between atoms: C_23  and  C_24
REMARK                            x       y       z     vdW  Elec       q    Type
REMARK                         _______ _______ _______ _____ _____    ______ ____
ROOT
ATOM      1  C   UNL     1       3.117   3.075  18.171  0.00  0.00    +0.000 A 
ATOM      2  C   UNL     1       2.098   2.124  18.052  0.00  0.00    +0.000 A 
ATOM      3  C   UNL     1       0.953   2.204  18.850  0.00  0.00    +0.000 A 
ATOM      4  C   UNL     1       0.789   3.266  19.741  0.00  0.00    +0.000 A 
ATOM      5  C   UNL     1       1.767   4.263  19.841  0.00  0.00    +0.000 A 
ATOM      6  C   UNL     1       2.932   4.141  19.068  0.00  0.00    +0.000 A 
ENDROOT
BRANCH   1  16
ATOM      7  C   UNL     1       5.785   3.216  12.275  0.00  0.00    +0.000 C 
ATOM      8  C   UNL     1       6.207   3.890  13.547  0.00  0.00    +0.000 A 
ATOM      9  C   UNL     1       7.230   4.839  13.545  0.00  0.00    +0.000 A 
ATOM     10  C   UNL     1       7.568   5.512  14.720  0.00  0.00    +0.000 A 
ATOM     11  C   UNL     1       6.886   5.255  15.920  0.00  0.00    +0.000 A 
ATOM     12  C   UNL     1       7.186   5.978  17.075  0.00  0.00    +0.000 A 
ATOM     13  C   UNL     1       6.467   5.717  18.224  0.00  0.00    +0.000 A 
ATOM     14  N   UNL     1       5.503   4.783  18.307  0.00  0.00    +0.000 NA
ATOM     15  C   UNL     1       5.206   4.069  17.194  0.00  0.00    +0.000 A 
ATOM     16  N   UNL     1       4.233   3.043  17.305  0.00  0.00    +0.000 N 
ATOM     17  C   UNL     1       5.872   4.273  15.959  0.00  0.00    +0.000 A 
ATOM     18  C   UNL     1       5.552   3.597  14.753  0.00  0.00    +0.000 A 
ATOM     19  H   UNL     1       4.718   2.152  17.315  0.00  0.00    +0.000 HD
ENDBRANCH   1  16
BRANCH   5  20
ATOM     20  C   UNL     1       1.583   5.452  20.760  0.00  0.00    +0.000 C 
BRANCH  20  21
ATOM     21  N   UNL     1       2.591   6.453  20.450  0.00  0.00    +0.000 N 
ATOM     22  H   UNL     1       3.034   6.798  21.297  0.00  0.00    +0.000 HD
BRANCH  21  23
ATOM     23  C   UNL     1       2.171   7.546  19.663  0.00  0.00    +0.000 A 
ATOM     24  N   UNL     1       2.528   7.595  18.372  0.00  0.00    +0.000 NA
ATOM     25  C   UNL     1       2.078   8.635  17.669  0.00  0.00    +0.000 A 
ATOM     26  N   UNL     1       1.291   9.621  18.124  0.00  0.00    +0.000 NA
ATOM     27  C   UNL     1       0.950   9.604  19.434  0.00  0.00    +0.000 A 
ATOM     28  C   UNL     1       0.142  10.601  20.025  0.00  0.00    +0.000 A 
ATOM     29  C   UNL     1      -0.148  10.588  21.404  0.00  0.00    +0.000 A 
ATOM     30  C   UNL     1       0.337   9.580  22.219  0.00  0.00    +0.000 A 
ATOM     31  C   UNL     1       1.100   8.571  21.652  0.00  0.00    +0.000 A 
ATOM     32  C   UNL     1       1.405   8.565  20.269  0.00  0.00    +0.000 A 
BRANCH  28  33
ATOM     33  C   UNL     1      -0.483  11.722  19.254  0.00  0.00    +0.000 C 
ATOM     34  N   UNL     1      -0.981  11.465  18.013  0.00  0.00    +0.000 N 
ATOM     35  O   UNL     1      -0.572  12.852  19.723  0.00  0.00    +0.000 OA
ATOM     36  H   UNL     1      -0.910  10.540  17.602  0.00  0.00    +0.000 HD
ATOM     37  H   UNL     1      -1.421  12.215  17.500  0.00  0.00    +0.000 HD
ENDBRANCH  28  33
ENDBRANCH  21  23
ENDBRANCH  20  21
ENDBRANCH   5  20
TORSDOF 5
ENDMDL
MODEL 2
REMARK VINA RESULT:     -10.4      1.275      1.358
REMARK  Name = 
REMARK  6 active torsions:
REMARK  status: ('A' for Active; 'I' for Inactive)
REMARK    1  A    between atoms: C_1  and  C_2
REMARK    2  A    between atoms: N_10  and  C_11
REMARK    3  A    between atoms: C_15  and  C_16
REMARK    4  A    between atoms: C_16  and  N_17
REMARK    5  A    between atoms: N_17  and  C_18
REMARK    6  A    between atoms: C_23  and  C_24
REMARK                            x       y       z     vdW  Elec       q    Type
REMARK                         _______ _______ _______ _____ _____    ______ ____
ROOT
ATOM      1  C   UNL     1       3.644   3.438  19.518  0.00  0.00    +0.000 A 
ATOM      2  C   UNL     1       3.309   2.315  20.283  0.00  0.00    +0.000 A 
ATOM      3  C   UNL     1       2.329   2.399  21.276  0.00  0.00    +0.000 A 
ATOM      4  C   UNL     1       1.636   3.593  21.483  0.00  0.00    +0.000 A 
ATOM      5  C   UNL     1       1.911   4.717  20.693  0.00  0.00    +0.000 A 
ATOM      6  C   UNL     1       2.932   4.629  19.733  0.00  0.00    +0.000 A 
ENDROOT
BRANCH   1  16
ATOM      7  C   UNL     1       5.179   3.562  13.230  0.00  0.00    +0.000 C 
ATOM      8  C   UNL     1       5.898   4.135  14.415  0.00  0.00    +0.000 A 
ATOM      9  C   UNL     1       6.998   4.977  14.244  0.00  0.00    +0.000 A 
ATOM     10  C   UNL     1       7.617   5.561  15.349  0.00  0.00    +0.000 A 
ATOM     11  C   UNL     1       7.144   5.322  16.650  0.00  0.00    +0.000 A 
ATOM     12  C   UNL     1       7.727   5.961  17.745  0.00  0.00    +0.000 A 
ATOM     13  C   UNL     1       7.209   5.725  19.001  0.00  0.00    +0.000 A 
ATOM     14  N   UNL     1       6.183   4.890  19.242  0.00  0.00    +0.000 NA
ATOM     15  C   UNL     1       5.612   4.258  18.189  0.00  0.00    +0.000 A 
ATOM     16  N   UNL     1       4.572   3.331  18.456  0.00  0.00    +0.000 N 
ATOM     17  C   UNL     1       6.056   4.446  16.856  0.00  0.00    +0.000 A 
ATOM     18  C   UNL     1       5.449   3.859  15.715  0.00  0.00    +0.000 A 
ATOM     19  H   UNL     1       4.952   2.397  18.355  0.00  0.00    +0.000 HD
ENDBRANCH   1  16
BRANCH   5  20
ATOM     20  C   UNL     1       1.132   6.004  20.862  0.00  0.00    +0.000 C 
BRANCH  20  21
ATOM     21  N   UNL     1       2.048   7.129  20.774  0.00  0.00    +0.000 N 
ATOM     22  H   UNL     1       2.406   7.380  21.691  0.00  0.00    +0.000 HD
BRANCH  21  23
ATOM     23  C   UNL     1       1.561   8.286  20.130  0.00  0.00    +0.000 A 
ATOM     24  N   UNL     1       1.870   8.493  18.841  0.00  0.00    +0.000 NA
ATOM     25  C   UNL     1       1.359   9.588  18.276  0.00  0.00    +0.000 A 
ATOM     26  N   UNL     1       0.554  10.484  18.864  0.00  0.00    +0.000 NA
ATOM     27  C   UNL     1       0.261  10.307  20.174  0.00  0.00    +0.000 A 
ATOM     28  C   UNL     1      -0.560  11.200  20.899  0.00  0.00    +0.000 A 
ATOM     29  C   UNL     1      -0.800  11.021  22.277  0.00  0.00    +0.000 A 
ATOM     30  C   UNL     1      -0.250   9.949  22.957  0.00  0.00    +0.000 A 
ATOM     31  C   UNL     1       0.527   9.040  22.255  0.00  0.00    +0.000 A 
ATOM     32  C   UNL     1       0.783   9.200  20.871  0.00  0.00    +0.000 A 
BRANCH  28  33
ATOM     33  C   UNL     1      -1.251  12.375  20.281  0.00  0.00    +0.000 C 
ATOM     34  N   UNL     1      -0.518  13.246  19.534  0.00  0.00    +0.000 N 
ATOM     35  O   UNL     1      -2.457  12.555  20.416  0.00  0.00    +0.000 OA
ATOM     36  H   UNL     1       0.482  13.122  19.416  0.00  0.00    +0.000 HD
ATOM     37  H   UNL     1      -0.986  14.029  19.099  0.00  0.00    +0.000 HD
ENDBRANCH  28  33
ENDBRANCH  21  23
ENDBRANCH  20  21
ENDBRANCH   5  20
TORSDOF 5
ENDMDL
MODEL 3
REMARK VINA RESULT:     -10.0      3.650      6.895
REMARK  Name = 
REMARK  6 active torsions:
REMARK  status: ('A' for Active; 'I' for Inactive)
REMARK    1  A    between atoms: C_1  and  C_2
REMARK    2  A    between atoms: N_10  and  C_11
REMARK    3  A    between atoms: C_15  and  C_16
REMARK    4  A    between atoms: C_16  and  N_17
REMARK    5  A    between atoms: N_17  and  C_18
REMARK    6  A    between atoms: C_23  and  C_24
REMARK                            x       y       z     vdW  Elec       q    Type
REMARK                         _______ _______ _______ _____ _____    ______ ____
ROOT
ATOM      1  C   UNL     1       0.849   9.229  21.970  0.00  0.00    +0.000 A 
ATOM      2  C   UNL     1      -0.177   9.090  22.910  0.00  0.00    +0.000 A 
ATOM      3  C   UNL     1      -0.989  10.178  23.241  0.00  0.00    +0.000 A 
ATOM      4  C   UNL     1      -0.820  11.406  22.598  0.00  0.00    +0.000 A 
ATOM      5  C   UNL     1       0.163  11.557  21.611  0.00  0.00    +0.000 A 
ATOM      6  C   UNL     1       1.002  10.469  21.327  0.00  0.00    +0.000 A 
ENDROOT
BRANCH   1  16
ATOM      7  C   UNL     1       1.825   2.847  21.502  0.00  0.00    +0.000 C 
ATOM      8  C   UNL     1       2.049   3.938  20.498  0.00  0.00    +0.000 A 
ATOM      9  C   UNL     1       2.371   3.634  19.174  0.00  0.00    +0.000 A 
ATOM     10  C   UNL     1       2.508   4.653  18.231  0.00  0.00    +0.000 A 
ATOM     11  C   UNL     1       2.320   5.998  18.590  0.00  0.00    +0.000 A 
ATOM     12  C   UNL     1       2.395   7.006  17.628  0.00  0.00    +0.000 A 
ATOM     13  C   UNL     1       2.169   8.310  18.017  0.00  0.00    +0.000 A 
ATOM     14  N   UNL     1       1.902   8.677  19.283  0.00  0.00    +0.000 NA
ATOM     15  C   UNL     1       1.833   7.709  20.228  0.00  0.00    +0.000 A 
ATOM     16  N   UNL     1       1.614   8.108  21.572  0.00  0.00    +0.000 N 
ATOM     17  C   UNL     1       2.030   6.337  19.930  0.00  0.00    +0.000 A 
ATOM     18  C   UNL     1       1.903   5.283  20.871  0.00  0.00    +0.000 A 
ATOM     19  H   UNL     1       2.495   8.033  22.068  0.00  0.00    +0.000 HD
ENDBRANCH   1  16
BRANCH   5  20
ATOM     20  C   UNL     1       0.326  12.862  20.862  0.00  0.00    +0.000 C 
BRANCH  20  21
ATOM     21  N   UNL     1      -0.402  12.784  19.606  0.00  0.00    +0.000 N 
ATOM     22  H   UNL     1      -0.099  13.510  18.963  0.00  0.00    +0.000 HD
BRANCH  21  23
ATOM     23  C   UNL     1      -1.810  12.794  19.694  0.00  0.00    +0.000 A 
ATOM     24  N   UNL     1      -2.406  13.684  20.501  0.00  0.00    +0.000 NA
ATOM     25  C   UNL     1      -3.739  13.668  20.522  0.00  0.00    +0.000 A 
ATOM     26  N   UNL     1      -4.536  12.865  19.802  0.00  0.00    +0.000 NA
ATOM     27  C   UNL     1      -3.949  11.939  19.009  0.00  0.00    +0.000 A 
ATOM     28  C   UNL     1      -4.690  11.028  18.223  0.00  0.00    +0.000 A 
ATOM     29  C   UNL     1      -4.052  10.036  17.451  0.00  0.00    +0.000 A 
ATOM     30  C   UNL     1      -2.671   9.939  17.427  0.00  0.00    +0.000 A 
ATOM     31  C   UNL     1      -1.924  10.847  18.161  0.00  0.00    +0.000 A 
ATOM     32  C   UNL     1      -2.545  11.851  18.945  0.00  0.00    +0.000 A 
BRANCH  28  33
ATOM     33  C   UNL     1      -6.183  11.048  18.123  0.00  0.00    +0.000 C 
ATOM     34  N   UNL     1      -6.774  11.986  17.331  0.00  0.00    +0.000 N 
ATOM     35  O   UNL     1      -6.878  10.230  18.719  0.00  0.00    +0.000 OA
ATOM     36  H   UNL     1      -6.220  12.677  16.837  0.00  0.00    +0.000 HD
ATOM     37  H   UNL     1      -7.781  11.988  17.247  0.00  0.00    +0.000 HD
ENDBRANCH  28  33
ENDBRANCH  21  23
ENDBRANCH  20  21
ENDBRANCH   5  20
TORSDOF 5
ENDMDL
MODEL 4
REMARK VINA RESULT:     -10.0      3.581      6.792
REMARK  Name = 
REMARK  6 active torsions:
REMARK  status: ('A' for Active; 'I' for Inactive)
REMARK    1  A    between atoms: C_1  and  C_2
REMARK    2  A    between atoms: N_10  and  C_11
REMARK    3  A    between atoms: C_15  and  C_16
REMARK    4  A    between atoms: C_16  and  N_17
REMARK    5  A    between atoms: N_17  and  C_18
REMARK    6  A    between atoms: C_23  and  C_24
REMARK                            x       y       z     vdW  Elec       q    Type
REMARK                         _______ _______ _______ _____ _____    ______ ____
ROOT
ATOM      1  C   UNL     1       0.937   9.086  21.898  0.00  0.00    +0.000 A 
ATOM      2  C   UNL     1      -0.016   9.055  22.922  0.00  0.00    +0.000 A 
ATOM      3  C   UNL     1      -0.789  10.185  23.207  0.00  0.00    +0.000 A 
ATOM      4  C   UNL     1      -0.654  11.342  22.439  0.00  0.00    +0.000 A 
ATOM      5  C   UNL     1       0.252  11.382  21.372  0.00  0.00    +0.000 A 
ATOM      6  C   UNL     1       1.055  10.256  21.131  0.00  0.00    +0.000 A 
ENDROOT
BRANCH   1  16
ATOM      7  C   UNL     1       1.594   2.653  21.600  0.00  0.00    +0.000 C 
ATOM      8  C   UNL     1       1.912   3.708  20.582  0.00  0.00    +0.000 A 
ATOM      9  C   UNL     1       2.267   3.358  19.279  0.00  0.00    +0.000 A 
ATOM     10  C   UNL     1       2.493   4.347  18.321  0.00  0.00    +0.000 A 
ATOM     11  C   UNL     1       2.362   5.708  18.645  0.00  0.00    +0.000 A 
ATOM     12  C   UNL     1       2.526   6.689  17.666  0.00  0.00    +0.000 A 
ATOM     13  C   UNL     1       2.354   8.011  18.019  0.00  0.00    +0.000 A 
ATOM     14  N   UNL     1       2.059   8.419  19.266  0.00  0.00    +0.000 NA
ATOM     15  C   UNL     1       1.904   7.478  20.228  0.00  0.00    +0.000 A 
ATOM     16  N   UNL     1       1.656   7.918  21.553  0.00  0.00    +0.000 N 
ATOM     17  C   UNL     1       2.040   6.091  19.965  0.00  0.00    +0.000 A 
ATOM     18  C   UNL     1       1.823   5.066  20.922  0.00  0.00    +0.000 A 
ATOM     19  H   UNL     1       2.513   7.809  22.085  0.00  0.00    +0.000 HD
ENDBRANCH   1  16
BRANCH   5  20
ATOM     20  C   UNL     1       0.373  12.607  20.491  0.00  0.00    +0.000 C 
BRANCH  20  21
ATOM     21  N   UNL     1      -0.926  13.254  20.394  0.00  0.00    +0.000 N 
ATOM     22  H   UNL     1      -1.356  13.347  21.309  0.00  0.00    +0.000 HD
BRANCH  21  23
ATOM     23  C   UNL     1      -1.850  12.674  19.500  0.00  0.00    +0.000 A 
ATOM     24  N   UNL     1      -1.421  12.251  18.302  0.00  0.00    +0.000 NA
ATOM     25  C   UNL     1      -2.332  11.685  17.510  0.00  0.00    +0.000 A 
ATOM     26  N   UNL     1      -3.625  11.482  17.803  0.00  0.00    +0.000 NA
ATOM     27  C   UNL     1      -4.081  11.936  18.994  0.00  0.00    +0.000 A 
ATOM     28  C   UNL     1      -5.427  11.794  19.399  0.00  0.00    +0.000 A 
ATOM     29  C   UNL     1      -5.886  12.328  20.620  0.00  0.00    +0.000 A 
ATOM     30  C   UNL     1      -5.020  12.991  21.472  0.00  0.00    +0.000 A 
ATOM     31  C   UNL     1      -3.686  13.107  21.111  0.00  0.00    +0.000 A 
ATOM     32  C   UNL     1      -3.203  12.580  19.888  0.00  0.00    +0.000 A 
BRANCH  28  33
ATOM     33  C   UNL     1      -6.459  11.064  18.597  0.00  0.00    +0.000 C 
ATOM     34  N   UNL     1      -6.861  11.595  17.409  0.00  0.00    +0.000 N 
ATOM     35  O   UNL     1      -6.930   9.996  18.976  0.00  0.00    +0.000 OA
ATOM     36  H   UNL     1      -6.492  12.481  17.080  0.00  0.00    +0.000 HD
ATOM     37  H   UNL     1      -7.542  11.094  16.857  0.00  0.00    +0.000 HD
ENDBRANCH  28  33
ENDBRANCH  21  23
ENDBRANCH  20  21
ENDBRANCH   5  20
TORSDOF 5
ENDMDL
MODEL 5
REMARK VINA RESULT:     -10.0      3.700     10.170
REMARK  Name = 
REMARK  6 active torsions:
REMARK  status: ('A' for Active; 'I' for Inactive)
REMARK    1  A    between atoms: C_1  and  C_2
REMARK    2  A    between atoms: N_10  and  C_11
REMARK    3  A    between atoms: C_15  and  C_16
REMARK    4  A    between atoms: C_16  and  N_17
REMARK    5  A    between atoms: N_17  and  C_18
REMARK    6  A    between atoms: C_23  and  C_24
REMARK                            x       y       z     vdW  Elec       q    Type
REMARK                         _______ _______ _______ _____ _____    ______ ____
ROOT
ATOM      1  C   UNL     1      -0.279  11.093  18.826  0.00  0.00    +0.000 A 
ATOM      2  C   UNL     1       0.392  12.320  18.867  0.00  0.00    +0.000 A 
ATOM      3  C   UNL     1       1.753  12.396  18.558  0.00  0.00    +0.000 A 
ATOM      4  C   UNL     1       2.449  11.255  18.154  0.00  0.00    +0.000 A 
ATOM      5  C   UNL     1       1.788  10.024  18.049  0.00  0.00    +0.000 A 
ATOM      6  C   UNL     1       0.433   9.956  18.411  0.00  0.00    +0.000 A 
ENDROOT
BRANCH   1  16
ATOM      7  C   UNL     1      -5.780  13.443  21.301  0.00  0.00    +0.000 C 
ATOM      8  C   UNL     1      -5.504  12.830  19.960  0.00  0.00    +0.000 A 
ATOM      9  C   UNL     1      -6.468  12.857  18.952  0.00  0.00    +0.000 A 
ATOM     10  C   UNL     1      -6.178  12.348  17.685  0.00  0.00    +0.000 A 
ATOM     11  C   UNL     1      -4.914  11.808  17.398  0.00  0.00    +0.000 A 
ATOM     12  C   UNL     1      -4.609  11.360  16.112  0.00  0.00    +0.000 A 
ATOM     13  C   UNL     1      -3.344  10.869  15.865  0.00  0.00    +0.000 A 
ATOM     14  N   UNL     1      -2.384  10.771  16.802  0.00  0.00    +0.000 NA
ATOM     15  C   UNL     1      -2.668  11.196  18.056  0.00  0.00    +0.000 A 
ATOM     16  N   UNL     1      -1.673  11.031  19.054  0.00  0.00    +0.000 N 
ATOM     17  C   UNL     1      -3.931  11.735  18.410  0.00  0.00    +0.000 A 
ATOM     18  C   UNL     1      -4.254  12.252  19.691  0.00  0.00    +0.000 A 
ATOM     19  H   UNL     1      -1.945  10.249  19.640  0.00  0.00    +0.000 HD
ENDBRANCH   1  16
BRANCH   5  20
ATOM     20  C   UNL     1       2.509   8.787  17.559  0.00  0.00    +0.000 C 
BRANCH  20  21
ATOM     21  N   UNL     1       2.366   7.730  18.547  0.00  0.00    +0.000 N 
ATOM     22  H   UNL     1       2.560   8.077  19.482  0.00  0.00    +0.000 HD
BRANCH  21  23
ATOM     23  C   UNL     1       3.111   6.554  18.320  0.00  0.00    +0.000 A 
ATOM     24  N   UNL     1       3.980   6.518  17.300  0.00  0.00    +0.000 NA
ATOM     25  C   UNL     1       4.677   5.391  17.151  0.00  0.00    +0.000 A 
ATOM     26  N   UNL     1       4.607   4.304  17.932  0.00  0.00    +0.000 NA
ATOM     27  C   UNL     1       3.709   4.311  18.945  0.00  0.00    +0.000 A 
ATOM     28  C   UNL     1       3.536   3.213  19.818  0.00  0.00    +0.000 A 
ATOM     29  C   UNL     1       2.553   3.227  20.828  0.00  0.00    +0.000 A 
ATOM     30  C   UNL     1       1.739   4.332  21.007  0.00  0.00    +0.000 A 
ATOM     31  C   UNL     1       1.918   5.435  20.186  0.00  0.00    +0.000 A 
ATOM     32  C   UNL     1       2.899   5.442  19.164  0.00  0.00    +0.000 A 
BRANCH  28  33
ATOM     33  C   UNL     1       4.374   1.975  19.765  0.00  0.00    +0.000 C 
ATOM     34  N   UNL     1       4.257   1.151  18.688  0.00  0.00    +0.000 N 
ATOM     35  O   UNL     1       5.173   1.701  20.656  0.00  0.00    +0.000 OA
ATOM     36  H   UNL     1       3.597   1.353  17.944  0.00  0.00    +0.000 HD
ATOM     37  H   UNL     1       4.837   0.325  18.640  0.00  0.00    +0.000 HD
ENDBRANCH  28  33
ENDBRANCH  21  23
ENDBRANCH  20  21
ENDBRANCH   5  20
TORSDOF 5
ENDMDL
MODEL 6
REMARK VINA RESULT:      -9.8      1.476      2.183
REMARK  Name = 
REMARK  6 active torsions:
REMARK  status: ('A' for Active; 'I' for Inactive)
REMARK    1  A    between atoms: C_1  and  C_2
REMARK    2  A    between atoms: N_10  and  C_11
REMARK    3  A    between atoms: C_15  and  C_16
REMARK    4  A    between atoms: C_16  and  N_17
REMARK    5  A    between atoms: N_17  and  C_18
REMARK    6  A    between atoms: C_23  and  C_24
REMARK                            x       y       z     vdW  Elec       q    Type
REMARK                         _______ _______ _______ _____ _____    ______ ____
ROOT
ATOM      1  C   UNL     1       3.550   3.362  19.464  0.00  0.00    +0.000 A 
ATOM      2  C   UNL     1       3.242   2.233  20.231  0.00  0.00    +0.000 A 
ATOM      3  C   UNL     1       2.241   2.288  21.205  0.00  0.00    +0.000 A 
ATOM      4  C   UNL     1       1.499   3.457  21.389  0.00  0.00    +0.000 A 
ATOM      5  C   UNL     1       1.748   4.584  20.595  0.00  0.00    +0.000 A 
ATOM      6  C   UNL     1       2.790   4.527  19.656  0.00  0.00    +0.000 A 
ENDROOT
BRANCH   1  16
ATOM      7  C   UNL     1       5.217   3.604  13.213  0.00  0.00    +0.000 C 
ATOM      8  C   UNL     1       5.905   4.165  14.423  0.00  0.00    +0.000 A 
ATOM      9  C   UNL     1       6.999   5.020  14.288  0.00  0.00    +0.000 A 
ATOM     10  C   UNL     1       7.589   5.593  15.416  0.00  0.00    +0.000 A 
ATOM     11  C   UNL     1       7.090   5.328  16.703  0.00  0.00    +0.000 A 
ATOM     12  C   UNL     1       7.643   5.955  17.820  0.00  0.00    +0.000 A 
ATOM     13  C   UNL     1       7.101   5.693  19.061  0.00  0.00    +0.000 A 
ATOM     14  N   UNL     1       6.078   4.844  19.266  0.00  0.00    +0.000 NA
ATOM     15  C   UNL     1       5.537   4.223  18.191  0.00  0.00    +0.000 A 
ATOM     16  N   UNL     1       4.501   3.282  18.421  0.00  0.00    +0.000 N 
ATOM     17  C   UNL     1       6.007   4.438  16.871  0.00  0.00    +0.000 A 
ATOM     18  C   UNL     1       5.431   3.863  15.708  0.00  0.00    +0.000 A 
ATOM     19  H   UNL     1       4.893   2.353  18.312  0.00  0.00    +0.000 HD
ENDBRANCH   1  16
BRANCH   5  20
ATOM     20  C   UNL     1       0.918   5.842  20.739  0.00  0.00    +0.000 C 
BRANCH  20  21
ATOM     21  N   UNL     1       1.785   6.941  21.132  0.00  0.00    +0.000 N 
ATOM     22  H   UNL     1       2.205   6.766  22.039  0.00  0.00    +0.000 HD
BRANCH  21  23
ATOM     23  C   UNL     1       1.209   8.229  21.123  0.00  0.00    +0.000 A 
ATOM     24  N   UNL     1       0.524   8.644  22.198  0.00  0.00    +0.000 NA
ATOM     25  C   UNL     1       0.027   9.881  22.145  0.00  0.00    +0.000 A 
ATOM     26  N   UNL     1       0.164  10.750  21.134  0.00  0.00    +0.000 NA
ATOM     27  C   UNL     1       0.823  10.334  20.028  0.00  0.00    +0.000 A 
ATOM     28  C   UNL     1       1.010  11.158  18.895  0.00  0.00    +0.000 A 
ATOM     29  C   UNL     1       1.650  10.677  17.735  0.00  0.00    +0.000 A 
ATOM     30  C   UNL     1       2.135   9.382  17.681  0.00  0.00    +0.000 A 
ATOM     31  C   UNL     1       1.996   8.569  18.795  0.00  0.00    +0.000 A 
ATOM     32  C   UNL     1       1.355   9.031  19.971  0.00  0.00    +0.000 A 
BRANCH  28  33
ATOM     33  C   UNL     1       0.574  12.588  18.834  0.00  0.00    +0.000 C 
ATOM     34  N   UNL     1      -0.751  12.875  18.958  0.00  0.00    +0.000 N 
ATOM     35  O   UNL     1       1.383  13.501  18.694  0.00  0.00    +0.000 OA
ATOM     36  H   UNL     1      -1.439  12.136  19.065  0.00  0.00    +0.000 HD
ATOM     37  H   UNL     1      -1.045  13.841  18.937  0.00  0.00    +0.000 HD
ENDBRANCH  28  33
ENDBRANCH  21  23
ENDBRANCH  20  21
ENDBRANCH   5  20
TORSDOF 5
ENDMDL
MODEL 7
REMARK VINA RESULT:      -9.7      1.119      1.894
REMARK  Name = 
REMARK  6 active torsions:
REMARK  status: ('A' for Active; 'I' for Inactive)
REMARK    1  A    between atoms: C_1  and  C_2
REMARK    2  A    between atoms: N_10  and  C_11
REMARK    3  A    between atoms: C_15  and  C_16
REMARK    4  A    between atoms: C_16  and  N_17
REMARK    5  A    between atoms: N_17  and  C_18
REMARK    6  A    between atoms: C_23  and  C_24
REMARK                            x       y       z     vdW  Elec       q    Type
REMARK                         _______ _______ _______ _____ _____    ______ ____
ROOT
ATOM      1  C   UNL     1       3.083   3.048  18.302  0.00  0.00    +0.000 A 
ATOM      2  C   UNL     1       2.005   2.181  18.092  0.00  0.00    +0.000 A 
ATOM      3  C   UNL     1       0.860   2.266  18.889  0.00  0.00    +0.000 A 
ATOM      4  C   UNL     1       0.758   3.251  19.873  0.00  0.00    +0.000 A 
ATOM      5  C   UNL     1       1.799   4.168  20.067  0.00  0.00    +0.000 A 
ATOM      6  C   UNL     1       2.962   4.038  19.291  0.00  0.00    +0.000 A 
ENDROOT
BRANCH   1  16
ATOM      7  C   UNL     1       5.794   3.389  12.433  0.00  0.00    +0.000 C 
ATOM      8  C   UNL     1       6.231   3.982  13.739  0.00  0.00    +0.000 A 
ATOM      9  C   UNL     1       7.287   4.894  13.790  0.00  0.00    +0.000 A 
ATOM     10  C   UNL     1       7.641   5.495  14.999  0.00  0.00    +0.000 A 
ATOM     11  C   UNL     1       6.942   5.202  16.181  0.00  0.00    +0.000 A 
ATOM     12  C   UNL     1       7.260   5.855  17.373  0.00  0.00    +0.000 A 
ATOM     13  C   UNL     1       6.525   5.563  18.503  0.00  0.00    +0.000 A 
ATOM     14  N   UNL     1       5.528   4.661  18.534  0.00  0.00    +0.000 NA
ATOM     15  C   UNL     1       5.214   4.015  17.386  0.00  0.00    +0.000 A 
ATOM     16  N   UNL     1       4.204   3.019  17.440  0.00  0.00    +0.000 N 
ATOM     17  C   UNL     1       5.894   4.256  16.165  0.00  0.00    +0.000 A 
ATOM     18  C   UNL     1       5.558   3.654  14.925  0.00  0.00    +0.000 A 
ATOM     19  H   UNL     1       4.657   2.112  17.407  0.00  0.00    +0.000 HD
ENDBRANCH   1  16
BRANCH   5  20
ATOM     20  C   UNL     1       1.686   5.278  21.089  0.00  0.00    +0.000 C 
BRANCH  20  21
ATOM     21  N   UNL     1       2.226   6.503  20.523  0.00  0.00    +0.000 N 
ATOM     22  H   UNL     1       3.178   6.662  20.839  0.00  0.00    +0.000 HD
BRANCH  21  23
ATOM     23  C   UNL     1       1.466   7.675  20.720  0.00  0.00    +0.000 A 
ATOM     24  N   UNL     1       0.715   7.787  21.826  0.00  0.00    +0.000 NA
ATOM     25  C   UNL     1       0.042   8.928  21.974  0.00  0.00    +0.000 A 
ATOM     26  N   UNL     1       0.059   9.977  21.139  0.00  0.00    +0.000 NA
ATOM     27  C   UNL     1       0.785   9.866  20.001  0.00  0.00    +0.000 A 
ATOM     28  C   UNL     1       0.860  10.899  19.040  0.00  0.00    +0.000 A 
ATOM     29  C   UNL     1       1.577  10.733  17.838  0.00  0.00    +0.000 A 
ATOM     30  C   UNL     1       2.249   9.552  17.574  0.00  0.00    +0.000 A 
ATOM     31  C   UNL     1       2.220   8.540  18.521  0.00  0.00    +0.000 A 
ATOM     32  C   UNL     1       1.505   8.685  19.735  0.00  0.00    +0.000 A 
BRANCH  28  33
ATOM     33  C   UNL     1       0.218  12.240  19.217  0.00  0.00    +0.000 C 
ATOM     34  N   UNL     1       0.557  12.989  20.302  0.00  0.00    +0.000 N 
ATOM     35  O   UNL     1      -0.585  12.680  18.400  0.00  0.00    +0.000 OA
ATOM     36  H   UNL     1       1.212  12.641  20.995  0.00  0.00    +0.000 HD
ATOM     37  H   UNL     1       0.140  13.903  20.413  0.00  0.00    +0.000 HD
ENDBRANCH  28  33
ENDBRANCH  21  23
ENDBRANCH  20  21
ENDBRANCH   5  20
TORSDOF 5
ENDMDL
MODEL 8
REMARK VINA RESULT:      -9.7      3.686     10.360
REMARK  Name = 
REMARK  6 active torsions:
REMARK  status: ('A' for Active; 'I' for Inactive)
REMARK    1  A    between atoms: C_1  and  C_2
REMARK    2  A    between atoms: N_10  and  C_11
REMARK    3  A    between atoms: C_15  and  C_16
REMARK    4  A    between atoms: C_16  and  N_17
REMARK    5  A    between atoms: N_17  and  C_18
REMARK    6  A    between atoms: C_23  and  C_24
REMARK                            x       y       z     vdW  Elec       q    Type
REMARK                         _______ _______ _______ _____ _____    ______ ____
ROOT
ATOM      1  C   UNL     1      -0.349  12.001  18.747  0.00  0.00    +0.000 A 
ATOM      2  C   UNL     1       0.747  12.865  18.652  0.00  0.00    +0.000 A 
ATOM      3  C   UNL     1       2.028  12.364  18.401  0.00  0.00    +0.000 A 
ATOM      4  C   UNL     1       2.220  10.997  18.190  0.00  0.00    +0.000 A 
ATOM      5  C   UNL     1       1.132  10.116  18.223  0.00  0.00    +0.000 A 
ATOM      6  C   UNL     1      -0.139  10.630  18.525  0.00  0.00    +0.000 A 
ENDROOT
BRANCH   1  16
ATOM      7  C   UNL     1      -6.769  11.661  17.990  0.00  0.00    +0.000 C 
ATOM      8  C   UNL     1      -5.953  12.078  19.178  0.00  0.00    +0.000 A 
ATOM      9  C   UNL     1      -6.558  12.302  20.415  0.00  0.00    +0.000 A 
ATOM     10  C   UNL     1      -5.784  12.621  21.531  0.00  0.00    +0.000 A 
ATOM     11  C   UNL     1      -4.385  12.715  21.434  0.00  0.00    +0.000 A 
ATOM     12  C   UNL     1      -3.612  12.970  22.567  0.00  0.00    +0.000 A 
ATOM     13  C   UNL     1      -2.240  13.020  22.434  0.00  0.00    +0.000 A 
ATOM     14  N   UNL     1      -1.596  12.861  21.264  0.00  0.00    +0.000 NA
ATOM     15  C   UNL     1      -2.335  12.619  20.155  0.00  0.00    +0.000 A 
ATOM     16  N   UNL     1      -1.655  12.515  18.914  0.00  0.00    +0.000 N 
ATOM     17  C   UNL     1      -3.750  12.529  20.187  0.00  0.00    +0.000 A 
ATOM     18  C   UNL     1      -4.561  12.214  19.067  0.00  0.00    +0.000 A 
ATOM     19  H   UNL     1      -1.812  13.374  18.399  0.00  0.00    +0.000 HD
ENDBRANCH   1  16
BRANCH   5  20
ATOM     20  C   UNL     1       1.311   8.640  17.941  0.00  0.00    +0.000 C 
BRANCH  20  21
ATOM     21  N   UNL     1       2.247   8.082  18.904  0.00  0.00    +0.000 N 
ATOM     22  H   UNL     1       2.917   8.781  19.208  0.00  0.00    +0.000 HD
BRANCH  21  23
ATOM     23  C   UNL     1       2.934   6.915  18.507  0.00  0.00    +0.000 A 
ATOM     24  N   UNL     1       3.796   6.984  17.482  0.00  0.00    +0.000 NA
ATOM     25  C   UNL     1       4.439   5.858  17.170  0.00  0.00    +0.000 A 
ATOM     26  N   UNL     1       4.322   4.676  17.793  0.00  0.00    +0.000 NA
ATOM     27  C   UNL     1       3.431   4.583  18.807  0.00  0.00    +0.000 A 
ATOM     28  C   UNL     1       3.211   3.383  19.521  0.00  0.00    +0.000 A 
ATOM     29  C   UNL     1       2.235   3.301  20.535  0.00  0.00    +0.000 A 
ATOM     30  C   UNL     1       1.474   4.406  20.874  0.00  0.00    +0.000 A 
ATOM     31  C   UNL     1       1.701   5.603  20.213  0.00  0.00    +0.000 A 
ATOM     32  C   UNL     1       2.676   5.708  19.190  0.00  0.00    +0.000 A 
BRANCH  28  33
ATOM     33  C   UNL     1       3.991   2.127  19.287  0.00  0.00    +0.000 C 
ATOM     34  N   UNL     1       5.098   1.893  20.044  0.00  0.00    +0.000 N 
ATOM     35  O   UNL     1       3.644   1.303  18.446  0.00  0.00    +0.000 OA
ATOM     36  H   UNL     1       5.408   2.565  20.739  0.00  0.00    +0.000 HD
ATOM     37  H   UNL     1       5.614   1.037  19.901  0.00  0.00    +0.000 HD
ENDBRANCH  28  33
ENDBRANCH  21  23
ENDBRANCH  20  21
ENDBRANCH   5  20
TORSDOF 5
ENDMDL
MODEL 9
REMARK VINA RESULT:      -9.6      3.743     10.596
REMARK  Name = 
REMARK  6 active torsions:
REMARK  status: ('A' for Active; 'I' for Inactive)
REMARK    1  A    between atoms: C_1  and  C_2
REMARK    2  A    between atoms: N_10  and  C_11
REMARK    3  A    between atoms: C_15  and  C_16
REMARK    4  A    between atoms: C_16  and  N_17
REMARK    5  A    between atoms: N_17  and  C_18
REMARK    6  A    between atoms: C_23  and  C_24
REMARK                            x       y       z     vdW  Elec       q    Type
REMARK                         _______ _______ _______ _____ _____    ______ ____
ROOT
ATOM      1  C   UNL     1      -0.546  12.207  18.846  0.00  0.00    +0.000 A 
ATOM      2  C   UNL     1       0.531  13.098  18.787  0.00  0.00    +0.000 A 
ATOM      3  C   UNL     1       1.822  12.633  18.520  0.00  0.00    +0.000 A 
ATOM      4  C   UNL     1       2.045  11.280  18.258  0.00  0.00    +0.000 A 
ATOM      5  C   UNL     1       0.976  10.376  18.255  0.00  0.00    +0.000 A 
ATOM      6  C   UNL     1      -0.306  10.850  18.573  0.00  0.00    +0.000 A 
ENDROOT
BRANCH   1  16
ATOM      7  C   UNL     1      -6.949  11.810  17.979  0.00  0.00    +0.000 C 
ATOM      8  C   UNL     1      -6.156  12.160  19.203  0.00  0.00    +0.000 A 
ATOM      9  C   UNL     1      -6.781  12.290  20.444  0.00  0.00    +0.000 A 
ATOM     10  C   UNL     1      -6.026  12.546  21.590  0.00  0.00    +0.000 A 
ATOM     11  C   UNL     1      -4.629  12.670  21.519  0.00  0.00    +0.000 A 
ATOM     12  C   UNL     1      -3.875  12.861  22.677  0.00  0.00    +0.000 A 
ATOM     13  C   UNL     1      -2.502  12.943  22.567  0.00  0.00    +0.000 A 
ATOM     14  N   UNL     1      -1.841  12.874  21.398  0.00  0.00    +0.000 NA
ATOM     15  C   UNL     1      -2.561  12.695  20.265  0.00  0.00    +0.000 A 
ATOM     16  N   UNL     1      -1.864  12.687  19.029  0.00  0.00    +0.000 N 
ATOM     17  C   UNL     1      -3.974  12.580  20.271  0.00  0.00    +0.000 A 
ATOM     18  C   UNL     1      -4.766  12.326  19.121  0.00  0.00    +0.000 A 
ATOM     19  H   UNL     1      -2.030  13.576  18.570  0.00  0.00    +0.000 HD
ENDBRANCH   1  16
BRANCH   5  20
ATOM     20  C   UNL     1       1.186   8.915  17.918  0.00  0.00    +0.000 C 
BRANCH  20  21
ATOM     21  N   UNL     1       2.481   8.491  18.425  0.00  0.00    +0.000 N 
ATOM     22  H   UNL     1       3.199   8.581  17.713  0.00  0.00    +0.000 HD
BRANCH  21  23
ATOM     23  C   UNL     1       2.542   7.200  18.990  0.00  0.00    +0.000 A 
ATOM     24  N   UNL     1       1.873   6.953  20.126  0.00  0.00    +0.000 NA
ATOM     25  C   UNL     1       1.943   5.708  20.598  0.00  0.00    +0.000 A 
ATOM     26  N   UNL     1       2.598   4.681  20.039  0.00  0.00    +0.000 NA
ATOM     27  C   UNL     1       3.307   4.923  18.911  0.00  0.00    +0.000 A 
ATOM     28  C   UNL     1       4.051   3.921  18.248  0.00  0.00    +0.000 A 
ATOM     29  C   UNL     1       4.826   4.216  17.108  0.00  0.00    +0.000 A 
ATOM     30  C   UNL     1       4.864   5.499  16.592  0.00  0.00    +0.000 A 
ATOM     31  C   UNL     1       4.111   6.489  17.205  0.00  0.00    +0.000 A 
ATOM     32  C   UNL     1       3.326   6.215  18.352  0.00  0.00    +0.000 A 
BRANCH  28  33
ATOM     33  C   UNL     1       4.065   2.486  18.672  0.00  0.00    +0.000 C 
ATOM     34  N   UNL     1       4.822   2.128  19.746  0.00  0.00    +0.000 N 
ATOM     35  O   UNL     1       3.399   1.636  18.088  0.00  0.00    +0.000 OA
ATOM     36  H   UNL     1       5.389   2.812  20.238  0.00  0.00    +0.000 HD
ATOM     37  H   UNL     1       4.818   1.163  20.046  0.00  0.00    +0.000 HD
ENDBRANCH  28  33
ENDBRANCH  21  23
ENDBRANCH  20  21
ENDBRANCH   5  20
TORSDOF 5
ENDMDL
