MODEL 1
REMARK VINA RESULT:      -8.5      0.000      0.000
REMARK  Name = 
REMARK  3 active torsions:
REMARK  status: ('A' for Active; 'I' for Inactive)
REMARK    1  A    between atoms: C_2  and  C_14
REMARK    2  A    between atoms: N_3  and  C_4
REMARK    3  A    between atoms: C_4  and  C_5
REMARK                            x       y       z     vdW  Elec       q    Type
REMARK                         _______ _______ _______ _____ _____    ______ ____
ROOT
ATOM      1  C   UNL     1       0.552   9.261  20.292  0.00  0.00    +0.000 C 
ATOM      2  C   UNL     1       0.710  10.191  19.079  0.00  0.00    +0.000 C 
ATOM      3  C   UNL     1       1.188   9.439  17.829  0.00  0.00    +0.000 C 
ATOM      4  C   UNL     1       2.416   8.569  18.111  0.00  0.00    +0.000 C 
ATOM      5  N   UNL     1       2.106   7.700  19.240  0.00  0.00    +0.000 N 
ATOM      6  C   UNL     1       2.353   6.359  19.177  0.00  0.00    +0.000 A 
ATOM      7  N   UNL     1       2.934   5.770  18.150  0.00  0.00    +0.000 NA
ATOM      8  C   UNL     1       3.021   4.404  18.354  0.00  0.00    +0.000 A 
ATOM      9  C   UNL     1       3.585   3.436  17.505  0.00  0.00    +0.000 A 
ATOM     10  C   UNL     1       3.551   2.103  17.921  0.00  0.00    +0.000 A 
ATOM     11  C   UNL     1       2.970   1.792  19.141  0.00  0.00    +0.000 A 
ATOM     12  N   UNL     1       2.417   2.679  19.993  0.00  0.00    +0.000 NA
ATOM     13  C   UNL     1       2.478   3.957  19.548  0.00  0.00    +0.000 A 
ATOM     14  S   UNL     1       1.859   5.257  20.429  0.00  0.00    +0.000 S 
ATOM     15  C   UNL     1       1.808   8.403  20.486  0.00  0.00    +0.000 C 
ENDROOT
BRANCH   1  17
ATOM     16  O   UNL     1       0.710   9.658  22.673  0.00  0.00    +0.000 OA
ATOM     17  C   UNL     1       0.298  10.035  21.578  0.00  0.00    +0.000 C 
ATOM     18  N   UNL     1      -0.450  11.177  21.426  0.00  0.00    +0.000 N 
ATOM     19  H   UNL     1      -0.777  11.452  20.510  0.00  0.00    +0.000 HD
BRANCH  18  20
ATOM     20  C   UNL     1      -0.783  12.019  22.551  0.00  0.00    +0.000 C 
BRANCH  20  21
ATOM     21  C   UNL     1      -2.252  12.351  22.554  0.00  0.00    +0.000 A 
ATOM     22  C   UNL     1      -2.857  12.904  21.401  0.00  0.00    +0.000 A 
ATOM     23  C   UNL     1      -4.218  13.223  21.383  0.00  0.00    +0.000 A 
ATOM     24  C   UNL     1      -4.948  12.971  22.523  0.00  0.00    +0.000 A 
ATOM     25  C   UNL     1      -4.372  12.420  23.643  0.00  0.00    +0.000 A 
ATOM     26  C   UNL     1      -3.033  12.094  23.692  0.00  0.00    +0.000 A 
ATOM     27  O   UNL     1      -5.264  12.250  24.656  0.00  0.00    +0.000 OA
ATOM     28  C   UNL     1      -6.461  12.784  24.054  0.00  0.00    +0.000 C 
ATOM     29  O   UNL     1      -6.274  13.221  22.692  0.00  0.00    +0.000 OA
ENDBRANCH  20  21
ENDBRANCH  18  20
ENDBRANCH   1  17
TORSDOF 3
ENDMDL
MODEL 2
REMARK VINA RESULT:      -8.5      3.451      4.958
REMARK  Name = 
REMARK  3 active torsions:
REMARK  status: ('A' for Active; 'I' for Inactive)
REMARK    1  A    between atoms: C_2  and  C_14
REMARK    2  A    between atoms: N_3  and  C_4
REMARK    3  A    between atoms: C_4  and  C_5
REMARK                            x       y       z     vdW  Elec       q    Type
REMARK                         _______ _______ _______ _____ _____    ______ ____
ROOT
ATOM      1  C   UNL     1       2.057   6.895  20.348  0.00  0.00    +0.000 C 
ATOM      2  C   UNL     1       1.164   5.732  20.810  0.00  0.00    +0.000 C 
ATOM      3  C   UNL     1       1.560   4.401  20.158  0.00  0.00    +0.000 C 
ATOM      4  C   UNL     1       1.691   4.518  18.636  0.00  0.00    +0.000 C 
ATOM      5  N   UNL     1       2.607   5.614  18.343  0.00  0.00    +0.000 N 
ATOM      6  C   UNL     1       3.638   5.447  17.465  0.00  0.00    +0.000 A 
ATOM      7  N   UNL     1       3.843   4.338  16.781  0.00  0.00    +0.000 NA
ATOM      8  C   UNL     1       4.978   4.448  15.998  0.00  0.00    +0.000 A 
ATOM      9  C   UNL     1       5.521   3.494  15.120  0.00  0.00    +0.000 A 
ATOM     10  C   UNL     1       6.692   3.827  14.434  0.00  0.00    +0.000 A 
ATOM     11  C   UNL     1       7.263   5.073  14.645  0.00  0.00    +0.000 A 
ATOM     12  N   UNL     1       6.785   6.025  15.472  0.00  0.00    +0.000 NA
ATOM     13  C   UNL     1       5.650   5.655  16.110  0.00  0.00    +0.000 A 
ATOM     14  S   UNL     1       4.849   6.667  17.199  0.00  0.00    +0.000 S 
ATOM     15  C   UNL     1       2.162   6.923  18.818  0.00  0.00    +0.000 C 
ENDROOT
BRANCH   1  17
ATOM     16  O   UNL     1       1.432   8.544  22.003  0.00  0.00    +0.000 OA
ATOM     17  C   UNL     1       1.529   8.244  20.815  0.00  0.00    +0.000 C 
ATOM     18  N   UNL     1       1.145   9.093  19.806  0.00  0.00    +0.000 N 
ATOM     19  H   UNL     1       1.233   8.809  18.840  0.00  0.00    +0.000 HD
BRANCH  18  20
ATOM     20  C   UNL     1       0.616  10.409  20.085  0.00  0.00    +0.000 C 
BRANCH  20  21
ATOM     21  C   UNL     1      -0.598  10.687  19.239  0.00  0.00    +0.000 A 
ATOM     22  C   UNL     1      -1.558  11.635  19.666  0.00  0.00    +0.000 A 
ATOM     23  C   UNL     1      -2.694  11.906  18.898  0.00  0.00    +0.000 A 
ATOM     24  C   UNL     1      -2.840  11.224  17.710  0.00  0.00    +0.000 A 
ATOM     25  C   UNL     1      -1.906  10.312  17.280  0.00  0.00    +0.000 A 
ATOM     26  C   UNL     1      -0.775  10.024  18.014  0.00  0.00    +0.000 A 
ATOM     27  O   UNL     1      -2.236   9.755  16.085  0.00  0.00    +0.000 OA
ATOM     28  C   UNL     1      -3.500  10.399  15.825  0.00  0.00    +0.000 C 
ATOM     29  O   UNL     1      -3.878  11.352  16.841  0.00  0.00    +0.000 OA
ENDBRANCH  20  21
ENDBRANCH  18  20
ENDBRANCH   1  17
TORSDOF 3
ENDMDL
MODEL 3
REMARK VINA RESULT:      -8.4      3.262      4.629
REMARK  Name = 
REMARK  3 active torsions:
REMARK  status: ('A' for Active; 'I' for Inactive)
REMARK    1  A    between atoms: C_2  and  C_14
REMARK    2  A    between atoms: N_3  and  C_4
REMARK    3  A    between atoms: C_4  and  C_5
REMARK                            x       y       z     vdW  Elec       q    Type
REMARK                         _______ _______ _______ _____ _____    ______ ____
ROOT
ATOM      1  C   UNL     1       2.056   7.119  20.340  0.00  0.00    +0.000 C 
ATOM      2  C   UNL     1       1.356   5.942  21.038  0.00  0.00    +0.000 C 
ATOM      3  C   UNL     1       1.879   4.584  20.551  0.00  0.00    +0.000 C 
ATOM      4  C   UNL     1       1.892   4.482  19.023  0.00  0.00    +0.000 C 
ATOM      5  N   UNL     1       2.634   5.622  18.500  0.00  0.00    +0.000 N 
ATOM      6  C   UNL     1       3.618   5.447  17.569  0.00  0.00    +0.000 A 
ATOM      7  N   UNL     1       3.921   4.279  17.036  0.00  0.00    +0.000 NA
ATOM      8  C   UNL     1       4.977   4.403  16.151  0.00  0.00    +0.000 A 
ATOM      9  C   UNL     1       5.580   3.399  15.375  0.00  0.00    +0.000 A 
ATOM     10  C   UNL     1       6.648   3.761  14.551  0.00  0.00    +0.000 A 
ATOM     11  C   UNL     1       7.065   5.083  14.533  0.00  0.00    +0.000 A 
ATOM     12  N   UNL     1       6.523   6.086  15.253  0.00  0.00    +0.000 NA
ATOM     13  C   UNL     1       5.490   5.685  16.032  0.00  0.00    +0.000 A 
ATOM     14  S   UNL     1       4.639   6.749  17.030  0.00  0.00    +0.000 S 
ATOM     15  C   UNL     1       2.055   6.925  18.818  0.00  0.00    +0.000 C 
ENDROOT
BRANCH   1  17
ATOM     16  O   UNL     1       1.017   8.758  21.784  0.00  0.00    +0.000 OA
ATOM     17  C   UNL     1       1.389   8.450  20.653  0.00  0.00    +0.000 C 
ATOM     18  N   UNL     1       1.211   9.275  19.569  0.00  0.00    +0.000 N 
ATOM     19  H   UNL     1       1.524   8.985  18.653  0.00  0.00    +0.000 HD
BRANCH  18  20
ATOM     20  C   UNL     1       0.587  10.571  19.698  0.00  0.00    +0.000 C 
BRANCH  20  21
ATOM     21  C   UNL     1      -0.695  10.628  18.910  0.00  0.00    +0.000 A 
ATOM     22  C   UNL     1      -0.836   9.862  17.729  0.00  0.00    +0.000 A 
ATOM     23  C   UNL     1      -2.016   9.903  16.980  0.00  0.00    +0.000 A 
ATOM     24  C   UNL     1      -3.035  10.708  17.437  0.00  0.00    +0.000 A 
ATOM     25  C   UNL     1      -2.913  11.444  18.592  0.00  0.00    +0.000 A 
ATOM     26  C   UNL     1      -1.763  11.424  19.352  0.00  0.00    +0.000 A 
ATOM     27  O   UNL     1      -4.031  12.167  18.868  0.00  0.00    +0.000 OA
ATOM     28  C   UNL     1      -4.861  11.823  17.740  0.00  0.00    +0.000 C 
ATOM     29  O   UNL     1      -4.245  10.878  16.840  0.00  0.00    +0.000 OA
ENDBRANCH  20  21
ENDBRANCH  18  20
ENDBRANCH   1  17
TORSDOF 3
ENDMDL
MODEL 4
REMARK VINA RESULT:      -8.4      0.764      1.464
REMARK  Name = 
REMARK  3 active torsions:
REMARK  status: ('A' for Active; 'I' for Inactive)
REMARK    1  A    between atoms: C_2  and  C_14
REMARK    2  A    between atoms: N_3  and  C_4
REMARK    3  A    between atoms: C_4  and  C_5
REMARK                            x       y       z     vdW  Elec       q    Type
REMARK                         _______ _______ _______ _____ _____    ______ ____
ROOT
ATOM      1  C   UNL     1       0.483   9.152  20.519  0.00  0.00    +0.000 C 
ATOM      2  C   UNL     1       0.610  10.135  19.344  0.00  0.00    +0.000 C 
ATOM      3  C   UNL     1       1.076   9.444  18.056  0.00  0.00    +0.000 C 
ATOM      4  C   UNL     1       2.320   8.579  18.281  0.00  0.00    +0.000 C 
ATOM      5  N   UNL     1       2.040   7.659  19.377  0.00  0.00    +0.000 N 
ATOM      6  C   UNL     1       2.303   6.325  19.253  0.00  0.00    +0.000 A 
ATOM      7  N   UNL     1       2.874   5.788  18.192  0.00  0.00    +0.000 NA
ATOM      8  C   UNL     1       2.983   4.416  18.336  0.00  0.00    +0.000 A 
ATOM      9  C   UNL     1       3.545   3.492  17.438  0.00  0.00    +0.000 A 
ATOM     10  C   UNL     1       3.535   2.143  17.796  0.00  0.00    +0.000 A 
ATOM     11  C   UNL     1       2.978   1.773  19.011  0.00  0.00    +0.000 A 
ATOM     12  N   UNL     1       2.428   2.615  19.910  0.00  0.00    +0.000 NA
ATOM     13  C   UNL     1       2.465   3.911  19.518  0.00  0.00    +0.000 A 
ATOM     14  S   UNL     1       1.844   5.164  20.464  0.00  0.00    +0.000 S 
ATOM     15  C   UNL     1       1.753   8.304  20.656  0.00  0.00    +0.000 C 
ENDROOT
BRANCH   1  17
ATOM     16  O   UNL     1       0.924   9.664  22.842  0.00  0.00    +0.000 OA
ATOM     17  C   UNL     1       0.240   9.867  21.841  0.00  0.00    +0.000 C 
ATOM     18  N   UNL     1      -0.819  10.742  21.837  0.00  0.00    +0.000 N 
ATOM     19  H   UNL     1      -1.363  10.879  20.996  0.00  0.00    +0.000 HD
BRANCH  18  20
ATOM     20  C   UNL     1      -1.184  11.493  23.016  0.00  0.00    +0.000 C 
BRANCH  20  21
ATOM     21  C   UNL     1      -2.531  12.143  22.840  0.00  0.00    +0.000 A 
ATOM     22  C   UNL     1      -3.401  12.282  23.947  0.00  0.00    +0.000 A 
ATOM     23  C   UNL     1      -4.657  12.879  23.805  0.00  0.00    +0.000 A 
ATOM     24  C   UNL     1      -5.012  13.331  22.554  0.00  0.00    +0.000 A 
ATOM     25  C   UNL     1      -4.168  13.213  21.476  0.00  0.00    +0.000 A 
ATOM     26  C   UNL     1      -2.923  12.631  21.584  0.00  0.00    +0.000 A 
ATOM     27  O   UNL     1      -4.706  13.724  20.336  0.00  0.00    +0.000 OA
ATOM     28  C   UNL     1      -5.997  14.152  20.814  0.00  0.00    +0.000 C 
ATOM     29  O   UNL     1      -6.190  13.928  22.227  0.00  0.00    +0.000 OA
ENDBRANCH  20  21
ENDBRANCH  18  20
ENDBRANCH   1  17
TORSDOF 3
ENDMDL
MODEL 5
REMARK VINA RESULT:      -8.4      3.985     10.221
REMARK  Name = 
REMARK  3 active torsions:
REMARK  status: ('A' for Active; 'I' for Inactive)
REMARK    1  A    between atoms: C_2  and  C_14
REMARK    2  A    between atoms: N_3  and  C_4
REMARK    3  A    between atoms: C_4  and  C_5
REMARK                            x       y       z     vdW  Elec       q    Type
REMARK                         _______ _______ _______ _____ _____    ______ ____
ROOT
ATOM      1  C   UNL     1       0.405   9.830  19.427  0.00  0.00    +0.000 C 
ATOM      2  C   UNL     1       0.974  10.307  20.773  0.00  0.00    +0.000 C 
ATOM      3  C   UNL     1      -0.073  11.043  21.619  0.00  0.00    +0.000 C 
ATOM      4  C   UNL     1      -0.793  12.137  20.825  0.00  0.00    +0.000 C 
ATOM      5  N   UNL     1      -1.332  11.536  19.611  0.00  0.00    +0.000 N 
ATOM      6  C   UNL     1      -2.631  11.743  19.246  0.00  0.00    +0.000 A 
ATOM      7  N   UNL     1      -3.458  12.532  19.904  0.00  0.00    +0.000 NA
ATOM      8  C   UNL     1      -4.713  12.521  19.322  0.00  0.00    +0.000 A 
ATOM      9  C   UNL     1      -5.857  13.237  19.715  0.00  0.00    +0.000 A 
ATOM     10  C   UNL     1      -7.027  13.058  18.974  0.00  0.00    +0.000 A 
ATOM     11  C   UNL     1      -7.013  12.191  17.892  0.00  0.00    +0.000 A 
ATOM     12  N   UNL     1      -5.946  11.482  17.470  0.00  0.00    +0.000 NA
ATOM     13  C   UNL     1      -4.837  11.692  18.218  0.00  0.00    +0.000 A 
ATOM     14  S   UNL     1      -3.367  10.925  17.898  0.00  0.00    +0.000 S 
ATOM     15  C   UNL     1      -0.327  10.972  18.712  0.00  0.00    +0.000 C 
ENDROOT
BRANCH   1  17
ATOM     16  O   UNL     1       1.867   9.914  17.502  0.00  0.00    +0.000 OA
ATOM     17  C   UNL     1       1.490   9.302  18.500  0.00  0.00    +0.000 C 
ATOM     18  N   UNL     1       2.001   8.076  18.849  0.00  0.00    +0.000 N 
ATOM     19  H   UNL     1       1.662   7.600  19.673  0.00  0.00    +0.000 HD
BRANCH  18  20
ATOM     20  C   UNL     1       3.034   7.436  18.067  0.00  0.00    +0.000 C 
BRANCH  20  21
ATOM     21  C   UNL     1       3.038   5.949  18.302  0.00  0.00    +0.000 A 
ATOM     22  C   UNL     1       1.943   5.160  17.877  0.00  0.00    +0.000 A 
ATOM     23  C   UNL     1       1.924   3.779  18.088  0.00  0.00    +0.000 A 
ATOM     24  C   UNL     1       3.012   3.214  18.717  0.00  0.00    +0.000 A 
ATOM     25  C   UNL     1       4.086   3.970  19.121  0.00  0.00    +0.000 A 
ATOM     26  C   UNL     1       4.135   5.334  18.926  0.00  0.00    +0.000 A 
ATOM     27  O   UNL     1       5.053   3.222  19.717  0.00  0.00    +0.000 OA
ATOM     28  C   UNL     1       4.451   1.912  19.667  0.00  0.00    +0.000 C 
ATOM     29  O   UNL     1       3.165   1.895  19.012  0.00  0.00    +0.000 OA
ENDBRANCH  20  21
ENDBRANCH  18  20
ENDBRANCH   1  17
TORSDOF 3
ENDMDL
MODEL 6
REMARK VINA RESULT:      -8.3      3.992     10.129
REMARK  Name = 
REMARK  3 active torsions:
REMARK  status: ('A' for Active; 'I' for Inactive)
REMARK    1  A    between atoms: C_2  and  C_14
REMARK    2  A    between atoms: N_3  and  C_4
REMARK    3  A    between atoms: C_4  and  C_5
REMARK                            x       y       z     vdW  Elec       q    Type
REMARK                         _______ _______ _______ _____ _____    ______ ____
ROOT
ATOM      1  C   UNL     1       0.431   9.727  19.272  0.00  0.00    +0.000 C 
ATOM      2  C   UNL     1       0.908   9.989  20.709  0.00  0.00    +0.000 C 
ATOM      3  C   UNL     1      -0.192  10.604  21.583  0.00  0.00    +0.000 C 
ATOM      4  C   UNL     1      -0.852  11.815  20.917  0.00  0.00    +0.000 C 
ATOM      5  N   UNL     1      -1.308  11.410  19.592  0.00  0.00    +0.000 N 
ATOM      6  C   UNL     1      -2.578  11.688  19.175  0.00  0.00    +0.000 A 
ATOM      7  N   UNL     1      -3.445  12.381  19.887  0.00  0.00    +0.000 NA
ATOM      8  C   UNL     1      -4.658  12.474  19.227  0.00  0.00    +0.000 A 
ATOM      9  C   UNL     1      -5.823  13.140  19.644  0.00  0.00    +0.000 A 
ATOM     10  C   UNL     1      -6.940  13.090  18.807  0.00  0.00    +0.000 A 
ATOM     11  C   UNL     1      -6.854  12.395  17.610  0.00  0.00    +0.000 A 
ATOM     12  N   UNL     1      -5.763  11.742  17.160  0.00  0.00    +0.000 NA
ATOM     13  C   UNL     1      -4.707  11.822  18.004  0.00  0.00    +0.000 A 
ATOM     14  S   UNL     1      -3.222  11.092  17.673  0.00  0.00    +0.000 S 
ATOM     15  C   UNL     1      -0.245  10.974  18.689  0.00  0.00    +0.000 C 
ENDROOT
BRANCH   1  17
ATOM     16  O   UNL     1       1.938  10.023  17.403  0.00  0.00    +0.000 OA
ATOM     17  C   UNL     1       1.576   9.329  18.351  0.00  0.00    +0.000 C 
ATOM     18  N   UNL     1       2.161   8.122  18.647  0.00  0.00    +0.000 N 
ATOM     19  H   UNL     1       1.832   7.576  19.431  0.00  0.00    +0.000 HD
BRANCH  18  20
ATOM     20  C   UNL     1       3.257   7.600  17.863  0.00  0.00    +0.000 C 
BRANCH  20  21
ATOM     21  C   UNL     1       3.238   6.094  17.854  0.00  0.00    +0.000 A 
ATOM     22  C   UNL     1       4.215   5.377  17.124  0.00  0.00    +0.000 A 
ATOM     23  C   UNL     1       4.214   3.979  17.099  0.00  0.00    +0.000 A 
ATOM     24  C   UNL     1       3.234   3.328  17.816  0.00  0.00    +0.000 A 
ATOM     25  C   UNL     1       2.290   4.017  18.540  0.00  0.00    +0.000 A 
ATOM     26  C   UNL     1       2.265   5.394  18.585  0.00  0.00    +0.000 A 
ATOM     27  O   UNL     1       1.418   3.189  19.176  0.00  0.00    +0.000 OA
ATOM     28  C   UNL     1       1.905   1.901  18.746  0.00  0.00    +0.000 C 
ATOM     29  O   UNL     1       3.073   1.981  17.902  0.00  0.00    +0.000 OA
ENDBRANCH  20  21
ENDBRANCH  18  20
ENDBRANCH   1  17
TORSDOF 3
ENDMDL
MODEL 7
REMARK VINA RESULT:      -8.2      3.485     10.460
REMARK  Name = 
REMARK  3 active torsions:
REMARK  status: ('A' for Active; 'I' for Inactive)
REMARK    1  A    between atoms: C_2  and  C_14
REMARK    2  A    between atoms: N_3  and  C_4
REMARK    3  A    between atoms: C_4  and  C_5
REMARK                            x       y       z     vdW  Elec       q    Type
REMARK                         _______ _______ _______ _____ _____    ______ ____
ROOT
ATOM      1  C   UNL     1       0.066   9.659  20.254  0.00  0.00    +0.000 C 
ATOM      2  C   UNL     1       0.420   8.646  21.354  0.00  0.00    +0.000 C 
ATOM      3  C   UNL     1      -0.472   8.800  22.594  0.00  0.00    +0.000 C 
ATOM      4  C   UNL     1      -0.539  10.249  23.082  0.00  0.00    +0.000 C 
ATOM      5  N   UNL     1      -0.941  11.088  21.959  0.00  0.00    +0.000 N 
ATOM      6  C   UNL     1      -1.950  11.998  22.092  0.00  0.00    +0.000 A 
ATOM      7  N   UNL     1      -2.577  12.232  23.228  0.00  0.00    +0.000 NA
ATOM      8  C   UNL     1      -3.571  13.178  23.053  0.00  0.00    +0.000 A 
ATOM      9  C   UNL     1      -4.446  13.706  24.018  0.00  0.00    +0.000 A 
ATOM     10  C   UNL     1      -5.383  14.655  23.603  0.00  0.00    +0.000 A 
ATOM     11  C   UNL     1      -5.412  15.033  22.270  0.00  0.00    +0.000 A 
ATOM     12  N   UNL     1      -4.598  14.562  21.303  0.00  0.00    +0.000 NA
ATOM     13  C   UNL     1      -3.706  13.649  21.756  0.00  0.00    +0.000 A 
ATOM     14  S   UNL     1      -2.573  12.908  20.747  0.00  0.00    +0.000 S 
ATOM     15  C   UNL     1      -0.013  11.079  20.829  0.00  0.00    +0.000 C 
ENDROOT
BRANCH   1  17
ATOM     16  O   UNL     1       1.260  10.624  18.385  0.00  0.00    +0.000 OA
ATOM     17  C   UNL     1       1.086   9.658  19.124  0.00  0.00    +0.000 C 
ATOM     18  N   UNL     1       1.782   8.483  18.978  0.00  0.00    +0.000 N 
ATOM     19  H   UNL     1       1.607   7.707  19.601  0.00  0.00    +0.000 HD
BRANCH  18  20
ATOM     20  C   UNL     1       2.781   8.319  17.947  0.00  0.00    +0.000 C 
BRANCH  20  21
ATOM     21  C   UNL     1       3.145   6.867  17.782  0.00  0.00    +0.000 A 
ATOM     22  C   UNL     1       4.417   6.507  17.276  0.00  0.00    +0.000 A 
ATOM     23  C   UNL     1       4.774   5.166  17.111  0.00  0.00    +0.000 A 
ATOM     24  C   UNL     1       3.848   4.210  17.465  0.00  0.00    +0.000 A 
ATOM     25  C   UNL     1       2.615   4.550  17.971  0.00  0.00    +0.000 A 
ATOM     26  C   UNL     1       2.235   5.863  18.147  0.00  0.00    +0.000 A 
ATOM     27  O   UNL     1       1.854   3.460  18.260  0.00  0.00    +0.000 OA
ATOM     28  C   UNL     1       2.738   2.396  17.852  0.00  0.00    +0.000 C 
ATOM     29  O   UNL     1       4.015   2.864  17.368  0.00  0.00    +0.000 OA
ENDBRANCH  20  21
ENDBRANCH  18  20
ENDBRANCH   1  17
TORSDOF 3
ENDMDL
MODEL 8
REMARK VINA RESULT:      -8.2      3.679     10.740
REMARK  Name = 
REMARK  3 active torsions:
REMARK  status: ('A' for Active; 'I' for Inactive)
REMARK    1  A    between atoms: C_2  and  C_14
REMARK    2  A    between atoms: N_3  and  C_4
REMARK    3  A    between atoms: C_4  and  C_5
REMARK                            x       y       z     vdW  Elec       q    Type
REMARK                         _______ _______ _______ _____ _____    ______ ____
ROOT
ATOM      1  C   UNL     1       0.201   9.621  20.119  0.00  0.00    +0.000 C 
ATOM      2  C   UNL     1       0.563   8.598  21.207  0.00  0.00    +0.000 C 
ATOM      3  C   UNL     1      -0.313   8.746  22.458  0.00  0.00    +0.000 C 
ATOM      4  C   UNL     1      -0.369  10.192  22.958  0.00  0.00    +0.000 C 
ATOM      5  N   UNL     1      -0.780  11.040  21.846  0.00  0.00    +0.000 N 
ATOM      6  C   UNL     1      -1.784  11.953  21.998  0.00  0.00    +0.000 A 
ATOM      7  N   UNL     1      -2.397  12.181  23.143  0.00  0.00    +0.000 NA
ATOM      8  C   UNL     1      -3.390  13.133  22.987  0.00  0.00    +0.000 A 
ATOM      9  C   UNL     1      -4.250  13.657  23.966  0.00  0.00    +0.000 A 
ATOM     10  C   UNL     1      -5.189  14.612  23.570  0.00  0.00    +0.000 A 
ATOM     11  C   UNL     1      -5.232  15.001  22.239  0.00  0.00    +0.000 A 
ATOM     12  N   UNL     1      -4.431  14.533  21.260  0.00  0.00    +0.000 NA
ATOM     13  C   UNL     1      -3.538  13.614  21.695  0.00  0.00    +0.000 A 
ATOM     14  S   UNL     1      -2.420  12.876  20.667  0.00  0.00    +0.000 S 
ATOM     15  C   UNL     1       0.134  11.036  20.706  0.00  0.00    +0.000 C 
ENDROOT
BRANCH   1  17
ATOM     16  O   UNL     1       1.523  10.647  18.372  0.00  0.00    +0.000 OA
ATOM     17  C   UNL     1       1.207   9.624  18.977  0.00  0.00    +0.000 C 
ATOM     18  N   UNL     1       1.720   8.391  18.657  0.00  0.00    +0.000 N 
ATOM     19  H   UNL     1       1.432   7.571  19.173  0.00  0.00    +0.000 HD
BRANCH  18  20
ATOM     20  C   UNL     1       2.682   8.224  17.592  0.00  0.00    +0.000 C 
BRANCH  20  21
ATOM     21  C   UNL     1       3.672   7.142  17.931  0.00  0.00    +0.000 A 
ATOM     22  C   UNL     1       3.394   6.226  18.974  0.00  0.00    +0.000 A 
ATOM     23  C   UNL     1       4.301   5.216  19.307  0.00  0.00    +0.000 A 
ATOM     24  C   UNL     1       5.469   5.141  18.581  0.00  0.00    +0.000 A 
ATOM     25  C   UNL     1       5.741   6.017  17.557  0.00  0.00    +0.000 A 
ATOM     26  C   UNL     1       4.867   7.022  17.203  0.00  0.00    +0.000 A 
ATOM     27  O   UNL     1       6.942   5.770  16.967  0.00  0.00    +0.000 OA
ATOM     28  C   UNL     1       7.406   4.655  17.756  0.00  0.00    +0.000 C 
ATOM     29  O   UNL     1       6.465   4.235  18.767  0.00  0.00    +0.000 OA
ENDBRANCH  20  21
ENDBRANCH  18  20
ENDBRANCH   1  17
TORSDOF 3
ENDMDL
MODEL 9
REMARK VINA RESULT:      -8.1      3.964     10.130
REMARK  Name = 
REMARK  3 active torsions:
REMARK  status: ('A' for Active; 'I' for Inactive)
REMARK    1  A    between atoms: C_2  and  C_14
REMARK    2  A    between atoms: N_3  and  C_4
REMARK    3  A    between atoms: C_4  and  C_5
REMARK                            x       y       z     vdW  Elec       q    Type
REMARK                         _______ _______ _______ _____ _____    ______ ____
ROOT
ATOM      1  C   UNL     1       0.343  10.068  19.458  0.00  0.00    +0.000 C 
ATOM      2  C   UNL     1       0.795  10.327  20.904  0.00  0.00    +0.000 C 
ATOM      3  C   UNL     1      -0.344  10.861  21.782  0.00  0.00    +0.000 C 
ATOM      4  C   UNL     1      -1.067  12.046  21.136  0.00  0.00    +0.000 C 
ATOM      5  N   UNL     1      -1.491  11.644  19.800  0.00  0.00    +0.000 N 
ATOM      6  C   UNL     1      -2.772  11.858  19.380  0.00  0.00    +0.000 A 
ATOM      7  N   UNL     1      -3.682  12.486  20.099  0.00  0.00    +0.000 NA
ATOM      8  C   UNL     1      -4.893  12.525  19.432  0.00  0.00    +0.000 A 
ATOM      9  C   UNL     1      -6.097  13.114  19.854  0.00  0.00    +0.000 A 
ATOM     10  C   UNL     1      -7.204  13.019  19.008  0.00  0.00    +0.000 A 
ATOM     11  C   UNL     1      -7.072  12.355  17.798  0.00  0.00    +0.000 A 
ATOM     12  N   UNL     1      -5.943  11.774  17.343  0.00  0.00    +0.000 NA
ATOM     13  C   UNL     1      -4.899  11.896  18.196  0.00  0.00    +0.000 A 
ATOM     14  S   UNL     1      -3.372  11.258  17.861  0.00  0.00    +0.000 S 
ATOM     15  C   UNL     1      -0.400  11.287  18.896  0.00  0.00    +0.000 C 
ENDROOT
BRANCH   1  17
ATOM     16  O   UNL     1       2.149  10.628  17.949  0.00  0.00    +0.000 OA
ATOM     17  C   UNL     1       1.514   9.755  18.538  0.00  0.00    +0.000 C 
ATOM     18  N   UNL     1       1.794   8.418  18.395  0.00  0.00    +0.000 N 
ATOM     19  H   UNL     1       1.246   7.728  18.890  0.00  0.00    +0.000 HD
BRANCH  18  20
ATOM     20  C   UNL     1       2.871   7.956  17.551  0.00  0.00    +0.000 C 
BRANCH  20  21
ATOM     21  C   UNL     1       3.450   6.670  18.079  0.00  0.00    +0.000 A 
ATOM     22  C   UNL     1       4.789   6.321  17.784  0.00  0.00    +0.000 A 
ATOM     23  C   UNL     1       5.345   5.130  18.260  0.00  0.00    +0.000 A 
ATOM     24  C   UNL     1       4.546   4.315  19.032  0.00  0.00    +0.000 A 
ATOM     25  C   UNL     1       3.248   4.654  19.336  0.00  0.00    +0.000 A 
ATOM     26  C   UNL     1       2.672   5.821  18.882  0.00  0.00    +0.000 A 
ATOM     27  O   UNL     1       2.635   3.718  20.109  0.00  0.00    +0.000 OA
ATOM     28  C   UNL     1       3.687   2.739  20.234  0.00  0.00    +0.000 C 
ATOM     29  O   UNL     1       4.911   3.122  19.573  0.00  0.00    +0.000 OA
ENDBRANCH  20  21
ENDBRANCH  18  20
ENDBRANCH   1  17
TORSDOF 3
ENDMDL
