MODEL 1
REMARK VINA RESULT:      -8.7      0.000      0.000
REMARK  Name = 
REMARK  7 active torsions:
REMARK  status: ('A' for Active; 'I' for Inactive)
REMARK    1  A    between atoms: C_1  and  O_2
REMARK    2  A    between atoms: O_2  and  C_3
REMARK    3  A    between atoms: C_3  and  C_5
REMARK    4  A    between atoms: C_9  and  C_10
REMARK    5  A    between atoms: C_13  and  C_14
REMARK    6  A    between atoms: C_14  and  N_15
REMARK    7  A    between atoms: N_18  and  C_19
REMARK                            x       y       z     vdW  Elec       q    Type
REMARK                         _______ _______ _______ _____ _____    ______ ____
ROOT
ATOM      1  C   UNL     1       4.534   5.189  17.085  0.00  0.00    +0.000 A 
ATOM      2  C   UNL     1       4.298   6.509  17.525  0.00  0.00    +0.000 A 
ATOM      3  C   UNL     1       3.438   6.793  18.581  0.00  0.00    +0.000 A 
ATOM      4  C   UNL     1       2.826   5.759  19.293  0.00  0.00    +0.000 A 
ATOM      5  C   UNL     1       3.140   4.416  18.974  0.00  0.00    +0.000 A 
ATOM      6  C   UNL     1       2.696   3.328  19.751  0.00  0.00    +0.000 A 
ATOM      7  N   UNL     1       2.865   2.022  19.455  0.00  0.00    +0.000 NA
ATOM      8  C   UNL     1       3.474   1.764  18.292  0.00  0.00    +0.000 A 
ATOM      9  C   UNL     1       3.983   2.748  17.462  0.00  0.00    +0.000 A 
ATOM     10  C   UNL     1       3.911   4.115  17.817  0.00  0.00    +0.000 A 
ENDROOT
BRANCH   1  15
ATOM     11  C   UNL     1       5.795   4.008  13.659  0.00  0.00    +0.000 A 
ATOM     12  C   UNL     1       7.115   4.468  13.670  0.00  0.00    +0.000 A 
ATOM     13  C   UNL     1       7.574   5.222  14.744  0.00  0.00    +0.000 A 
ATOM     14  C   UNL     1       6.720   5.513  15.813  0.00  0.00    +0.000 A 
ATOM     15  C   UNL     1       5.417   4.986  15.889  0.00  0.00    +0.000 A 
ATOM     16  C   UNL     1       4.968   4.252  14.770  0.00  0.00    +0.000 A 
BRANCH  11  17
ATOM     17  C   UNL     1       5.329   3.257  12.462  0.00  0.00    +0.000 C 
ATOM     18  O   UNL     1       6.024   2.458  11.856  0.00  0.00    +0.000 OA
BRANCH  17  20
ATOM     19  C   UNL     1       3.650   3.190  10.840  0.00  0.00    +0.000 C 
ATOM     20  O   UNL     1       4.053   3.596  12.149  0.00  0.00    +0.000 OA
ENDBRANCH  17  20
ENDBRANCH  11  17
ENDBRANCH   1  15
BRANCH   4  21
ATOM     21  C   UNL     1       1.793   6.120  20.334  0.00  0.00    +0.000 C 
BRANCH  21  22
ATOM     22  N   UNL     1       1.895   7.491  20.757  0.00  0.00    +0.000 N 
ATOM     23  C   UNL     1       0.739   8.154  21.098  0.00  0.00    +0.000 C 
ATOM     24  O   UNL     1      -0.365   7.623  21.101  0.00  0.00    +0.000 OA
ATOM     25  N   UNL     1       0.996   9.481  21.359  0.00  0.00    +0.000 N 
ATOM     26  H   UNL     1       2.716   7.765  21.278  0.00  0.00    +0.000 HD
ATOM     27  H   UNL     1       1.719   9.854  20.755  0.00  0.00    +0.000 HD
BRANCH  25  28
ATOM     28  C   UNL     1      -0.032  10.391  21.695  0.00  0.00    +0.000 A 
ATOM     29  C   UNL     1      -0.591  10.387  22.976  0.00  0.00    +0.000 A 
ATOM     30  C   UNL     1      -1.583  11.311  23.315  0.00  0.00    +0.000 A 
ATOM     31  C   UNL     1      -2.031  12.228  22.361  0.00  0.00    +0.000 A 
ATOM     32  C   UNL     1      -1.488  12.232  21.076  0.00  0.00    +0.000 A 
ATOM     33 CL   UNL     1      -2.125  13.370  19.941  0.00  0.00    +0.000 Cl
ATOM     34  C   UNL     1      -0.474  11.326  20.740  0.00  0.00    +0.000 A 
ATOM     35 CL   UNL     1       0.205  11.280  19.141  0.00  0.00    +0.000 Cl
ENDBRANCH  25  28
ENDBRANCH  21  22
ENDBRANCH   4  21
TORSDOF 6
ENDMDL
MODEL 2
REMARK VINA RESULT:      -8.6      1.499      1.689
REMARK  Name = 
REMARK  7 active torsions:
REMARK  status: ('A' for Active; 'I' for Inactive)
REMARK    1  A    between atoms: C_1  and  O_2
REMARK    2  A    between atoms: O_2  and  C_3
REMARK    3  A    between atoms: C_3  and  C_5
REMARK    4  A    between atoms: C_9  and  C_10
REMARK    5  A    between atoms: C_13  and  C_14
REMARK    6  A    between atoms: C_14  and  N_15
REMARK    7  A    between atoms: N_18  and  C_19
REMARK                            x       y       z     vdW  Elec       q    Type
REMARK                         _______ _______ _______ _____ _____    ______ ____
ROOT
ATOM      1  C   UNL     1       4.941   5.455  15.976  0.00  0.00    +0.000 A 
ATOM      2  C   UNL     1       4.853   6.849  16.177  0.00  0.00    +0.000 A 
ATOM      3  C   UNL     1       4.122   7.400  17.225  0.00  0.00    +0.000 A 
ATOM      4  C   UNL     1       3.500   6.575  18.165  0.00  0.00    +0.000 A 
ATOM      5  C   UNL     1       3.675   5.172  18.080  0.00  0.00    +0.000 A 
ATOM      6  C   UNL     1       3.221   4.290  19.080  0.00  0.00    +0.000 A 
ATOM      7  N   UNL     1       3.257   2.942  19.022  0.00  0.00    +0.000 NA
ATOM      8  C   UNL     1       3.731   2.421  17.884  0.00  0.00    +0.000 A 
ATOM      9  C   UNL     1       4.236   3.186  16.846  0.00  0.00    +0.000 A 
ATOM     10  C   UNL     1       4.306   4.595  16.944  0.00  0.00    +0.000 A 
ENDROOT
BRANCH   1  15
ATOM     11  C   UNL     1       5.770   3.569  12.740  0.00  0.00    +0.000 A 
ATOM     12  C   UNL     1       7.119   3.888  12.565  0.00  0.00    +0.000 A 
ATOM     13  C   UNL     1       7.740   4.769  13.443  0.00  0.00    +0.000 A 
ATOM     14  C   UNL     1       7.017   5.328  14.502  0.00  0.00    +0.000 A 
ATOM     15  C   UNL     1       5.687   4.957  14.774  0.00  0.00    +0.000 A 
ATOM     16  C   UNL     1       5.074   4.087  13.847  0.00  0.00    +0.000 A 
BRANCH  11  17
ATOM     17  C   UNL     1       5.131   2.669  11.741  0.00  0.00    +0.000 C 
ATOM     18  O   UNL     1       5.714   1.743  11.200  0.00  0.00    +0.000 OA
BRANCH  17  20
ATOM     19  C   UNL     1       3.639   3.726  10.288  0.00  0.00    +0.000 C 
ATOM     20  O   UNL     1       3.843   3.033  11.521  0.00  0.00    +0.000 OA
ENDBRANCH  17  20
ENDBRANCH  11  17
ENDBRANCH   1  15
BRANCH   4  21
ATOM     21  C   UNL     1       2.602   7.214  19.197  0.00  0.00    +0.000 C 
BRANCH  21  22
ATOM     22  N   UNL     1       2.109   8.498  18.776  0.00  0.00    +0.000 N 
ATOM     23  C   UNL     1       1.178   9.129  19.570  0.00  0.00    +0.000 C 
ATOM     24  O   UNL     1       0.783   8.673  20.635  0.00  0.00    +0.000 OA
ATOM     25  N   UNL     1       0.722  10.278  18.966  0.00  0.00    +0.000 N 
ATOM     26  H   UNL     1       2.745   9.113  18.290  0.00  0.00    +0.000 HD
ATOM     27  H   UNL     1       0.651  10.178  17.960  0.00  0.00    +0.000 HD
BRANCH  25  28
ATOM     28  C   UNL     1      -0.271  11.093  19.558  0.00  0.00    +0.000 A 
ATOM     29  C   UNL     1       0.036  11.895  20.660  0.00  0.00    +0.000 A 
ATOM     30  C   UNL     1      -0.939  12.724  21.222  0.00  0.00    +0.000 A 
ATOM     31  C   UNL     1      -2.230  12.732  20.691  0.00  0.00    +0.000 A 
ATOM     32  C   UNL     1      -2.550  11.925  19.599  0.00  0.00    +0.000 A 
ATOM     33 CL   UNL     1      -4.181  11.962  19.026  0.00  0.00    +0.000 Cl
ATOM     34  C   UNL     1      -1.569  11.114  19.015  0.00  0.00    +0.000 A 
ATOM     35 CL   UNL     1      -1.937  10.072  17.673  0.00  0.00    +0.000 Cl
ENDBRANCH  25  28
ENDBRANCH  21  22
ENDBRANCH   4  21
TORSDOF 6
ENDMDL
MODEL 3
REMARK VINA RESULT:      -8.5      1.256      1.289
REMARK  Name = 
REMARK  7 active torsions:
REMARK  status: ('A' for Active; 'I' for Inactive)
REMARK    1  A    between atoms: C_1  and  O_2
REMARK    2  A    between atoms: O_2  and  C_3
REMARK    3  A    between atoms: C_3  and  C_5
REMARK    4  A    between atoms: C_9  and  C_10
REMARK    5  A    between atoms: C_13  and  C_14
REMARK    6  A    between atoms: C_14  and  N_15
REMARK    7  A    between atoms: N_18  and  C_19
REMARK                            x       y       z     vdW  Elec       q    Type
REMARK                         _______ _______ _______ _____ _____    ______ ____
ROOT
ATOM      1  C   UNL     1       4.763   5.349  16.436  0.00  0.00    +0.000 A 
ATOM      2  C   UNL     1       4.608   6.720  16.731  0.00  0.00    +0.000 A 
ATOM      3  C   UNL     1       3.835   7.164  17.799  0.00  0.00    +0.000 A 
ATOM      4  C   UNL     1       3.235   6.248  18.667  0.00  0.00    +0.000 A 
ATOM      5  C   UNL     1       3.475   4.864  18.489  0.00  0.00    +0.000 A 
ATOM      6  C   UNL     1       3.044   3.895  19.417  0.00  0.00    +0.000 A 
ATOM      7  N   UNL     1       3.143   2.557  19.267  0.00  0.00    +0.000 NA
ATOM      8  C   UNL     1       3.660   2.139  18.106  0.00  0.00    +0.000 A 
ATOM      9  C   UNL     1       4.148   2.996  17.134  0.00  0.00    +0.000 A 
ATOM     10  C   UNL     1       4.152   4.396  17.329  0.00  0.00    +0.000 A 
ENDROOT
BRANCH   1  15
ATOM     11  C   UNL     1       5.689   3.844  13.031  0.00  0.00    +0.000 A 
ATOM     12  C   UNL     1       7.058   4.117  12.964  0.00  0.00    +0.000 A 
ATOM     13  C   UNL     1       7.666   4.850  13.977  0.00  0.00    +0.000 A 
ATOM     14  C   UNL     1       6.910   5.307  15.062  0.00  0.00    +0.000 A 
ATOM     15  C   UNL     1       5.553   4.970  15.219  0.00  0.00    +0.000 A 
ATOM     16  C   UNL     1       4.955   4.253  14.160  0.00  0.00    +0.000 A 
BRANCH  11  17
ATOM     17  C   UNL     1       5.068   3.109  11.895  0.00  0.00    +0.000 C 
ATOM     18  O   UNL     1       5.432   2.003  11.530  0.00  0.00    +0.000 OA
BRANCH  17  20
ATOM     19  C   UNL     1       3.260   3.108  10.417  0.00  0.00    +0.000 C 
ATOM     20  O   UNL     1       4.072   3.841  11.336  0.00  0.00    +0.000 OA
ENDBRANCH  17  20
ENDBRANCH  11  17
ENDBRANCH   1  15
BRANCH   4  21
ATOM     21  C   UNL     1       2.290   6.773  19.722  0.00  0.00    +0.000 C 
BRANCH  21  22
ATOM     22  N   UNL     1       1.774   8.077  19.397  0.00  0.00    +0.000 N 
ATOM     23  C   UNL     1       1.378   8.895  20.431  0.00  0.00    +0.000 C 
ATOM     24  O   UNL     1       1.483   8.586  21.611  0.00  0.00    +0.000 OA
ATOM     25  N   UNL     1       0.799  10.045  19.946  0.00  0.00    +0.000 N 
ATOM     26  H   UNL     1       2.166   8.554  18.598  0.00  0.00    +0.000 HD
ATOM     27  H   UNL     1       0.261   9.876  19.105  0.00  0.00    +0.000 HD
BRANCH  25  28
ATOM     28  C   UNL     1       0.271  11.037  20.805  0.00  0.00    +0.000 A 
ATOM     29  C   UNL     1      -0.736  10.717  21.720  0.00  0.00    +0.000 A 
ATOM     30  C   UNL     1      -1.232  11.691  22.590  0.00  0.00    +0.000 A 
ATOM     31  C   UNL     1      -0.733  12.994  22.529  0.00  0.00    +0.000 A 
ATOM     32  C   UNL     1       0.263  13.326  21.610  0.00  0.00    +0.000 A 
ATOM     33 CL   UNL     1       0.799  14.969  21.568  0.00  0.00    +0.000 Cl
ATOM     34  C   UNL     1       0.783  12.347  20.755  0.00  0.00    +0.000 A 
ATOM     35 CL   UNL     1       2.002  12.728  19.577  0.00  0.00    +0.000 Cl
ENDBRANCH  25  28
ENDBRANCH  21  22
ENDBRANCH   4  21
TORSDOF 6
ENDMDL
MODEL 4
REMARK VINA RESULT:      -8.5      4.760      7.232
REMARK  Name = 
REMARK  7 active torsions:
REMARK  status: ('A' for Active; 'I' for Inactive)
REMARK    1  A    between atoms: C_1  and  O_2
REMARK    2  A    between atoms: O_2  and  C_3
REMARK    3  A    between atoms: C_3  and  C_5
REMARK    4  A    between atoms: C_9  and  C_10
REMARK    5  A    between atoms: C_13  and  C_14
REMARK    6  A    between atoms: C_14  and  N_15
REMARK    7  A    between atoms: N_18  and  C_19
REMARK                            x       y       z     vdW  Elec       q    Type
REMARK                         _______ _______ _______ _____ _____    ______ ____
ROOT
ATOM      1  C   UNL     1       1.823   8.144  19.574  0.00  0.00    +0.000 A 
ATOM      2  C   UNL     1       2.059   8.746  18.320  0.00  0.00    +0.000 A 
ATOM      3  C   UNL     1       1.636  10.039  18.029  0.00  0.00    +0.000 A 
ATOM      4  C   UNL     1       1.015  10.818  19.009  0.00  0.00    +0.000 A 
ATOM      5  C   UNL     1       0.879  10.303  20.321  0.00  0.00    +0.000 A 
ATOM      6  C   UNL     1       0.418  11.086  21.398  0.00  0.00    +0.000 A 
ATOM      7  N   UNL     1       0.164  10.641  22.647  0.00  0.00    +0.000 NA
ATOM      8  C   UNL     1       0.332   9.328  22.843  0.00  0.00    +0.000 A 
ATOM      9  C   UNL     1       0.812   8.466  21.871  0.00  0.00    +0.000 A 
ATOM     10  C   UNL     1       1.187   8.941  20.593  0.00  0.00    +0.000 A 
ENDROOT
BRANCH   1  15
ATOM     11  C   UNL     1       3.760   4.851  19.224  0.00  0.00    +0.000 A 
ATOM     12  C   UNL     1       2.993   3.987  20.010  0.00  0.00    +0.000 A 
ATOM     13  C   UNL     1       1.899   4.481  20.712  0.00  0.00    +0.000 A 
ATOM     14  C   UNL     1       1.564   5.836  20.627  0.00  0.00    +0.000 A 
ATOM     15  C   UNL     1       2.247   6.719  19.769  0.00  0.00    +0.000 A 
ATOM     16  C   UNL     1       3.372   6.197  19.094  0.00  0.00    +0.000 A 
BRANCH  11  17
ATOM     17  C   UNL     1       4.957   4.292  18.538  0.00  0.00    +0.000 C 
ATOM     18  O   UNL     1       4.938   3.857  17.398  0.00  0.00    +0.000 OA
BRANCH  17  20
ATOM     19  C   UNL     1       6.885   5.460  19.147  0.00  0.00    +0.000 C 
ATOM     20  O   UNL     1       6.039   4.328  19.356  0.00  0.00    +0.000 OA
ENDBRANCH  17  20
ENDBRANCH  11  17
ENDBRANCH   1  15
BRANCH   4  21
ATOM     21  C   UNL     1       0.445  12.157  18.606  0.00  0.00    +0.000 C 
BRANCH  21  22
ATOM     22  N   UNL     1       1.386  12.952  17.861  0.00  0.00    +0.000 N 
ATOM     23  C   UNL     1       2.470  13.471  18.530  0.00  0.00    +0.000 C 
ATOM     24  O   UNL     1       2.698  13.255  19.713  0.00  0.00    +0.000 OA
ATOM     25  N   UNL     1       3.198  14.301  17.707  0.00  0.00    +0.000 N 
ATOM     26  H   UNL     1       1.554  12.704  16.897  0.00  0.00    +0.000 HD
ATOM     27  H   UNL     1       2.605  14.824  17.074  0.00  0.00    +0.000 HD
BRANCH  25  28
ATOM     28  C   UNL     1       4.342  14.994  18.165  0.00  0.00    +0.000 A 
ATOM     29  C   UNL     1       5.623  14.540  17.836  0.00  0.00    +0.000 A 
ATOM     30  C   UNL     1       6.751  15.246  18.262  0.00  0.00    +0.000 A 
ATOM     31  C   UNL     1       6.596  16.398  19.036  0.00  0.00    +0.000 A 
ATOM     32  C   UNL     1       5.323  16.852  19.380  0.00  0.00    +0.000 A 
ATOM     33 CL   UNL     1       5.216  18.261  20.375  0.00  0.00    +0.000 Cl
ATOM     34  C   UNL     1       4.188  16.163  18.933  0.00  0.00    +0.000 A 
ATOM     35 CL   UNL     1       2.587  16.680  19.366  0.00  0.00    +0.000 Cl
ENDBRANCH  25  28
ENDBRANCH  21  22
ENDBRANCH   4  21
TORSDOF 6
ENDMDL
MODEL 5
REMARK VINA RESULT:      -8.4      5.038      7.370
REMARK  Name = 
REMARK  7 active torsions:
REMARK  status: ('A' for Active; 'I' for Inactive)
REMARK    1  A    between atoms: C_1  and  O_2
REMARK    2  A    between atoms: O_2  and  C_3
REMARK    3  A    between atoms: C_3  and  C_5
REMARK    4  A    between atoms: C_9  and  C_10
REMARK    5  A    between atoms: C_13  and  C_14
REMARK    6  A    between atoms: C_14  and  N_15
REMARK    7  A    between atoms: N_18  and  C_19
REMARK                            x       y       z     vdW  Elec       q    Type
REMARK                         _______ _______ _______ _____ _____    ______ ____
ROOT
ATOM      1  C   UNL     1       1.818   8.081  19.300  0.00  0.00    +0.000 A 
ATOM      2  C   UNL     1       2.308   8.680  18.120  0.00  0.00    +0.000 A 
ATOM      3  C   UNL     1       2.129  10.033  17.848  0.00  0.00    +0.000 A 
ATOM      4  C   UNL     1       1.509  10.867  18.782  0.00  0.00    +0.000 A 
ATOM      5  C   UNL     1       1.123  10.336  20.037  0.00  0.00    +0.000 A 
ATOM      6  C   UNL     1       0.648  11.146  21.088  0.00  0.00    +0.000 A 
ATOM      7  N   UNL     1       0.166  10.706  22.269  0.00  0.00    +0.000 NA
ATOM      8  C   UNL     1       0.104   9.377  22.414  0.00  0.00    +0.000 A 
ATOM      9  C   UNL     1       0.572   8.483  21.465  0.00  0.00    +0.000 A 
ATOM     10  C   UNL     1       1.182   8.935  20.273  0.00  0.00    +0.000 A 
ENDROOT
BRANCH   1  15
ATOM     11  C   UNL     1       2.462   4.385  18.503  0.00  0.00    +0.000 A 
ATOM     12  C   UNL     1       2.190   3.779  19.733  0.00  0.00    +0.000 A 
ATOM     13  C   UNL     1       1.876   4.565  20.835  0.00  0.00    +0.000 A 
ATOM     14  C   UNL     1       1.825   5.958  20.711  0.00  0.00    +0.000 A 
ATOM     15  C   UNL     1       1.992   6.601  19.470  0.00  0.00    +0.000 A 
ATOM     16  C   UNL     1       2.342   5.780  18.377  0.00  0.00    +0.000 A 
BRANCH  11  17
ATOM     17  C   UNL     1       2.854   3.508  17.366  0.00  0.00    +0.000 C 
ATOM     18  O   UNL     1       2.284   2.463  17.094  0.00  0.00    +0.000 OA
BRANCH  17  20
ATOM     19  C   UNL     1       5.130   4.019  17.459  0.00  0.00    +0.000 C 
ATOM     20  O   UNL     1       3.918   4.027  16.704  0.00  0.00    +0.000 OA
ENDBRANCH  17  20
ENDBRANCH  11  17
ENDBRANCH   1  15
BRANCH   4  21
ATOM     21  C   UNL     1       1.209  12.291  18.382  0.00  0.00    +0.000 C 
BRANCH  21  22
ATOM     22  N   UNL     1       2.309  12.912  17.694  0.00  0.00    +0.000 N 
ATOM     23  C   UNL     1       3.183  13.682  18.426  0.00  0.00    +0.000 C 
ATOM     24  O   UNL     1       3.096  13.830  19.639  0.00  0.00    +0.000 OA
ATOM     25  N   UNL     1       4.098  14.298  17.603  0.00  0.00    +0.000 N 
ATOM     26  H   UNL     1       2.722  12.414  16.918  0.00  0.00    +0.000 HD
ATOM     27  H   UNL     1       3.689  14.573  16.717  0.00  0.00    +0.000 HD
BRANCH  25  28
ATOM     28  C   UNL     1       5.084  15.179  18.104  0.00  0.00    +0.000 A 
ATOM     29  C   UNL     1       4.717  16.399  18.679  0.00  0.00    +0.000 A 
ATOM     30  C   UNL     1       5.692  17.251  19.204  0.00  0.00    +0.000 A 
ATOM     31  C   UNL     1       7.039  16.890  19.134  0.00  0.00    +0.000 A 
ATOM     32  C   UNL     1       7.416  15.680  18.551  0.00  0.00    +0.000 A 
ATOM     33 CL   UNL     1       9.105  15.323  18.466  0.00  0.00    +0.000 Cl
ATOM     34  C   UNL     1       6.441  14.810  18.048  0.00  0.00    +0.000 A 
ATOM     35 CL   UNL     1       6.873  13.308  17.288  0.00  0.00    +0.000 Cl
ENDBRANCH  25  28
ENDBRANCH  21  22
ENDBRANCH   4  21
TORSDOF 6
ENDMDL
MODEL 6
REMARK VINA RESULT:      -8.4      1.024      1.254
REMARK  Name = 
REMARK  7 active torsions:
REMARK  status: ('A' for Active; 'I' for Inactive)
REMARK    1  A    between atoms: C_1  and  O_2
REMARK    2  A    between atoms: O_2  and  C_3
REMARK    3  A    between atoms: C_3  and  C_5
REMARK    4  A    between atoms: C_9  and  C_10
REMARK    5  A    between atoms: C_13  and  C_14
REMARK    6  A    between atoms: C_14  and  N_15
REMARK    7  A    between atoms: N_18  and  C_19
REMARK                            x       y       z     vdW  Elec       q    Type
REMARK                         _______ _______ _______ _____ _____    ______ ____
ROOT
ATOM      1  C   UNL     1       4.734   5.437  16.509  0.00  0.00    +0.000 A 
ATOM      2  C   UNL     1       4.567   6.807  16.802  0.00  0.00    +0.000 A 
ATOM      3  C   UNL     1       3.752   7.246  17.841  0.00  0.00    +0.000 A 
ATOM      4  C   UNL     1       3.119   6.327  18.681  0.00  0.00    +0.000 A 
ATOM      5  C   UNL     1       3.366   4.944  18.507  0.00  0.00    +0.000 A 
ATOM      6  C   UNL     1       2.899   3.971  19.413  0.00  0.00    +0.000 A 
ATOM      7  N   UNL     1       3.004   2.634  19.262  0.00  0.00    +0.000 NA
ATOM      8  C   UNL     1       3.566   2.220  18.120  0.00  0.00    +0.000 A 
ATOM      9  C   UNL     1       4.092   3.081  17.172  0.00  0.00    +0.000 A 
ATOM     10  C   UNL     1       4.088   4.481  17.373  0.00  0.00    +0.000 A 
ENDROOT
BRANCH   1  15
ATOM     11  C   UNL     1       5.799   3.925  13.147  0.00  0.00    +0.000 A 
ATOM     12  C   UNL     1       7.166   4.219  13.126  0.00  0.00    +0.000 A 
ATOM     13  C   UNL     1       7.727   4.968  14.154  0.00  0.00    +0.000 A 
ATOM     14  C   UNL     1       6.927   5.420  15.209  0.00  0.00    +0.000 A 
ATOM     15  C   UNL     1       5.571   5.062  15.321  0.00  0.00    +0.000 A 
ATOM     16  C   UNL     1       5.021   4.330  14.247  0.00  0.00    +0.000 A 
BRANCH  11  17
ATOM     17  C   UNL     1       5.230   3.173  11.996  0.00  0.00    +0.000 C 
ATOM     18  O   UNL     1       4.053   3.221  11.677  0.00  0.00    +0.000 OA
BRANCH  17  20
ATOM     19  C   UNL     1       5.898   1.041  11.318  0.00  0.00    +0.000 C 
ATOM     20  O   UNL     1       6.190   2.438  11.381  0.00  0.00    +0.000 OA
ENDBRANCH  17  20
ENDBRANCH  11  17
ENDBRANCH   1  15
BRANCH   4  21
ATOM     21  C   UNL     1       2.134   6.848  19.700  0.00  0.00    +0.000 C 
BRANCH  21  22
ATOM     22  N   UNL     1       1.844   8.246  19.519  0.00  0.00    +0.000 N 
ATOM     23  C   UNL     1       0.913   8.829  20.348  0.00  0.00    +0.000 C 
ATOM     24  O   UNL     1       0.352   8.230  21.257  0.00  0.00    +0.000 OA
ATOM     25  N   UNL     1       0.664  10.127  19.964  0.00  0.00    +0.000 N 
ATOM     26  H   UNL     1       2.598   8.851  19.228  0.00  0.00    +0.000 HD
ATOM     27  H   UNL     1       0.692  10.239  18.957  0.00  0.00    +0.000 HD
BRANCH  25  28
ATOM     28  C   UNL     1      -0.285  10.937  20.629  0.00  0.00    +0.000 A 
ATOM     29  C   UNL     1      -0.078  11.325  21.956  0.00  0.00    +0.000 A 
ATOM     30  C   UNL     1      -1.002  12.153  22.600  0.00  0.00    +0.000 A 
ATOM     31  C   UNL     1      -2.146  12.575  21.919  0.00  0.00    +0.000 A 
ATOM     32  C   UNL     1      -2.368  12.182  20.599  0.00  0.00    +0.000 A 
ATOM     33 CL   UNL     1      -3.827  12.713  19.839  0.00  0.00    +0.000 Cl
ATOM     34  C   UNL     1      -1.431  11.375  19.941  0.00  0.00    +0.000 A 
ATOM     35 CL   UNL     1      -1.687  10.841  18.307  0.00  0.00    +0.000 Cl
ENDBRANCH  25  28
ENDBRANCH  21  22
ENDBRANCH   4  21
TORSDOF 6
ENDMDL
MODEL 7
REMARK VINA RESULT:      -8.4      4.989     10.935
REMARK  Name = 
REMARK  7 active torsions:
REMARK  status: ('A' for Active; 'I' for Inactive)
REMARK    1  A    between atoms: C_1  and  O_2
REMARK    2  A    between atoms: O_2  and  C_3
REMARK    3  A    between atoms: C_3  and  C_5
REMARK    4  A    between atoms: C_9  and  C_10
REMARK    5  A    between atoms: C_13  and  C_14
REMARK    6  A    between atoms: C_14  and  N_15
REMARK    7  A    between atoms: N_18  and  C_19
REMARK                            x       y       z     vdW  Elec       q    Type
REMARK                         _______ _______ _______ _____ _____    ______ ____
ROOT
ATOM      1  C   UNL     1      -2.109  10.987  18.464  0.00  0.00    +0.000 A 
ATOM      2  C   UNL     1      -1.695  10.075  17.469  0.00  0.00    +0.000 A 
ATOM      3  C   UNL     1      -0.404   9.559  17.431  0.00  0.00    +0.000 A 
ATOM      4  C   UNL     1       0.517   9.880  18.431  0.00  0.00    +0.000 A 
ATOM      5  C   UNL     1       0.104  10.683  19.522  0.00  0.00    +0.000 A 
ATOM      6  C   UNL     1       0.921  10.910  20.648  0.00  0.00    +0.000 A 
ATOM      7  N   UNL     1       0.641  11.742  21.673  0.00  0.00    +0.000 NA
ATOM      8  C   UNL     1      -0.500  12.434  21.566  0.00  0.00    +0.000 A 
ATOM      9  C   UNL     1      -1.397  12.270  20.524  0.00  0.00    +0.000 A 
ATOM     10  C   UNL     1      -1.168  11.320  19.504  0.00  0.00    +0.000 A 
ENDROOT
BRANCH   1  15
ATOM     11  C   UNL     1      -5.486  12.494  19.483  0.00  0.00    +0.000 A 
ATOM     12  C   UNL     1      -6.177  12.487  18.269  0.00  0.00    +0.000 A 
ATOM     13  C   UNL     1      -5.532  12.070  17.110  0.00  0.00    +0.000 A 
ATOM     14  C   UNL     1      -4.198  11.652  17.162  0.00  0.00    +0.000 A 
ATOM     15  C   UNL     1      -3.497  11.548  18.379  0.00  0.00    +0.000 A 
ATOM     16  C   UNL     1      -4.166  12.010  19.532  0.00  0.00    +0.000 A 
BRANCH  11  17
ATOM     17  C   UNL     1      -6.197  13.007  20.687  0.00  0.00    +0.000 C 
ATOM     18  O   UNL     1      -6.487  14.181  20.848  0.00  0.00    +0.000 OA
BRANCH  17  20
ATOM     19  C   UNL     1      -7.813  11.555  21.544  0.00  0.00    +0.000 C 
ATOM     20  O   UNL     1      -6.455  11.999  21.557  0.00  0.00    +0.000 OA
ENDBRANCH  17  20
ENDBRANCH  11  17
ENDBRANCH   1  15
BRANCH   4  21
ATOM     21  C   UNL     1       1.944   9.413  18.269  0.00  0.00    +0.000 C 
BRANCH  21  22
ATOM     22  N   UNL     1       2.031   8.007  17.975  0.00  0.00    +0.000 N 
ATOM     23  C   UNL     1       2.027   7.122  19.029  0.00  0.00    +0.000 C 
ATOM     24  O   UNL     1       1.909   7.468  20.198  0.00  0.00    +0.000 OA
ATOM     25  N   UNL     1       2.241   5.837  18.586  0.00  0.00    +0.000 N 
ATOM     26  H   UNL     1       1.589   7.672  17.132  0.00  0.00    +0.000 HD
ATOM     27  H   UNL     1       2.888   5.804  17.808  0.00  0.00    +0.000 HD
BRANCH  25  28
ATOM     28  C   UNL     1       2.321   4.741  19.476  0.00  0.00    +0.000 A 
ATOM     29  C   UNL     1       1.250   4.434  20.320  0.00  0.00    +0.000 A 
ATOM     30  C   UNL     1       1.319   3.330  21.174  0.00  0.00    +0.000 A 
ATOM     31  C   UNL     1       2.474   2.545  21.198  0.00  0.00    +0.000 A 
ATOM     32  C   UNL     1       3.554   2.851  20.370  0.00  0.00    +0.000 A 
ATOM     33 CL   UNL     1       4.963   1.856  20.488  0.00  0.00    +0.000 Cl
ATOM     34  C   UNL     1       3.478   3.940  19.492  0.00  0.00    +0.000 A 
ATOM     35 CL   UNL     1       4.813   4.370  18.467  0.00  0.00    +0.000 Cl
ENDBRANCH  25  28
ENDBRANCH  21  22
ENDBRANCH   4  21
TORSDOF 6
ENDMDL
MODEL 8
REMARK VINA RESULT:      -8.3      2.949      3.769
REMARK  Name = 
REMARK  7 active torsions:
REMARK  status: ('A' for Active; 'I' for Inactive)
REMARK    1  A    between atoms: C_1  and  O_2
REMARK    2  A    between atoms: O_2  and  C_3
REMARK    3  A    between atoms: C_3  and  C_5
REMARK    4  A    between atoms: C_9  and  C_10
REMARK    5  A    between atoms: C_13  and  C_14
REMARK    6  A    between atoms: C_14  and  N_15
REMARK    7  A    between atoms: N_18  and  C_19
REMARK                            x       y       z     vdW  Elec       q    Type
REMARK                         _______ _______ _______ _____ _____    ______ ____
ROOT
ATOM      1  C   UNL     1       4.150   6.760  17.850  0.00  0.00    +0.000 A 
ATOM      2  C   UNL     1       3.898   8.034  17.299  0.00  0.00    +0.000 A 
ATOM      3  C   UNL     1       2.801   8.801  17.681  0.00  0.00    +0.000 A 
ATOM      4  C   UNL     1       1.941   8.354  18.687  0.00  0.00    +0.000 A 
ATOM      5  C   UNL     1       2.233   7.143  19.361  0.00  0.00    +0.000 A 
ATOM      6  C   UNL     1       1.510   6.713  20.492  0.00  0.00    +0.000 A 
ATOM      7  N   UNL     1       1.659   5.529  21.122  0.00  0.00    +0.000 NA
ATOM      8  C   UNL     1       2.548   4.689  20.580  0.00  0.00    +0.000 A 
ATOM      9  C   UNL     1       3.339   5.013  19.490  0.00  0.00    +0.000 A 
ATOM     10  C   UNL     1       3.271   6.292  18.892  0.00  0.00    +0.000 A 
ENDROOT
BRANCH   1  15
ATOM     11  C   UNL     1       6.520   4.970  15.422  0.00  0.00    +0.000 A 
ATOM     12  C   UNL     1       7.430   4.376  16.301  0.00  0.00    +0.000 A 
ATOM     13  C   UNL     1       7.325   4.613  17.666  0.00  0.00    +0.000 A 
ATOM     14  C   UNL     1       6.309   5.439  18.159  0.00  0.00    +0.000 A 
ATOM     15  C   UNL     1       5.314   5.975  17.320  0.00  0.00    +0.000 A 
ATOM     16  C   UNL     1       5.465   5.744  15.936  0.00  0.00    +0.000 A 
BRANCH  11  17
ATOM     17  C   UNL     1       6.707   4.736  13.963  0.00  0.00    +0.000 C 
ATOM     18  O   UNL     1       7.577   5.279  13.301  0.00  0.00    +0.000 OA
BRANCH  17  20
ATOM     19  C   UNL     1       6.107   3.301  12.222  0.00  0.00    +0.000 C 
ATOM     20  O   UNL     1       5.781   3.863  13.495  0.00  0.00    +0.000 OA
ENDBRANCH  17  20
ENDBRANCH  11  17
ENDBRANCH   1  15
BRANCH   4  21
ATOM     21  C   UNL     1       0.688   9.149  18.964  0.00  0.00    +0.000 C 
BRANCH  21  22
ATOM     22  N   UNL     1       0.670  10.407  18.264  0.00  0.00    +0.000 N 
ATOM     23  C   UNL     1       0.799  11.562  19.001  0.00  0.00    +0.000 C 
ATOM     24  O   UNL     1       0.971  11.571  20.213  0.00  0.00    +0.000 OA
ATOM     25  N   UNL     1       0.638  12.670  18.201  0.00  0.00    +0.000 N 
ATOM     26  H   UNL     1       1.077  10.439  17.341  0.00  0.00    +0.000 HD
ATOM     27  H   UNL     1      -0.055  12.521  17.477  0.00  0.00    +0.000 HD
BRANCH  25  28
ATOM     28  C   UNL     1       0.685  13.984  18.722  0.00  0.00    +0.000 A 
ATOM     29  C   UNL     1      -0.480  14.604  19.184  0.00  0.00    +0.000 A 
ATOM     30  C   UNL     1      -0.424  15.889  19.730  0.00  0.00    +0.000 A 
ATOM     31  C   UNL     1       0.797  16.563  19.793  0.00  0.00    +0.000 A 
ATOM     32  C   UNL     1       1.963  15.957  19.323  0.00  0.00    +0.000 A 
ATOM     33 CL   UNL     1       3.428  16.872  19.399  0.00  0.00    +0.000 Cl
ATOM     34  C   UNL     1       1.917  14.658  18.801  0.00  0.00    +0.000 A 
ATOM     35 CL   UNL     1       3.342  13.883  18.178  0.00  0.00    +0.000 Cl
ENDBRANCH  25  28
ENDBRANCH  21  22
ENDBRANCH   4  21
TORSDOF 6
ENDMDL
MODEL 9
REMARK VINA RESULT:      -8.2      3.911      6.491
REMARK  Name = 
REMARK  7 active torsions:
REMARK  status: ('A' for Active; 'I' for Inactive)
REMARK    1  A    between atoms: C_1  and  O_2
REMARK    2  A    between atoms: O_2  and  C_3
REMARK    3  A    between atoms: C_3  and  C_5
REMARK    4  A    between atoms: C_9  and  C_10
REMARK    5  A    between atoms: C_13  and  C_14
REMARK    6  A    between atoms: C_14  and  N_15
REMARK    7  A    between atoms: N_18  and  C_19
REMARK                            x       y       z     vdW  Elec       q    Type
REMARK                         _______ _______ _______ _____ _____    ______ ____
ROOT
ATOM      1  C   UNL     1       1.469   8.499  19.027  0.00  0.00    +0.000 A 
ATOM      2  C   UNL     1       0.862   9.057  17.882  0.00  0.00    +0.000 A 
ATOM      3  C   UNL     1      -0.161   9.997  17.972  0.00  0.00    +0.000 A 
ATOM      4  C   UNL     1      -0.576  10.475  19.217  0.00  0.00    +0.000 A 
ATOM      5  C   UNL     1       0.098  10.043  20.385  0.00  0.00    +0.000 A 
ATOM      6  C   UNL     1      -0.151  10.604  21.654  0.00  0.00    +0.000 A 
ATOM      7  N   UNL     1       0.372  10.178  22.823  0.00  0.00    +0.000 NA
ATOM      8  C   UNL     1       1.160   9.099  22.749  0.00  0.00    +0.000 A 
ATOM      9  C   UNL     1       1.503   8.484  21.557  0.00  0.00    +0.000 A 
ATOM     10  C   UNL     1       1.051   8.990  20.317  0.00  0.00    +0.000 A 
ENDROOT
BRANCH   1  15
ATOM     11  C   UNL     1       4.412   6.523  17.561  0.00  0.00    +0.000 A 
ATOM     12  C   UNL     1       4.402   5.372  18.353  0.00  0.00    +0.000 A 
ATOM     13  C   UNL     1       3.500   5.266  19.405  0.00  0.00    +0.000 A 
ATOM     14  C   UNL     1       2.601   6.306  19.666  0.00  0.00    +0.000 A 
ATOM     15  C   UNL     1       2.510   7.437  18.832  0.00  0.00    +0.000 A 
ATOM     16  C   UNL     1       3.459   7.531  17.792  0.00  0.00    +0.000 A 
BRANCH  11  17
ATOM     17  C   UNL     1       5.435   6.619  16.484  0.00  0.00    +0.000 C 
ATOM     18  O   UNL     1       5.165   6.861  15.319  0.00  0.00    +0.000 OA
BRANCH  17  20
ATOM     19  C   UNL     1       7.333   7.566  17.460  0.00  0.00    +0.000 C 
ATOM     20  O   UNL     1       6.677   6.392  16.980  0.00  0.00    +0.000 OA
ENDBRANCH  17  20
ENDBRANCH  11  17
ENDBRANCH   1  15
BRANCH   4  21
ATOM     21  C   UNL     1      -1.782  11.382  19.271  0.00  0.00    +0.000 C 
BRANCH  21  22
ATOM     22  N   UNL     1      -1.456  12.702  19.739  0.00  0.00    +0.000 N 
ATOM     23  C   UNL     1      -0.835  13.566  18.866  0.00  0.00    +0.000 C 
ATOM     24  O   UNL     1      -0.587  13.282  17.701  0.00  0.00    +0.000 OA
ATOM     25  N   UNL     1      -0.484  14.734  19.503  0.00  0.00    +0.000 N 
ATOM     26  H   UNL     1      -2.082  13.137  20.400  0.00  0.00    +0.000 HD
ATOM     27  H   UNL     1      -0.194  14.574  20.461  0.00  0.00    +0.000 HD
BRANCH  25  28
ATOM     28  C   UNL     1       0.204  15.774  18.837  0.00  0.00    +0.000 A 
ATOM     29  C   UNL     1      -0.503  16.825  18.244  0.00  0.00    +0.000 A 
ATOM     30  C   UNL     1       0.181  17.868  17.616  0.00  0.00    +0.000 A 
ATOM     31  C   UNL     1       1.577  17.849  17.562  0.00  0.00    +0.000 A 
ATOM     32  C   UNL     1       2.291  16.798  18.139  0.00  0.00    +0.000 A 
ATOM     33 CL   UNL     1       4.013  16.825  17.995  0.00  0.00    +0.000 Cl
ATOM     34  C   UNL     1       1.610  15.764  18.794  0.00  0.00    +0.000 A 
ATOM     35 CL   UNL     1       2.463  14.423  19.499  0.00  0.00    +0.000 Cl
ENDBRANCH  25  28
ENDBRANCH  21  22
ENDBRANCH   4  21
TORSDOF 6
ENDMDL
