MODEL 1
REMARK VINA RESULT:      -8.4      0.000      0.000
REMARK  Name = 
REMARK  5 active torsions:
REMARK  status: ('A' for Active; 'I' for Inactive)
REMARK    1  A    between atoms: C_1  and  O_2
REMARK    2  A    between atoms: O_2  and  C_3
REMARK    3  A    between atoms: C_6  and  C_7
REMARK    4  A    between atoms: N_15  and  C_16
REMARK    5  A    between atoms: C_28  and  C_29
REMARK                            x       y       z     vdW  Elec       q    Type
REMARK                         _______ _______ _______ _____ _____    ______ ____
ROOT
ATOM      1  C   UNL     1       1.115   9.470  19.643  0.00  0.00    +0.000 A 
ATOM      2  C   UNL     1       0.371   8.923  20.693  0.00  0.00    +0.000 A 
ATOM      3  C   UNL     1       0.584   7.607  21.117  0.00  0.00    +0.000 A 
ATOM      4  C   UNL     1       1.541   6.794  20.529  0.00  0.00    +0.000 A 
ATOM      5  N   UNL     1       1.675   5.545  20.979  0.00  0.00    +0.000 NA
ATOM      6  C   UNL     1       2.610   4.799  20.388  0.00  0.00    +0.000 A 
ATOM      7  N   UNL     1       3.434   5.193  19.414  0.00  0.00    +0.000 NA
ATOM      8  C   UNL     1       3.301   6.455  18.968  0.00  0.00    +0.000 A 
ATOM      9  N   UNL     1       4.145   6.917  17.923  0.00  0.00    +0.000 N 
ATOM     10  C   UNL     1       2.320   7.319  19.493  0.00  0.00    +0.000 A 
ATOM     11  C   UNL     1       2.083   8.645  19.052  0.00  0.00    +0.000 A 
ATOM     12  H   UNL     1       4.492   7.846  18.119  0.00  0.00    +0.000 HD
ENDROOT
BRANCH   9  13
ATOM     13  C   UNL     1       5.030   6.180  17.104  0.00  0.00    +0.000 A 
ATOM     14  C   UNL     1       4.831   6.057  15.716  0.00  0.00    +0.000 A 
ATOM     15  C   UNL     1       5.675   5.307  14.896  0.00  0.00    +0.000 A 
ATOM     16  C   UNL     1       6.799   4.669  15.416  0.00  0.00    +0.000 A 
ATOM     17  C   UNL     1       7.040   4.842  16.779  0.00  0.00    +0.000 A 
ATOM     18  N   UNL     1       8.057   4.383  17.577  0.00  0.00    +0.000 N 
ATOM     19  N   UNL     1       7.964   4.765  18.860  0.00  0.00    +0.000 NA
ATOM     20  C   UNL     1       6.840   5.487  18.884  0.00  0.00    +0.000 A 
ATOM     21  C   UNL     1       6.203   5.572  17.621  0.00  0.00    +0.000 A 
ATOM     22  H   UNL     1       8.846   3.812  17.298  0.00  0.00    +0.000 HD
ENDBRANCH   9  13
BRANCH   1  26
ATOM     23  C   UNL     1       0.588  13.590  18.512  0.00  0.00    +0.000 A 
ATOM     24  C   UNL     1      -0.517  12.776  18.772  0.00  0.00    +0.000 A 
ATOM     25  C   UNL     1      -0.344  11.438  19.128  0.00  0.00    +0.000 A 
ATOM     26  C   UNL     1       0.932  10.863  19.195  0.00  0.00    +0.000 A 
ATOM     27  C   UNL     1       2.029  11.678  18.861  0.00  0.00    +0.000 A 
ATOM     28  C   UNL     1       1.875  13.037  18.537  0.00  0.00    +0.000 A 
ATOM     29  C   UNL     1       3.093  13.861  18.218  0.00  0.00    +0.000 C 
BRANCH  23  31
ATOM     30  C   UNL     1      -0.317  15.679  19.117  0.00  0.00    +0.000 C 
ATOM     31  O   UNL     1       0.485  14.923  18.211  0.00  0.00    +0.000 OA
ENDBRANCH  23  31
ENDBRANCH   1  26
TORSDOF 3
ENDMDL
MODEL 2
REMARK VINA RESULT:      -8.2      0.580      1.336
REMARK  Name = 
REMARK  5 active torsions:
REMARK  status: ('A' for Active; 'I' for Inactive)
REMARK    1  A    between atoms: C_1  and  O_2
REMARK    2  A    between atoms: O_2  and  C_3
REMARK    3  A    between atoms: C_6  and  C_7
REMARK    4  A    between atoms: N_15  and  C_16
REMARK    5  A    between atoms: C_28  and  C_29
REMARK                            x       y       z     vdW  Elec       q    Type
REMARK                         _______ _______ _______ _____ _____    ______ ____
ROOT
ATOM      1  C   UNL     1       1.134   9.239  19.898  0.00  0.00    +0.000 A 
ATOM      2  C   UNL     1       0.398   8.621  20.914  0.00  0.00    +0.000 A 
ATOM      3  C   UNL     1       0.611   7.277  21.241  0.00  0.00    +0.000 A 
ATOM      4  C   UNL     1       1.559   6.505  20.588  0.00  0.00    +0.000 A 
ATOM      5  N   UNL     1       1.692   5.227  20.946  0.00  0.00    +0.000 NA
ATOM      6  C   UNL     1       2.619   4.522  20.294  0.00  0.00    +0.000 A 
ATOM      7  N   UNL     1       3.435   4.983  19.342  0.00  0.00    +0.000 NA
ATOM      8  C   UNL     1       3.302   6.273  18.988  0.00  0.00    +0.000 A 
ATOM      9  N   UNL     1       4.138   6.806  17.970  0.00  0.00    +0.000 N 
ATOM     10  C   UNL     1       2.330   7.100  19.583  0.00  0.00    +0.000 A 
ATOM     11  C   UNL     1       2.094   8.456  19.240  0.00  0.00    +0.000 A 
ATOM     12  H   UNL     1       4.490   7.718  18.229  0.00  0.00    +0.000 HD
ENDROOT
BRANCH   9  13
ATOM     13  C   UNL     1       5.012   6.126  17.092  0.00  0.00    +0.000 A 
ATOM     14  C   UNL     1       4.782   6.076  15.705  0.00  0.00    +0.000 A 
ATOM     15  C   UNL     1       5.616   5.383  14.826  0.00  0.00    +0.000 A 
ATOM     16  C   UNL     1       6.758   4.733  15.285  0.00  0.00    +0.000 A 
ATOM     17  C   UNL     1       7.030   4.834  16.649  0.00  0.00    +0.000 A 
ATOM     18  N   UNL     1       8.070   4.346  17.397  0.00  0.00    +0.000 N 
ATOM     19  N   UNL     1       8.003   4.656  18.701  0.00  0.00    +0.000 NA
ATOM     20  C   UNL     1       6.871   5.361  18.790  0.00  0.00    +0.000 A 
ATOM     21  C   UNL     1       6.204   5.506  17.548  0.00  0.00    +0.000 A 
ATOM     22  H   UNL     1       8.860   3.801  17.069  0.00  0.00    +0.000 HD
ENDBRANCH   9  13
BRANCH   1  26
ATOM     23  C   UNL     1       0.502  13.337  18.742  0.00  0.00    +0.000 A 
ATOM     24  C   UNL     1       1.612  12.629  18.276  0.00  0.00    +0.000 A 
ATOM     25  C   UNL     1       1.821  11.304  18.661  0.00  0.00    +0.000 A 
ATOM     26  C   UNL     1       0.952  10.660  19.552  0.00  0.00    +0.000 A 
ATOM     27  C   UNL     1      -0.121  11.411  20.066  0.00  0.00    +0.000 A 
ATOM     28  C   UNL     1      -0.368  12.733  19.660  0.00  0.00    +0.000 A 
ATOM     29  C   UNL     1      -1.551  13.471  20.226  0.00  0.00    +0.000 C 
BRANCH  23  31
ATOM     30  C   UNL     1       1.146  15.601  18.807  0.00  0.00    +0.000 C 
ATOM     31  O   UNL     1       0.214  14.620  18.357  0.00  0.00    +0.000 OA
ENDBRANCH  23  31
ENDBRANCH   1  26
TORSDOF 3
ENDMDL
MODEL 3
REMARK VINA RESULT:      -8.1      4.665      8.763
REMARK  Name = 
REMARK  5 active torsions:
REMARK  status: ('A' for Active; 'I' for Inactive)
REMARK    1  A    between atoms: C_1  and  O_2
REMARK    2  A    between atoms: O_2  and  C_3
REMARK    3  A    between atoms: C_6  and  C_7
REMARK    4  A    between atoms: N_15  and  C_16
REMARK    5  A    between atoms: C_28  and  C_29
REMARK                            x       y       z     vdW  Elec       q    Type
REMARK                         _______ _______ _______ _____ _____    ______ ____
ROOT
ATOM      1  C   UNL     1       0.737   9.263  21.051  0.00  0.00    +0.000 A 
ATOM      2  C   UNL     1       0.084   9.000  22.259  0.00  0.00    +0.000 A 
ATOM      3  C   UNL     1      -0.547  10.024  22.975  0.00  0.00    +0.000 A 
ATOM      4  C   UNL     1      -0.563  11.333  22.519  0.00  0.00    +0.000 A 
ATOM      5  N   UNL     1      -1.172  12.256  23.265  0.00  0.00    +0.000 NA
ATOM      6  C   UNL     1      -1.167  13.502  22.787  0.00  0.00    +0.000 A 
ATOM      7  N   UNL     1      -0.635  13.900  21.629  0.00  0.00    +0.000 NA
ATOM      8  C   UNL     1      -0.028  12.966  20.876  0.00  0.00    +0.000 A 
ATOM      9  N   UNL     1       0.565  13.342  19.641  0.00  0.00    +0.000 N 
ATOM     10  C   UNL     1       0.060  11.626  21.301  0.00  0.00    +0.000 A 
ATOM     11  C   UNL     1       0.718  10.589  20.592  0.00  0.00    +0.000 A 
ATOM     12  H   UNL     1       0.346  12.675  18.914  0.00  0.00    +0.000 HD
ENDROOT
BRANCH   9  13
ATOM     13  C   UNL     1       0.794  14.638  19.124  0.00  0.00    +0.000 A 
ATOM     14  C   UNL     1      -0.259  15.539  18.881  0.00  0.00    +0.000 A 
ATOM     15  C   UNL     1      -0.056  16.809  18.340  0.00  0.00    +0.000 A 
ATOM     16  C   UNL     1       1.226  17.268  18.052  0.00  0.00    +0.000 A 
ATOM     17  C   UNL     1       2.281  16.407  18.353  0.00  0.00    +0.000 A 
ATOM     18  N   UNL     1       3.637  16.566  18.223  0.00  0.00    +0.000 N 
ATOM     19  N   UNL     1       4.357  15.510  18.632  0.00  0.00    +0.000 NA
ATOM     20  C   UNL     1       3.424  14.640  19.030  0.00  0.00    +0.000 A 
ATOM     21  C   UNL     1       2.102  15.128  18.877  0.00  0.00    +0.000 A 
ATOM     22  H   UNL     1       4.129  17.379  17.868  0.00  0.00    +0.000 HD
ENDBRANCH   9  13
BRANCH   1  26
ATOM     23  C   UNL     1       2.791   6.209  18.817  0.00  0.00    +0.000 A 
ATOM     24  C   UNL     1       2.583   7.476  18.267  0.00  0.00    +0.000 A 
ATOM     25  C   UNL     1       1.907   8.461  18.988  0.00  0.00    +0.000 A 
ATOM     26  C   UNL     1       1.385   8.199  20.262  0.00  0.00    +0.000 A 
ATOM     27  C   UNL     1       1.541   6.897  20.772  0.00  0.00    +0.000 A 
ATOM     28  C   UNL     1       2.252   5.905  20.074  0.00  0.00    +0.000 A 
ATOM     29  C   UNL     1       2.408   4.541  20.689  0.00  0.00    +0.000 C 
BRANCH  23  31
ATOM     30  C   UNL     1       4.869   5.516  17.952  0.00  0.00    +0.000 C 
ATOM     31  O   UNL     1       3.493   5.220  18.181  0.00  0.00    +0.000 OA
ENDBRANCH  23  31
ENDBRANCH   1  26
TORSDOF 3
ENDMDL
MODEL 4
REMARK VINA RESULT:      -8.1      3.741      8.393
REMARK  Name = 
REMARK  5 active torsions:
REMARK  status: ('A' for Active; 'I' for Inactive)
REMARK    1  A    between atoms: C_1  and  O_2
REMARK    2  A    between atoms: O_2  and  C_3
REMARK    3  A    between atoms: C_6  and  C_7
REMARK    4  A    between atoms: N_15  and  C_16
REMARK    5  A    between atoms: C_28  and  C_29
REMARK                            x       y       z     vdW  Elec       q    Type
REMARK                         _______ _______ _______ _____ _____    ______ ____
ROOT
ATOM      1  C   UNL     1       4.446   3.779  17.097  0.00  0.00    +0.000 A 
ATOM      2  C   UNL     1       4.285   2.457  17.523  0.00  0.00    +0.000 A 
ATOM      3  C   UNL     1       3.463   2.146  18.611  0.00  0.00    +0.000 A 
ATOM      4  C   UNL     1       2.769   3.124  19.307  0.00  0.00    +0.000 A 
ATOM      5  N   UNL     1       2.018   2.751  20.345  0.00  0.00    +0.000 NA
ATOM      6  C   UNL     1       1.364   3.724  20.983  0.00  0.00    +0.000 A 
ATOM      7  N   UNL     1       1.373   5.020  20.666  0.00  0.00    +0.000 NA
ATOM      8  C   UNL     1       2.127   5.392  19.616  0.00  0.00    +0.000 A 
ATOM      9  N   UNL     1       2.180   6.763  19.247  0.00  0.00    +0.000 N 
ATOM     10  C   UNL     1       2.889   4.455  18.892  0.00  0.00    +0.000 A 
ATOM     11  C   UNL     1       3.742   4.766  17.803  0.00  0.00    +0.000 A 
ATOM     12  H   UNL     1       2.107   6.873  18.245  0.00  0.00    +0.000 HD
ENDROOT
BRANCH   9  13
ATOM     13  C   UNL     1       1.691   7.890  19.944  0.00  0.00    +0.000 A 
ATOM     14  C   UNL     1       1.353   7.832  21.309  0.00  0.00    +0.000 A 
ATOM     15  C   UNL     1       0.837   8.925  22.007  0.00  0.00    +0.000 A 
ATOM     16  C   UNL     1       0.670  10.159  21.383  0.00  0.00    +0.000 A 
ATOM     17  C   UNL     1       1.065  10.243  20.048  0.00  0.00    +0.000 A 
ATOM     18  N   UNL     1       1.062  11.300  19.175  0.00  0.00    +0.000 N 
ATOM     19  N   UNL     1       1.533  11.006  17.953  0.00  0.00    +0.000 NA
ATOM     20  C   UNL     1       1.841   9.709  18.048  0.00  0.00    +0.000 A 
ATOM     21  C   UNL     1       1.567   9.161  19.327  0.00  0.00    +0.000 A 
ATOM     22  H   UNL     1       0.757  12.249  19.360  0.00  0.00    +0.000 HD
ENDBRANCH   9  13
BRANCH   1  26
ATOM     23  C   UNL     1       6.989   4.659  13.737  0.00  0.00    +0.000 A 
ATOM     24  C   UNL     1       7.282   5.169  15.003  0.00  0.00    +0.000 A 
ATOM     25  C   UNL     1       6.450   4.892  16.089  0.00  0.00    +0.000 A 
ATOM     26  C   UNL     1       5.282   4.132  15.935  0.00  0.00    +0.000 A 
ATOM     27  C   UNL     1       4.966   3.686  14.639  0.00  0.00    +0.000 A 
ATOM     28  C   UNL     1       5.812   3.925  13.542  0.00  0.00    +0.000 A 
ATOM     29  C   UNL     1       5.430   3.395  12.187  0.00  0.00    +0.000 C 
BRANCH  23  31
ATOM     30  C   UNL     1       8.630   6.005  12.716  0.00  0.00    +0.000 C 
ATOM     31  O   UNL     1       7.795   4.851  12.645  0.00  0.00    +0.000 OA
ENDBRANCH  23  31
ENDBRANCH   1  26
TORSDOF 3
ENDMDL
MODEL 5
REMARK VINA RESULT:      -7.9      4.522      8.966
REMARK  Name = 
REMARK  5 active torsions:
REMARK  status: ('A' for Active; 'I' for Inactive)
REMARK    1  A    between atoms: C_1  and  O_2
REMARK    2  A    between atoms: O_2  and  C_3
REMARK    3  A    between atoms: C_6  and  C_7
REMARK    4  A    between atoms: N_15  and  C_16
REMARK    5  A    between atoms: C_28  and  C_29
REMARK                            x       y       z     vdW  Elec       q    Type
REMARK                         _______ _______ _______ _____ _____    ______ ____
ROOT
ATOM      1  C   UNL     1       0.847   8.754  21.061  0.00  0.00    +0.000 A 
ATOM      2  C   UNL     1      -0.066   8.518  22.093  0.00  0.00    +0.000 A 
ATOM      3  C   UNL     1      -0.687   9.579  22.761  0.00  0.00    +0.000 A 
ATOM      4  C   UNL     1      -0.436  10.901  22.428  0.00  0.00    +0.000 A 
ATOM      5  N   UNL     1      -1.056  11.858  23.122  0.00  0.00    +0.000 NA
ATOM      6  C   UNL     1      -0.788  13.116  22.766  0.00  0.00    +0.000 A 
ATOM      7  N   UNL     1       0.015  13.499  21.771  0.00  0.00    +0.000 NA
ATOM      8  C   UNL     1       0.633  12.533  21.070  0.00  0.00    +0.000 A 
ATOM      9  N   UNL     1       1.508  12.891  20.010  0.00  0.00    +0.000 N 
ATOM     10  C   UNL     1       0.454  11.171  21.383  0.00  0.00    +0.000 A 
ATOM     11  C   UNL     1       1.098  10.093  20.726  0.00  0.00    +0.000 A 
ATOM     12  H   UNL     1       1.355  12.308  19.198  0.00  0.00    +0.000 HD
ENDROOT
BRANCH   9  13
ATOM     13  C   UNL     1       2.008  14.167  19.663  0.00  0.00    +0.000 A 
ATOM     14  C   UNL     1       3.373  14.489  19.784  0.00  0.00    +0.000 A 
ATOM     15  C   UNL     1       3.880  15.752  19.478  0.00  0.00    +0.000 A 
ATOM     16  C   UNL     1       3.051  16.759  18.990  0.00  0.00    +0.000 A 
ATOM     17  C   UNL     1       1.709  16.427  18.804  0.00  0.00    +0.000 A 
ATOM     18  N   UNL     1       0.660  17.164  18.319  0.00  0.00    +0.000 N 
ATOM     19  N   UNL     1      -0.506  16.500  18.273  0.00  0.00    +0.000 NA
ATOM     20  C   UNL     1      -0.189  15.294  18.756  0.00  0.00    +0.000 A 
ATOM     21  C   UNL     1       1.176  15.178  19.118  0.00  0.00    +0.000 A 
ATOM     22  H   UNL     1       0.682  18.125  17.995  0.00  0.00    +0.000 HD
ENDBRANCH   9  13
BRANCH   1  26
ATOM     23  C   UNL     1       2.893   5.585  18.986  0.00  0.00    +0.000 A 
ATOM     24  C   UNL     1       2.836   6.871  18.443  0.00  0.00    +0.000 A 
ATOM     25  C   UNL     1       2.162   7.894  19.112  0.00  0.00    +0.000 A 
ATOM     26  C   UNL     1       1.494   7.655  20.320  0.00  0.00    +0.000 A 
ATOM     27  C   UNL     1       1.502   6.338  20.816  0.00  0.00    +0.000 A 
ATOM     28  C   UNL     1       2.207   5.305  20.174  0.00  0.00    +0.000 A 
ATOM     29  C   UNL     1       2.200   3.925  20.773  0.00  0.00    +0.000 C 
BRANCH  23  31
ATOM     30  C   UNL     1       4.912   4.880  17.999  0.00  0.00    +0.000 C 
ATOM     31  O   UNL     1       3.583   4.555  18.403  0.00  0.00    +0.000 OA
ENDBRANCH  23  31
ENDBRANCH   1  26
TORSDOF 3
ENDMDL
MODEL 6
REMARK VINA RESULT:      -7.8      4.917      8.642
REMARK  Name = 
REMARK  5 active torsions:
REMARK  status: ('A' for Active; 'I' for Inactive)
REMARK    1  A    between atoms: C_1  and  O_2
REMARK    2  A    between atoms: O_2  and  C_3
REMARK    3  A    between atoms: C_6  and  C_7
REMARK    4  A    between atoms: N_15  and  C_16
REMARK    5  A    between atoms: C_28  and  C_29
REMARK                            x       y       z     vdW  Elec       q    Type
REMARK                         _______ _______ _______ _____ _____    ______ ____
ROOT
ATOM      1  C   UNL     1       0.675   9.189  21.295  0.00  0.00    +0.000 A 
ATOM      2  C   UNL     1      -0.043   8.956  22.471  0.00  0.00    +0.000 A 
ATOM      3  C   UNL     1      -0.704   9.998  23.130  0.00  0.00    +0.000 A 
ATOM      4  C   UNL     1      -0.687  11.297  22.646  0.00  0.00    +0.000 A 
ATOM      5  N   UNL     1      -1.328  12.240  23.339  0.00  0.00    +0.000 NA
ATOM      6  C   UNL     1      -1.289  13.475  22.835  0.00  0.00    +0.000 A 
ATOM      7  N   UNL     1      -0.694  13.845  21.699  0.00  0.00    +0.000 NA
ATOM      8  C   UNL     1      -0.054  12.891  21.000  0.00  0.00    +0.000 A 
ATOM      9  N   UNL     1       0.606  13.237  19.790  0.00  0.00    +0.000 N 
ATOM     10  C   UNL     1       0.002  11.560  21.457  0.00  0.00    +0.000 A 
ATOM     11  C   UNL     1       0.690  10.504  20.807  0.00  0.00    +0.000 A 
ATOM     12  H   UNL     1       0.422  12.555  19.067  0.00  0.00    +0.000 HD
ENDROOT
BRANCH   9  13
ATOM     13  C   UNL     1       0.872  14.520  19.259  0.00  0.00    +0.000 A 
ATOM     14  C   UNL     1      -0.162  15.388  18.859  0.00  0.00    +0.000 A 
ATOM     15  C   UNL     1       0.081  16.644  18.302  0.00  0.00    +0.000 A 
ATOM     16  C   UNL     1       1.380  17.123  18.153  0.00  0.00    +0.000 A 
ATOM     17  C   UNL     1       2.407  16.297  18.609  0.00  0.00    +0.000 A 
ATOM     18  N   UNL     1       3.765  16.483  18.637  0.00  0.00    +0.000 N 
ATOM     19  N   UNL     1       4.451  15.458  19.167  0.00  0.00    +0.000 NA
ATOM     20  C   UNL     1       3.493  14.579  19.481  0.00  0.00    +0.000 A 
ATOM     21  C   UNL     1       2.190  15.032  19.153  0.00  0.00    +0.000 A 
ATOM     22  H   UNL     1       4.281  17.294  18.315  0.00  0.00    +0.000 HD
ENDBRANCH   9  13
BRANCH   1  26
ATOM     23  C   UNL     1       2.506   5.989  19.072  0.00  0.00    +0.000 A 
ATOM     24  C   UNL     1       1.898   5.742  20.305  0.00  0.00    +0.000 A 
ATOM     25  C   UNL     1       1.315   6.783  21.029  0.00  0.00    +0.000 A 
ATOM     26  C   UNL     1       1.357   8.104  20.564  0.00  0.00    +0.000 A 
ATOM     27  C   UNL     1       2.035   8.345  19.355  0.00  0.00    +0.000 A 
ATOM     28  C   UNL     1       2.595   7.303  18.595  0.00  0.00    +0.000 A 
ATOM     29  C   UNL     1       3.281   7.625  17.296  0.00  0.00    +0.000 C 
BRANCH  23  31
ATOM     30  C   UNL     1       2.102   4.074  17.762  0.00  0.00    +0.000 C 
ATOM     31  O   UNL     1       3.048   5.002  18.291  0.00  0.00    +0.000 OA
ENDBRANCH  23  31
ENDBRANCH   1  26
TORSDOF 3
ENDMDL
MODEL 7
REMARK VINA RESULT:      -7.8      4.516      8.498
REMARK  Name = 
REMARK  5 active torsions:
REMARK  status: ('A' for Active; 'I' for Inactive)
REMARK    1  A    between atoms: C_1  and  O_2
REMARK    2  A    between atoms: O_2  and  C_3
REMARK    3  A    between atoms: C_6  and  C_7
REMARK    4  A    between atoms: N_15  and  C_16
REMARK    5  A    between atoms: C_28  and  C_29
REMARK                            x       y       z     vdW  Elec       q    Type
REMARK                         _______ _______ _______ _____ _____    ______ ____
ROOT
ATOM      1  C   UNL     1       0.925   8.589  21.033  0.00  0.00    +0.000 A 
ATOM      2  C   UNL     1      -0.037   8.362  22.022  0.00  0.00    +0.000 A 
ATOM      3  C   UNL     1      -0.667   9.429  22.672  0.00  0.00    +0.000 A 
ATOM      4  C   UNL     1      -0.378  10.750  22.362  0.00  0.00    +0.000 A 
ATOM      5  N   UNL     1      -1.009  11.712  23.036  0.00  0.00    +0.000 NA
ATOM      6  C   UNL     1      -0.704  12.968  22.703  0.00  0.00    +0.000 A 
ATOM      7  N   UNL     1       0.150  13.344  21.747  0.00  0.00    +0.000 NA
ATOM      8  C   UNL     1       0.779  12.371  21.066  0.00  0.00    +0.000 A 
ATOM      9  N   UNL     1       1.708  12.722  20.048  0.00  0.00    +0.000 N 
ATOM     10  C   UNL     1       0.562  11.011  21.359  0.00  0.00    +0.000 A 
ATOM     11  C   UNL     1       1.215   9.926  20.721  0.00  0.00    +0.000 A 
ATOM     12  H   UNL     1       1.579  12.148  19.226  0.00  0.00    +0.000 HD
ENDROOT
BRANCH   9  13
ATOM     13  C   UNL     1       2.245  13.990  19.735  0.00  0.00    +0.000 A 
ATOM     14  C   UNL     1       1.704  14.797  18.716  0.00  0.00    +0.000 A 
ATOM     15  C   UNL     1       2.241  16.038  18.370  0.00  0.00    +0.000 A 
ATOM     16  C   UNL     1       3.331  16.564  19.058  0.00  0.00    +0.000 A 
ATOM     17  C   UNL     1       3.832  15.801  20.113  0.00  0.00    +0.000 A 
ATOM     18  N   UNL     1       4.856  16.044  20.991  0.00  0.00    +0.000 N 
ATOM     19  N   UNL     1       5.048  15.072  21.896  0.00  0.00    +0.000 NA
ATOM     20  C   UNL     1       4.116  14.168  21.577  0.00  0.00    +0.000 A 
ATOM     21  C   UNL     1       3.323  14.552  20.466  0.00  0.00    +0.000 A 
ATOM     22  H   UNL     1       5.454  16.862  21.026  0.00  0.00    +0.000 HD
ENDBRANCH   9  13
BRANCH   1  26
ATOM     23  C   UNL     1       3.004   5.404  19.018  0.00  0.00    +0.000 A 
ATOM     24  C   UNL     1       2.959   6.686  18.465  0.00  0.00    +0.000 A 
ATOM     25  C   UNL     1       2.275   7.714  19.115  0.00  0.00    +0.000 A 
ATOM     26  C   UNL     1       1.584   7.485  20.312  0.00  0.00    +0.000 A 
ATOM     27  C   UNL     1       1.581   6.171  20.817  0.00  0.00    +0.000 A 
ATOM     28  C   UNL     1       2.295   5.133  20.196  0.00  0.00    +0.000 A 
ATOM     29  C   UNL     1       2.275   3.757  20.804  0.00  0.00    +0.000 C 
BRANCH  23  31
ATOM     30  C   UNL     1       5.122   4.511  18.502  0.00  0.00    +0.000 C 
ATOM     31  O   UNL     1       3.703   4.368  18.456  0.00  0.00    +0.000 OA
ENDBRANCH  23  31
ENDBRANCH   1  26
TORSDOF 3
ENDMDL
MODEL 8
REMARK VINA RESULT:      -7.7      4.606      8.814
REMARK  Name = 
REMARK  5 active torsions:
REMARK  status: ('A' for Active; 'I' for Inactive)
REMARK    1  A    between atoms: C_1  and  O_2
REMARK    2  A    between atoms: O_2  and  C_3
REMARK    3  A    between atoms: C_6  and  C_7
REMARK    4  A    between atoms: N_15  and  C_16
REMARK    5  A    between atoms: C_28  and  C_29
REMARK                            x       y       z     vdW  Elec       q    Type
REMARK                         _______ _______ _______ _____ _____    ______ ____
ROOT
ATOM      1  C   UNL     1       0.915   8.633  21.097  0.00  0.00    +0.000 A 
ATOM      2  C   UNL     1      -0.025   8.385  22.103  0.00  0.00    +0.000 A 
ATOM      3  C   UNL     1      -0.677   9.438  22.754  0.00  0.00    +0.000 A 
ATOM      4  C   UNL     1      -0.431  10.763  22.430  0.00  0.00    +0.000 A 
ATOM      5  N   UNL     1      -1.081  11.712  23.108  0.00  0.00    +0.000 NA
ATOM      6  C   UNL     1      -0.818  12.973  22.760  0.00  0.00    +0.000 A 
ATOM      7  N   UNL     1       0.009  13.368  21.789  0.00  0.00    +0.000 NA
ATOM      8  C   UNL     1       0.657  12.409  21.104  0.00  0.00    +0.000 A 
ATOM      9  N   UNL     1       1.558  12.779  20.070  0.00  0.00    +0.000 N 
ATOM     10  C   UNL     1       0.485  11.045  21.411  0.00  0.00    +0.000 A 
ATOM     11  C   UNL     1       1.159   9.975  20.771  0.00  0.00    +0.000 A 
ATOM     12  H   UNL     1       1.434  12.195  19.254  0.00  0.00    +0.000 HD
ENDROOT
BRANCH   9  13
ATOM     13  C   UNL     1       2.053  14.061  19.739  0.00  0.00    +0.000 A 
ATOM     14  C   UNL     1       3.412  14.394  19.888  0.00  0.00    +0.000 A 
ATOM     15  C   UNL     1       3.913  15.664  19.598  0.00  0.00    +0.000 A 
ATOM     16  C   UNL     1       3.084  16.665  19.098  0.00  0.00    +0.000 A 
ATOM     17  C   UNL     1       1.749  16.322  18.884  0.00  0.00    +0.000 A 
ATOM     18  N   UNL     1       0.703  17.052  18.382  0.00  0.00    +0.000 N 
ATOM     19  N   UNL     1      -0.455  16.377  18.310  0.00  0.00    +0.000 NA
ATOM     20  C   UNL     1      -0.137  15.173  18.794  0.00  0.00    +0.000 A 
ATOM     21  C   UNL     1       1.222  15.067  19.182  0.00  0.00    +0.000 A 
ATOM     22  H   UNL     1       0.723  18.015  18.064  0.00  0.00    +0.000 HD
ENDBRANCH   9  13
BRANCH   1  26
ATOM     23  C   UNL     1       2.747   5.428  18.883  0.00  0.00    +0.000 A 
ATOM     24  C   UNL     1       2.043   5.168  20.061  0.00  0.00    +0.000 A 
ATOM     25  C   UNL     1       1.459   6.209  20.783  0.00  0.00    +0.000 A 
ATOM     26  C   UNL     1       1.594   7.543  20.374  0.00  0.00    +0.000 A 
ATOM     27  C   UNL     1       2.367   7.792  19.224  0.00  0.00    +0.000 A 
ATOM     28  C   UNL     1       2.929   6.752  18.465  0.00  0.00    +0.000 A 
ATOM     29  C   UNL     1       3.719   7.085  17.229  0.00  0.00    +0.000 C 
BRANCH  23  31
ATOM     30  C   UNL     1       2.364   3.478  17.619  0.00  0.00    +0.000 C 
ATOM     31  O   UNL     1       3.295   4.443  18.103  0.00  0.00    +0.000 OA
ENDBRANCH  23  31
ENDBRANCH   1  26
TORSDOF 3
ENDMDL
MODEL 9
REMARK VINA RESULT:      -7.6      4.038      8.333
REMARK  Name = 
REMARK  5 active torsions:
REMARK  status: ('A' for Active; 'I' for Inactive)
REMARK    1  A    between atoms: C_1  and  O_2
REMARK    2  A    between atoms: O_2  and  C_3
REMARK    3  A    between atoms: C_6  and  C_7
REMARK    4  A    between atoms: N_15  and  C_16
REMARK    5  A    between atoms: C_28  and  C_29
REMARK                            x       y       z     vdW  Elec       q    Type
REMARK                         _______ _______ _______ _____ _____    ______ ____
ROOT
ATOM      1  C   UNL     1       1.975   7.660  19.537  0.00  0.00    +0.000 A 
ATOM      2  C   UNL     1       1.419   7.020  20.648  0.00  0.00    +0.000 A 
ATOM      3  C   UNL     1       0.641   7.727  21.572  0.00  0.00    +0.000 A 
ATOM      4  C   UNL     1       0.380   9.081  21.424  0.00  0.00    +0.000 A 
ATOM      5  N   UNL     1      -0.358   9.688  22.356  0.00  0.00    +0.000 NA
ATOM      6  C   UNL     1      -0.588  10.990  22.172  0.00  0.00    +0.000 A 
ATOM      7  N   UNL     1      -0.174  11.726  21.139  0.00  0.00    +0.000 NA
ATOM      8  C   UNL     1       0.564  11.109  20.199  0.00  0.00    +0.000 A 
ATOM      9  N   UNL     1       1.040  11.853  19.086  0.00  0.00    +0.000 N 
ATOM     10  C   UNL     1       0.901   9.746  20.310  0.00  0.00    +0.000 A 
ATOM     11  C   UNL     1       1.708   9.029  19.390  0.00  0.00    +0.000 A 
ATOM     12  H   UNL     1       0.919  11.338  18.225  0.00  0.00    +0.000 HD
ENDROOT
BRANCH   9  13
ATOM     13  C   UNL     1       1.021  13.251  18.878  0.00  0.00    +0.000 A 
ATOM     14  C   UNL     1      -0.163  14.004  18.995  0.00  0.00    +0.000 A 
ATOM     15  C   UNL     1      -0.209  15.379  18.761  0.00  0.00    +0.000 A 
ATOM     16  C   UNL     1       0.944  16.090  18.438  0.00  0.00    +0.000 A 
ATOM     17  C   UNL     1       2.133  15.362  18.386  0.00  0.00    +0.000 A 
ATOM     18  N   UNL     1       3.420  15.761  18.133  0.00  0.00    +0.000 N 
ATOM     19  N   UNL     1       4.323  14.768  18.179  0.00  0.00    +0.000 NA
ATOM     20  C   UNL     1       3.581  13.693  18.463  0.00  0.00    +0.000 A 
ATOM     21  C   UNL     1       2.201  13.986  18.599  0.00  0.00    +0.000 A 
ATOM     22  H   UNL     1       3.744  16.700  17.930  0.00  0.00    +0.000 HD
ENDBRANCH   9  13
BRANCH   1  26
ATOM     23  C   UNL     1       4.440   5.519  16.731  0.00  0.00    +0.000 A 
ATOM     24  C   UNL     1       4.520   6.910  16.832  0.00  0.00    +0.000 A 
ATOM     25  C   UNL     1       3.712   7.603  17.734  0.00  0.00    +0.000 A 
ATOM     26  C   UNL     1       2.774   6.934  18.532  0.00  0.00    +0.000 A 
ATOM     27  C   UNL     1       2.658   5.542  18.366  0.00  0.00    +0.000 A 
ATOM     28  C   UNL     1       3.490   4.824  17.490  0.00  0.00    +0.000 A 
ATOM     29  C   UNL     1       3.334   3.332  17.381  0.00  0.00    +0.000 C 
BRANCH  23  31
ATOM     30  C   UNL     1       6.604   4.682  16.323  0.00  0.00    +0.000 C 
ATOM     31  O   UNL     1       5.244   4.779  15.904  0.00  0.00    +0.000 OA
ENDBRANCH  23  31
ENDBRANCH   1  26
TORSDOF 3
ENDMDL
