MODEL 1
REMARK VINA RESULT:      -7.6      0.000      0.000
REMARK  Name = 
REMARK  8 active torsions:
REMARK  status: ('A' for Active; 'I' for Inactive)
REMARK    1  A    between atoms: C_1  and  C_2
REMARK    2  A    between atoms: C_2  and  C_3
REMARK    3  A    between atoms: C_3  and  C_4
REMARK    4  A    between atoms: C_4  and  O_5
REMARK    5  A    between atoms: O_5  and  C_6
REMARK    6  A    between atoms: N_13  and  C_14
REMARK    7  A    between atoms: C_24  and  O_25
REMARK    8  A    between atoms: O_25  and  C_26
REMARK                            x       y       z     vdW  Elec       q    Type
REMARK                         _______ _______ _______ _____ _____    ______ ____
ROOT
ATOM      1  C   UNL     1       6.036   5.174  16.710  0.00  0.00    +0.000 A 
ATOM      2  C   UNL     1       4.898   4.420  17.034  0.00  0.00    +0.000 A 
ATOM      3  C   UNL     1       3.736   4.986  17.524  0.00  0.00    +0.000 A 
ATOM      4  N   UNL     1       2.720   4.179  17.836  0.00  0.00    +0.000 NA
ATOM      5  N   UNL     1       1.629   4.678  18.337  0.00  0.00    +0.000 NA
ATOM      6  N   UNL     1       1.496   5.954  18.564  0.00  0.00    +0.000 NA
ATOM      7  C   UNL     1       2.496   6.806  18.256  0.00  0.00    +0.000 A 
ATOM      8  N   UNL     1       2.329   8.185  18.536  0.00  0.00    +0.000 N 
ATOM      9  C   UNL     1       3.686   6.359  17.689  0.00  0.00    +0.000 A 
ATOM     10  C   UNL     1       4.815   7.155  17.348  0.00  0.00    +0.000 A 
ATOM     11  C   UNL     1       5.995   6.568  16.873  0.00  0.00    +0.000 A 
ATOM     12  H   UNL     1       2.201   8.695  17.668  0.00  0.00    +0.000 HD
ENDROOT
BRANCH   8  13
ATOM     13  C   UNL     1       1.589   8.693  19.622  0.00  0.00    +0.000 A 
ATOM     14  C   UNL     1       1.690   8.099  20.884  0.00  0.00    +0.000 A 
ATOM     15  C   UNL     1       0.904   8.549  21.948  0.00  0.00    +0.000 A 
ATOM     16  C   UNL     1      -0.015   9.586  21.758  0.00  0.00    +0.000 A 
ATOM     17 CL   UNL     1      -0.970  10.078  23.109  0.00  0.00    +0.000 Cl
ATOM     18  C   UNL     1      -0.145  10.173  20.497  0.00  0.00    +0.000 A 
ATOM     19 CL   UNL     1      -1.278  11.437  20.169  0.00  0.00    +0.000 Cl
ATOM     20  C   UNL     1       0.649   9.723  19.441  0.00  0.00    +0.000 A 
ENDBRANCH   8  13
BRANCH  11  21
ATOM     21  O   UNL     1       7.118   7.278  16.535  0.00  0.00    +0.000 OA
ATOM     22  C   UNL     1       7.702   8.084  17.556  0.00  0.00    +0.000 C 
ENDBRANCH  11  21
BRANCH   1  23
ATOM     23  O   UNL     1       7.212   4.603  16.258  0.00  0.00    +0.000 OA
BRANCH  23  24
ATOM     24  C   UNL     1       7.331   4.550  14.836  0.00  0.00    +0.000 C 
BRANCH  24  25
ATOM     25  C   UNL     1       6.198   3.773  14.179  0.00  0.00    +0.000 C 
BRANCH  25  27
ATOM     26  C   UNL     1       5.227   3.176  11.917  0.00  0.00    +0.000 C 
ATOM     27  C   UNL     1       6.374   3.835  12.659  0.00  0.00    +0.000 C 
ENDBRANCH  25  27
ENDBRANCH  24  25
ENDBRANCH  23  24
ENDBRANCH   1  23
TORSDOF 6
ENDMDL
MODEL 2
REMARK VINA RESULT:      -7.6      1.024      1.085
REMARK  Name = 
REMARK  8 active torsions:
REMARK  status: ('A' for Active; 'I' for Inactive)
REMARK    1  A    between atoms: C_1  and  C_2
REMARK    2  A    between atoms: C_2  and  C_3
REMARK    3  A    between atoms: C_3  and  C_4
REMARK    4  A    between atoms: C_4  and  O_5
REMARK    5  A    between atoms: O_5  and  C_6
REMARK    6  A    between atoms: N_13  and  C_14
REMARK    7  A    between atoms: C_24  and  O_25
REMARK    8  A    between atoms: O_25  and  C_26
REMARK                            x       y       z     vdW  Elec       q    Type
REMARK                         _______ _______ _______ _____ _____    ______ ____
ROOT
ATOM      1  C   UNL     1       6.022   5.088  17.771  0.00  0.00    +0.000 A 
ATOM      2  C   UNL     1       5.108   4.354  18.543  0.00  0.00    +0.000 A 
ATOM      3  C   UNL     1       3.925   4.889  19.016  0.00  0.00    +0.000 A 
ATOM      4  N   UNL     1       3.138   4.119  19.771  0.00  0.00    +0.000 NA
ATOM      5  N   UNL     1       2.039   4.608  20.264  0.00  0.00    +0.000 NA
ATOM      6  N   UNL     1       1.679   5.842  20.058  0.00  0.00    +0.000 NA
ATOM      7  C   UNL     1       2.441   6.652  19.292  0.00  0.00    +0.000 A 
ATOM      8  N   UNL     1       2.033   7.996  19.104  0.00  0.00    +0.000 N 
ATOM      9  C   UNL     1       3.618   6.201  18.702  0.00  0.00    +0.000 A 
ATOM     10  C   UNL     1       4.512   6.966  17.902  0.00  0.00    +0.000 A 
ATOM     11  C   UNL     1       5.720   6.420  17.447  0.00  0.00    +0.000 A 
ATOM     12  H   UNL     1       1.700   8.120  18.154  0.00  0.00    +0.000 HD
ENDROOT
BRANCH   8  13
ATOM     13  C   UNL     1       1.344   8.761  20.066  0.00  0.00    +0.000 A 
ATOM     14  C   UNL     1       1.383   8.398  21.416  0.00  0.00    +0.000 A 
ATOM     15  C   UNL     1       0.642   9.107  22.366  0.00  0.00    +0.000 A 
ATOM     16  C   UNL     1      -0.170  10.176  21.973  0.00  0.00    +0.000 A 
ATOM     17 CL   UNL     1      -1.076  10.993  23.194  0.00  0.00    +0.000 Cl
ATOM     18  C   UNL     1      -0.238  10.534  20.625  0.00  0.00    +0.000 A 
ATOM     19 CL   UNL     1      -1.241  11.821  20.052  0.00  0.00    +0.000 Cl
ATOM     20  C   UNL     1       0.510   9.826  19.683  0.00  0.00    +0.000 A 
ENDBRANCH   8  13
BRANCH  11  21
ATOM     21  O   UNL     1       6.626   7.106  16.680  0.00  0.00    +0.000 OA
ATOM     22  C   UNL     1       7.530   7.967  17.369  0.00  0.00    +0.000 C 
ENDBRANCH  11  21
BRANCH   1  23
ATOM     23  O   UNL     1       7.225   4.565  17.332  0.00  0.00    +0.000 OA
BRANCH  23  24
ATOM     24  C   UNL     1       7.318   4.413  15.916  0.00  0.00    +0.000 C 
BRANCH  24  25
ATOM     25  C   UNL     1       6.165   3.607  15.333  0.00  0.00    +0.000 C 
BRANCH  25  27
ATOM     26  C   UNL     1       6.042   3.563  12.803  0.00  0.00    +0.000 C 
ATOM     27  C   UNL     1       5.662   4.309  14.068  0.00  0.00    +0.000 C 
ENDBRANCH  25  27
ENDBRANCH  24  25
ENDBRANCH  23  24
ENDBRANCH   1  23
TORSDOF 6
ENDMDL
MODEL 3
REMARK VINA RESULT:      -7.5      5.353      9.489
REMARK  Name = 
REMARK  8 active torsions:
REMARK  status: ('A' for Active; 'I' for Inactive)
REMARK    1  A    between atoms: C_1  and  C_2
REMARK    2  A    between atoms: C_2  and  C_3
REMARK    3  A    between atoms: C_3  and  C_4
REMARK    4  A    between atoms: C_4  and  O_5
REMARK    5  A    between atoms: O_5  and  C_6
REMARK    6  A    between atoms: N_13  and  C_14
REMARK    7  A    between atoms: C_24  and  O_25
REMARK    8  A    between atoms: O_25  and  C_26
REMARK                            x       y       z     vdW  Elec       q    Type
REMARK                         _______ _______ _______ _____ _____    ______ ____
ROOT
ATOM      1  C   UNL     1      -3.359  11.322  18.045  0.00  0.00    +0.000 A 
ATOM      2  C   UNL     1      -2.576  11.657  19.161  0.00  0.00    +0.000 A 
ATOM      3  C   UNL     1      -1.282  11.204  19.335  0.00  0.00    +0.000 A 
ATOM      4  N   UNL     1      -0.633  11.551  20.448  0.00  0.00    +0.000 NA
ATOM      5  N   UNL     1       0.571  11.107  20.658  0.00  0.00    +0.000 NA
ATOM      6  N   UNL     1       1.169  10.314  19.817  0.00  0.00    +0.000 NA
ATOM      7  C   UNL     1       0.553   9.946  18.674  0.00  0.00    +0.000 A 
ATOM      8  N   UNL     1       1.222   9.065  17.790  0.00  0.00    +0.000 N 
ATOM      9  C   UNL     1      -0.725  10.399  18.358  0.00  0.00    +0.000 A 
ATOM     10  C   UNL     1      -1.482  10.060  17.202  0.00  0.00    +0.000 A 
ATOM     11  C   UNL     1      -2.802  10.505  17.048  0.00  0.00    +0.000 A 
ATOM     12  H   UNL     1       1.519   9.573  16.963  0.00  0.00    +0.000 HD
ENDROOT
BRANCH   8  13
ATOM     13  C   UNL     1       2.111   8.050  18.198  0.00  0.00    +0.000 A 
ATOM     14  C   UNL     1       3.287   7.812  17.480  0.00  0.00    +0.000 A 
ATOM     15  C   UNL     1       4.136   6.759  17.832  0.00  0.00    +0.000 A 
ATOM     16  C   UNL     1       3.806   5.912  18.896  0.00  0.00    +0.000 A 
ATOM     17 CL   UNL     1       4.887   4.618  19.264  0.00  0.00    +0.000 Cl
ATOM     18  C   UNL     1       2.623   6.123  19.607  0.00  0.00    +0.000 A 
ATOM     19 CL   UNL     1       2.125   5.105  20.913  0.00  0.00    +0.000 Cl
ATOM     20  C   UNL     1       1.783   7.181  19.253  0.00  0.00    +0.000 A 
ENDBRANCH   8  13
BRANCH  11  21
ATOM     21  O   UNL     1      -3.586  10.207  15.963  0.00  0.00    +0.000 OA
ATOM     22  C   UNL     1      -2.935  10.149  14.696  0.00  0.00    +0.000 C 
ENDBRANCH  11  21
BRANCH   1  23
ATOM     23  O   UNL     1      -4.668  11.741  17.892  0.00  0.00    +0.000 OA
BRANCH  23  24
ATOM     24  C   UNL     1      -5.486  11.546  19.046  0.00  0.00    +0.000 C 
BRANCH  24  25
ATOM     25  C   UNL     1      -6.613  10.550  18.806  0.00  0.00    +0.000 C 
BRANCH  25  27
ATOM     26  C   UNL     1      -7.472   8.709  20.320  0.00  0.00    +0.000 C 
ATOM     27  C   UNL     1      -7.258  10.202  20.151  0.00  0.00    +0.000 C 
ENDBRANCH  25  27
ENDBRANCH  24  25
ENDBRANCH  23  24
ENDBRANCH   1  23
TORSDOF 6
ENDMDL
MODEL 4
REMARK VINA RESULT:      -7.3      3.538      5.342
REMARK  Name = 
REMARK  8 active torsions:
REMARK  status: ('A' for Active; 'I' for Inactive)
REMARK    1  A    between atoms: C_1  and  C_2
REMARK    2  A    between atoms: C_2  and  C_3
REMARK    3  A    between atoms: C_3  and  C_4
REMARK    4  A    between atoms: C_4  and  O_5
REMARK    5  A    between atoms: O_5  and  C_6
REMARK    6  A    between atoms: N_13  and  C_14
REMARK    7  A    between atoms: C_24  and  O_25
REMARK    8  A    between atoms: O_25  and  C_26
REMARK                            x       y       z     vdW  Elec       q    Type
REMARK                         _______ _______ _______ _____ _____    ______ ____
ROOT
ATOM      1  C   UNL     1       3.206   5.927  19.070  0.00  0.00    +0.000 A 
ATOM      2  C   UNL     1       2.367   6.359  20.110  0.00  0.00    +0.000 A 
ATOM      3  C   UNL     1       1.739   7.589  20.107  0.00  0.00    +0.000 A 
ATOM      4  N   UNL     1       0.989   7.921  21.160  0.00  0.00    +0.000 NA
ATOM      5  N   UNL     1       0.419   9.088  21.204  0.00  0.00    +0.000 NA
ATOM      6  N   UNL     1       0.567   9.964  20.252  0.00  0.00    +0.000 NA
ATOM      7  C   UNL     1       1.309   9.667  19.165  0.00  0.00    +0.000 A 
ATOM      8  N   UNL     1       1.468  10.649  18.157  0.00  0.00    +0.000 N 
ATOM      9  C   UNL     1       1.930   8.429  19.024  0.00  0.00    +0.000 A 
ATOM     10  C   UNL     1       2.755   8.013  17.943  0.00  0.00    +0.000 A 
ATOM     11  C   UNL     1       3.406   6.772  17.967  0.00  0.00    +0.000 A 
ATOM     12  H   UNL     1       0.934  10.383  17.336  0.00  0.00    +0.000 HD
ENDROOT
BRANCH   8  13
ATOM     13  C   UNL     1       1.513  12.037  18.397  0.00  0.00    +0.000 A 
ATOM     14  C   UNL     1       0.333  12.749  18.637  0.00  0.00    +0.000 A 
ATOM     15  C   UNL     1       0.361  14.137  18.801  0.00  0.00    +0.000 A 
ATOM     16  C   UNL     1       1.568  14.836  18.701  0.00  0.00    +0.000 A 
ATOM     17 CL   UNL     1       1.527  16.551  18.892  0.00  0.00    +0.000 Cl
ATOM     18  C   UNL     1       2.750  14.141  18.437  0.00  0.00    +0.000 A 
ATOM     19 CL   UNL     1       4.278  14.932  18.267  0.00  0.00    +0.000 Cl
ATOM     20  C   UNL     1       2.716  12.754  18.281  0.00  0.00    +0.000 A 
ENDBRANCH   8  13
BRANCH  11  21
ATOM     21  O   UNL     1       4.218   6.317  16.961  0.00  0.00    +0.000 OA
ATOM     22  C   UNL     1       5.551   6.824  16.931  0.00  0.00    +0.000 C 
ENDBRANCH  11  21
BRANCH   1  23
ATOM     23  O   UNL     1       3.867   4.713  19.093  0.00  0.00    +0.000 OA
BRANCH  23  24
ATOM     24  C   UNL     1       3.123   3.628  18.536  0.00  0.00    +0.000 C 
BRANCH  24  25
ATOM     25  C   UNL     1       2.960   2.467  19.507  0.00  0.00    +0.000 C 
BRANCH  25  27
ATOM     26  C   UNL     1       1.618   2.834  21.625  0.00  0.00    +0.000 C 
ATOM     27  C   UNL     1       1.566   2.543  20.137  0.00  0.00    +0.000 C 
ENDBRANCH  25  27
ENDBRANCH  24  25
ENDBRANCH  23  24
ENDBRANCH   1  23
TORSDOF 6
ENDMDL
MODEL 5
REMARK VINA RESULT:      -7.3      3.885      5.965
REMARK  Name = 
REMARK  8 active torsions:
REMARK  status: ('A' for Active; 'I' for Inactive)
REMARK    1  A    between atoms: C_1  and  C_2
REMARK    2  A    between atoms: C_2  and  C_3
REMARK    3  A    between atoms: C_3  and  C_4
REMARK    4  A    between atoms: C_4  and  O_5
REMARK    5  A    between atoms: O_5  and  C_6
REMARK    6  A    between atoms: N_13  and  C_14
REMARK    7  A    between atoms: C_24  and  O_25
REMARK    8  A    between atoms: O_25  and  C_26
REMARK                            x       y       z     vdW  Elec       q    Type
REMARK                         _______ _______ _______ _____ _____    ______ ____
ROOT
ATOM      1  C   UNL     1       2.265   6.532  19.839  0.00  0.00    +0.000 A 
ATOM      2  C   UNL     1       1.614   7.230  20.868  0.00  0.00    +0.000 A 
ATOM      3  C   UNL     1       1.181   8.535  20.733  0.00  0.00    +0.000 A 
ATOM      4  N   UNL     1       0.602   9.123  21.783  0.00  0.00    +0.000 NA
ATOM      5  N   UNL     1       0.221  10.363  21.699  0.00  0.00    +0.000 NA
ATOM      6  N   UNL     1       0.398  11.067  20.617  0.00  0.00    +0.000 NA
ATOM      7  C   UNL     1       0.971  10.509  19.530  0.00  0.00    +0.000 A 
ATOM      8  N   UNL     1       1.169  11.307  18.377  0.00  0.00    +0.000 N 
ATOM      9  C   UNL     1       1.381   9.179  19.525  0.00  0.00    +0.000 A 
ATOM     10  C   UNL     1       2.017   8.492  18.454  0.00  0.00    +0.000 A 
ATOM     11  C   UNL     1       2.474   7.177  18.609  0.00  0.00    +0.000 A 
ATOM     12  H   UNL     1       0.518  11.024  17.651  0.00  0.00    +0.000 HD
ENDROOT
BRANCH   8  13
ATOM     13  C   UNL     1       1.445  12.689  18.402  0.00  0.00    +0.000 A 
ATOM     14  C   UNL     1       2.764  13.145  18.320  0.00  0.00    +0.000 A 
ATOM     15  C   UNL     1       3.053  14.509  18.421  0.00  0.00    +0.000 A 
ATOM     16  C   UNL     1       2.026  15.435  18.631  0.00  0.00    +0.000 A 
ATOM     17 CL   UNL     1       2.455  17.101  18.768  0.00  0.00    +0.000 Cl
ATOM     18  C   UNL     1       0.707  14.991  18.740  0.00  0.00    +0.000 A 
ATOM     19 CL   UNL     1      -0.618  16.065  19.031  0.00  0.00    +0.000 Cl
ATOM     20  C   UNL     1       0.425  13.628  18.631  0.00  0.00    +0.000 A 
ENDBRANCH   8  13
BRANCH  11  21
ATOM     21  O   UNL     1       3.100   6.464  17.620  0.00  0.00    +0.000 OA
ATOM     22  C   UNL     1       4.466   6.783  17.363  0.00  0.00    +0.000 C 
ENDBRANCH  11  21
BRANCH   1  23
ATOM     23  O   UNL     1       2.736   5.240  19.989  0.00  0.00    +0.000 OA
BRANCH  23  24
ATOM     24  C   UNL     1       2.295   4.588  21.181  0.00  0.00    +0.000 C 
BRANCH  24  25
ATOM     25  C   UNL     1       1.861   3.149  20.938  0.00  0.00    +0.000 C 
BRANCH  25  27
ATOM     26  C   UNL     1       1.000   2.433  18.665  0.00  0.00    +0.000 C 
ATOM     27  C   UNL     1       0.679   3.147  19.965  0.00  0.00    +0.000 C 
ENDBRANCH  25  27
ENDBRANCH  24  25
ENDBRANCH  23  24
ENDBRANCH   1  23
TORSDOF 6
ENDMDL
MODEL 6
REMARK VINA RESULT:      -7.2      4.254      6.123
REMARK  Name = 
REMARK  8 active torsions:
REMARK  status: ('A' for Active; 'I' for Inactive)
REMARK    1  A    between atoms: C_1  and  C_2
REMARK    2  A    between atoms: C_2  and  C_3
REMARK    3  A    between atoms: C_3  and  C_4
REMARK    4  A    between atoms: C_4  and  O_5
REMARK    5  A    between atoms: O_5  and  C_6
REMARK    6  A    between atoms: N_13  and  C_14
REMARK    7  A    between atoms: C_24  and  O_25
REMARK    8  A    between atoms: O_25  and  C_26
REMARK                            x       y       z     vdW  Elec       q    Type
REMARK                         _______ _______ _______ _____ _____    ______ ____
ROOT
ATOM      1  C   UNL     1       2.206   6.786  19.877  0.00  0.00    +0.000 A 
ATOM      2  C   UNL     1       1.627   7.467  20.960  0.00  0.00    +0.000 A 
ATOM      3  C   UNL     1       1.178   8.770  20.874  0.00  0.00    +0.000 A 
ATOM      4  N   UNL     1       0.673   9.341  21.970  0.00  0.00    +0.000 NA
ATOM      5  N   UNL     1       0.279  10.579  21.931  0.00  0.00    +0.000 NA
ATOM      6  N   UNL     1       0.374  11.298  20.849  0.00  0.00    +0.000 NA
ATOM      7  C   UNL     1       0.870  10.758  19.716  0.00  0.00    +0.000 A 
ATOM      8  N   UNL     1       0.980  11.573  18.562  0.00  0.00    +0.000 N 
ATOM      9  C   UNL     1       1.287   9.431  19.664  0.00  0.00    +0.000 A 
ATOM     10  C   UNL     1       1.848   8.763  18.540  0.00  0.00    +0.000 A 
ATOM     11  C   UNL     1       2.322   7.448  18.645  0.00  0.00    +0.000 A 
ATOM     12  H   UNL     1       0.280  11.295  17.881  0.00  0.00    +0.000 HD
ENDROOT
BRANCH   8  13
ATOM     13  C   UNL     1       1.250  12.956  18.586  0.00  0.00    +0.000 A 
ATOM     14  C   UNL     1       0.218  13.871  18.814  0.00  0.00    +0.000 A 
ATOM     15  C   UNL     1       0.463  15.247  18.765  0.00  0.00    +0.000 A 
ATOM     16  C   UNL     1       1.742  15.726  18.462  0.00  0.00    +0.000 A 
ATOM     17 CL   UNL     1       1.969  17.435  18.395  0.00  0.00    +0.000 Cl
ATOM     18  C   UNL     1       2.776  14.823  18.207  0.00  0.00    +0.000 A 
ATOM     19 CL   UNL     1       4.376  15.331  17.794  0.00  0.00    +0.000 Cl
ATOM     20  C   UNL     1       2.526  13.451  18.265  0.00  0.00    +0.000 A 
ENDBRANCH   8  13
BRANCH  11  21
ATOM     21  O   UNL     1       2.879   6.753  17.603  0.00  0.00    +0.000 OA
ATOM     22  C   UNL     1       4.260   6.988  17.338  0.00  0.00    +0.000 C 
ENDBRANCH  11  21
BRANCH   1  23
ATOM     23  O   UNL     1       2.694   5.496  19.976  0.00  0.00    +0.000 OA
BRANCH  23  24
ATOM     24  C   UNL     1       1.956   4.655  20.864  0.00  0.00    +0.000 C 
BRANCH  24  25
ATOM     25  C   UNL     1       1.020   3.703  20.131  0.00  0.00    +0.000 C 
BRANCH  25  27
ATOM     26  C   UNL     1       1.966   2.338  18.219  0.00  0.00    +0.000 C 
ATOM     27  C   UNL     1       1.402   3.679  18.648  0.00  0.00    +0.000 C 
ENDBRANCH  25  27
ENDBRANCH  24  25
ENDBRANCH  23  24
ENDBRANCH   1  23
TORSDOF 6
ENDMDL
MODEL 7
REMARK VINA RESULT:      -7.2      5.222      9.143
REMARK  Name = 
REMARK  8 active torsions:
REMARK  status: ('A' for Active; 'I' for Inactive)
REMARK    1  A    between atoms: C_1  and  C_2
REMARK    2  A    between atoms: C_2  and  C_3
REMARK    3  A    between atoms: C_3  and  C_4
REMARK    4  A    between atoms: C_4  and  O_5
REMARK    5  A    between atoms: O_5  and  C_6
REMARK    6  A    between atoms: N_13  and  C_14
REMARK    7  A    between atoms: C_24  and  O_25
REMARK    8  A    between atoms: O_25  and  C_26
REMARK                            x       y       z     vdW  Elec       q    Type
REMARK                         _______ _______ _______ _____ _____    ______ ____
ROOT
ATOM      1  C   UNL     1      -1.736  11.782  19.852  0.00  0.00    +0.000 A 
ATOM      2  C   UNL     1      -1.183  11.519  21.115  0.00  0.00    +0.000 A 
ATOM      3  C   UNL     1      -0.186  10.584  21.318  0.00  0.00    +0.000 A 
ATOM      4  N   UNL     1       0.249  10.382  22.564  0.00  0.00    +0.000 NA
ATOM      5  N   UNL     1       1.157   9.480  22.792  0.00  0.00    +0.000 NA
ATOM      6  N   UNL     1       1.654   8.745  21.838  0.00  0.00    +0.000 NA
ATOM      7  C   UNL     1       1.249   8.923  20.563  0.00  0.00    +0.000 A 
ATOM      8  N   UNL     1       1.792   8.094  19.551  0.00  0.00    +0.000 N 
ATOM      9  C   UNL     1       0.302   9.887  20.228  0.00  0.00    +0.000 A 
ATOM     10  C   UNL     1      -0.220  10.146  18.930  0.00  0.00    +0.000 A 
ATOM     11  C   UNL     1      -1.247  11.080  18.739  0.00  0.00    +0.000 A 
ATOM     12  H   UNL     1       2.428   8.634  18.973  0.00  0.00    +0.000 HD
ENDROOT
BRANCH   8  13
ATOM     13  C   UNL     1       2.180   6.752  19.744  0.00  0.00    +0.000 A 
ATOM     14  C   UNL     1       1.400   5.899  20.530  0.00  0.00    +0.000 A 
ATOM     15  C   UNL     1       1.816   4.590  20.788  0.00  0.00    +0.000 A 
ATOM     16  C   UNL     1       3.034   4.123  20.282  0.00  0.00    +0.000 A 
ATOM     17 CL   UNL     1       3.498   2.504  20.657  0.00  0.00    +0.000 Cl
ATOM     18  C   UNL     1       3.835   4.973  19.516  0.00  0.00    +0.000 A 
ATOM     19 CL   UNL     1       5.368   4.486  18.881  0.00  0.00    +0.000 Cl
ATOM     20  C   UNL     1       3.410   6.277  19.257  0.00  0.00    +0.000 A 
ENDBRANCH   8  13
BRANCH  11  21
ATOM     21  O   UNL     1      -1.798  11.370  17.517  0.00  0.00    +0.000 OA
ATOM     22  C   UNL     1      -2.235  10.264  16.730  0.00  0.00    +0.000 C 
ENDBRANCH  11  21
BRANCH   1  23
ATOM     23  O   UNL     1      -2.762  12.689  19.656  0.00  0.00    +0.000 OA
BRANCH  23  24
ATOM     24  C   UNL     1      -3.728  12.720  20.707  0.00  0.00    +0.000 C 
BRANCH  24  25
ATOM     25  C   UNL     1      -5.144  12.455  20.213  0.00  0.00    +0.000 C 
BRANCH  25  27
ATOM     26  C   UNL     1      -5.707  10.910  18.287  0.00  0.00    +0.000 C 
ATOM     27  C   UNL     1      -5.105  12.240  18.697  0.00  0.00    +0.000 C 
ENDBRANCH  25  27
ENDBRANCH  24  25
ENDBRANCH  23  24
ENDBRANCH   1  23
TORSDOF 6
ENDMDL
MODEL 8
REMARK VINA RESULT:      -7.2      3.260      5.134
REMARK  Name = 
REMARK  8 active torsions:
REMARK  status: ('A' for Active; 'I' for Inactive)
REMARK    1  A    between atoms: C_1  and  C_2
REMARK    2  A    between atoms: C_2  and  C_3
REMARK    3  A    between atoms: C_3  and  C_4
REMARK    4  A    between atoms: C_4  and  O_5
REMARK    5  A    between atoms: O_5  and  C_6
REMARK    6  A    between atoms: N_13  and  C_14
REMARK    7  A    between atoms: C_24  and  O_25
REMARK    8  A    between atoms: O_25  and  C_26
REMARK                            x       y       z     vdW  Elec       q    Type
REMARK                         _______ _______ _______ _____ _____    ______ ____
ROOT
ATOM      1  C   UNL     1       3.321   5.925  18.952  0.00  0.00    +0.000 A 
ATOM      2  C   UNL     1       2.505   6.354  20.010  0.00  0.00    +0.000 A 
ATOM      3  C   UNL     1       1.867   7.580  20.017  0.00  0.00    +0.000 A 
ATOM      4  N   UNL     1       1.140   7.910  21.087  0.00  0.00    +0.000 NA
ATOM      5  N   UNL     1       0.562   9.073  21.140  0.00  0.00    +0.000 NA
ATOM      6  N   UNL     1       0.680   9.946  20.180  0.00  0.00    +0.000 NA
ATOM      7  C   UNL     1       1.398   9.649  19.077  0.00  0.00    +0.000 A 
ATOM      8  N   UNL     1       1.525  10.628  18.061  0.00  0.00    +0.000 N 
ATOM      9  C   UNL     1       2.025   8.416  18.926  0.00  0.00    +0.000 A 
ATOM     10  C   UNL     1       2.827   8.002  17.827  0.00  0.00    +0.000 A 
ATOM     11  C   UNL     1       3.488   6.766  17.841  0.00  0.00    +0.000 A 
ATOM     12  H   UNL     1       0.973  10.354  17.254  0.00  0.00    +0.000 HD
ENDROOT
BRANCH   8  13
ATOM     13  C   UNL     1       1.564  12.018  18.293  0.00  0.00    +0.000 A 
ATOM     14  C   UNL     1       2.763  12.722  18.151  0.00  0.00    +0.000 A 
ATOM     15  C   UNL     1       2.827  14.086  18.453  0.00  0.00    +0.000 A 
ATOM     16  C   UNL     1       1.696  14.758  18.926  0.00  0.00    +0.000 A 
ATOM     17 CL   UNL     1       1.850  16.436  19.301  0.00  0.00    +0.000 Cl
ATOM     18  C   UNL     1       0.498  14.061  19.096  0.00  0.00    +0.000 A 
ATOM     19 CL   UNL     1      -0.938  14.809  19.705  0.00  0.00    +0.000 Cl
ATOM     20  C   UNL     1       0.439  12.701  18.786  0.00  0.00    +0.000 A 
ENDBRANCH   8  13
BRANCH  11  21
ATOM     21  O   UNL     1       4.280   6.313  16.817  0.00  0.00    +0.000 OA
ATOM     22  C   UNL     1       5.627   6.781  16.790  0.00  0.00    +0.000 C 
ENDBRANCH  11  21
BRANCH   1  23
ATOM     23  O   UNL     1       3.992   4.715  18.964  0.00  0.00    +0.000 OA
BRANCH  23  24
ATOM     24  C   UNL     1       3.390   3.717  19.789  0.00  0.00    +0.000 C 
BRANCH  24  25
ATOM     25  C   UNL     1       2.396   2.849  19.031  0.00  0.00    +0.000 C 
BRANCH  25  27
ATOM     26  C   UNL     1       1.313   2.831  21.321  0.00  0.00    +0.000 C 
ATOM     27  C   UNL     1       1.086   2.793  19.822  0.00  0.00    +0.000 C 
ENDBRANCH  25  27
ENDBRANCH  24  25
ENDBRANCH  23  24
ENDBRANCH   1  23
TORSDOF 6
ENDMDL
MODEL 9
REMARK VINA RESULT:      -7.1      5.412      9.509
REMARK  Name = 
REMARK  8 active torsions:
REMARK  status: ('A' for Active; 'I' for Inactive)
REMARK    1  A    between atoms: C_1  and  C_2
REMARK    2  A    between atoms: C_2  and  C_3
REMARK    3  A    between atoms: C_3  and  C_4
REMARK    4  A    between atoms: C_4  and  O_5
REMARK    5  A    between atoms: O_5  and  C_6
REMARK    6  A    between atoms: N_13  and  C_14
REMARK    7  A    between atoms: C_24  and  O_25
REMARK    8  A    between atoms: O_25  and  C_26
REMARK                            x       y       z     vdW  Elec       q    Type
REMARK                         _______ _______ _______ _____ _____    ______ ____
ROOT
ATOM      1  C   UNL     1      -3.210  11.425  18.334  0.00  0.00    +0.000 A 
ATOM      2  C   UNL     1      -2.335  11.732  19.387  0.00  0.00    +0.000 A 
ATOM      3  C   UNL     1      -1.045  11.240  19.460  0.00  0.00    +0.000 A 
ATOM      4  N   UNL     1      -0.302  11.563  20.520  0.00  0.00    +0.000 NA
ATOM      5  N   UNL     1       0.900  11.083  20.636  0.00  0.00    +0.000 NA
ATOM      6  N   UNL     1       1.408  10.275  19.750  0.00  0.00    +0.000 NA
ATOM      7  C   UNL     1       0.694   9.929  18.658  0.00  0.00    +0.000 A 
ATOM      8  N   UNL     1       1.267   9.032  17.724  0.00  0.00    +0.000 N 
ATOM      9  C   UNL     1      -0.589  10.422  18.442  0.00  0.00    +0.000 A 
ATOM     10  C   UNL     1      -1.444  10.109  17.348  0.00  0.00    +0.000 A 
ATOM     11  C   UNL     1      -2.757  10.595  17.296  0.00  0.00    +0.000 A 
ATOM     12  H   UNL     1       1.514   9.533  16.877  0.00  0.00    +0.000 HD
ENDROOT
BRANCH   8  13
ATOM     13  C   UNL     1       2.153   7.989  18.061  0.00  0.00    +0.000 A 
ATOM     14  C   UNL     1       1.941   7.230  19.216  0.00  0.00    +0.000 A 
ATOM     15  C   UNL     1       2.856   6.244  19.598  0.00  0.00    +0.000 A 
ATOM     16  C   UNL     1       4.011   6.022  18.841  0.00  0.00    +0.000 A 
ATOM     17 CL   UNL     1       5.110   4.805  19.381  0.00  0.00    +0.000 Cl
ATOM     18  C   UNL     1       4.249   6.790  17.699  0.00  0.00    +0.000 A 
ATOM     19 CL   UNL     1       5.666   6.601  16.726  0.00  0.00    +0.000 Cl
ATOM     20  C   UNL     1       3.327   7.768  17.320  0.00  0.00    +0.000 A 
ENDBRANCH   8  13
BRANCH  11  21
ATOM     21  O   UNL     1      -3.631  10.324  16.276  0.00  0.00    +0.000 OA
ATOM     22  C   UNL     1      -3.135  10.473  14.947  0.00  0.00    +0.000 C 
ENDBRANCH  11  21
BRANCH   1  23
ATOM     23  O   UNL     1      -4.514  11.883  18.283  0.00  0.00    +0.000 OA
BRANCH  23  24
ATOM     24  C   UNL     1      -5.020  12.356  19.532  0.00  0.00    +0.000 C 
BRANCH  24  25
ATOM     25  C   UNL     1      -6.384  11.772  19.874  0.00  0.00    +0.000 C 
BRANCH  25  27
ATOM     26  C   UNL     1      -7.021   9.364  19.410  0.00  0.00    +0.000 C 
ATOM     27  C   UNL     1      -6.755  10.733  18.812  0.00  0.00    +0.000 C 
ENDBRANCH  25  27
ENDBRANCH  24  25
ENDBRANCH  23  24
ENDBRANCH   1  23
TORSDOF 6
ENDMDL
