MODEL 1
REMARK VINA RESULT:      -8.1      0.000      0.000
REMARK  Name = 
REMARK  5 active torsions:
REMARK  status: ('A' for Active; 'I' for Inactive)
REMARK    1  A    between atoms: C_6  and  C_7
REMARK    2  A    between atoms: C_10  and  O_11
REMARK    3  A    between atoms: O_11  and  C_12
REMARK    4  A    between atoms: C_12  and  C_13
REMARK    5  A    between atoms: C_13  and  N_14
REMARK                            x       y       z     vdW  Elec       q    Type
REMARK                         _______ _______ _______ _____ _____    ______ ____
ROOT
ATOM      1  C   UNL     1       3.346   6.622  17.786  0.00  0.00    +0.000 A 
ATOM      2  C   UNL     1       4.578   7.003  17.217  0.00  0.00    +0.000 A 
ATOM      3  C   UNL     1       5.472   6.068  16.661  0.00  0.00    +0.000 A 
ATOM      4  C   UNL     1       5.166   4.704  16.629  0.00  0.00    +0.000 A 
ATOM      5  C   UNL     1       3.963   4.296  17.195  0.00  0.00    +0.000 A 
ATOM      6  C   UNL     1       3.070   5.247  17.752  0.00  0.00    +0.000 A 
ATOM      7  C   UNL     1       1.819   4.555  18.235  0.00  0.00    +0.000 C 
ATOM      8  C   UNL     1       2.283   3.109  18.369  0.00  0.00    +0.000 C 
ATOM      9  C   UNL     1       3.364   2.921  17.310  0.00  0.00    +0.000 C 
ENDROOT
BRANCH   1  15
ATOM     10  N   UNL     1       1.428   8.299  21.774  0.00  0.00    +0.000 N 
ATOM     11  C   UNL     1       1.511   8.420  20.389  0.00  0.00    +0.000 A 
ATOM     12  C   UNL     1       0.932   9.496  19.739  0.00  0.00    +0.000 A 
ATOM     13  C   UNL     1       1.098   9.610  18.367  0.00  0.00    +0.000 A 
ATOM     14  C   UNL     1       1.866   8.661  17.694  0.00  0.00    +0.000 A 
ATOM     15  C   UNL     1       2.439   7.613  18.412  0.00  0.00    +0.000 A 
ATOM     16  N   UNL     1       2.235   7.488  19.750  0.00  0.00    +0.000 NA
ATOM     17  H   UNL     1       0.470   8.348  22.102  0.00  0.00    +0.000 HD
ATOM     18  H   UNL     1       1.875   7.420  22.021  0.00  0.00    +0.000 HD
ENDBRANCH   1  15
BRANCH   4  19
ATOM     19  O   UNL     1       6.129   3.934  16.034  0.00  0.00    +0.000 OA
BRANCH  19  20
ATOM     20  C   UNL     1       6.406   4.230  14.667  0.00  0.00    +0.000 C 
BRANCH  20  21
ATOM     21  C   UNL     1       5.391   3.541  13.742  0.00  0.00    +0.000 C 
BRANCH  21  22
ATOM     22  N   UNL     1       5.692   3.763  12.313  0.00  0.00    +0.000 NA
ATOM     23  C   UNL     1       4.935   2.840  11.452  0.00  0.00    +0.000 C 
ATOM     24  C   UNL     1       5.815   1.612  11.328  0.00  0.00    +0.000 C 
ATOM     25  C   UNL     1       7.210   2.196  11.254  0.00  0.00    +0.000 C 
ATOM     26  C   UNL     1       7.110   3.538  11.968  0.00  0.00    +0.000 C 
ENDBRANCH  21  22
ENDBRANCH  20  21
ENDBRANCH  19  20
ENDBRANCH   4  19
TORSDOF 5
ENDMDL
MODEL 2
REMARK VINA RESULT:      -7.7      0.979      1.381
REMARK  Name = 
REMARK  5 active torsions:
REMARK  status: ('A' for Active; 'I' for Inactive)
REMARK    1  A    between atoms: C_6  and  C_7
REMARK    2  A    between atoms: C_10  and  O_11
REMARK    3  A    between atoms: O_11  and  C_12
REMARK    4  A    between atoms: C_12  and  C_13
REMARK    5  A    between atoms: C_13  and  N_14
REMARK                            x       y       z     vdW  Elec       q    Type
REMARK                         _______ _______ _______ _____ _____    ______ ____
ROOT
ATOM      1  C   UNL     1       3.453   6.363  17.889  0.00  0.00    +0.000 A 
ATOM      2  C   UNL     1       4.647   6.707  17.225  0.00  0.00    +0.000 A 
ATOM      3  C   UNL     1       5.430   5.758  16.541  0.00  0.00    +0.000 A 
ATOM      4  C   UNL     1       5.042   4.416  16.471  0.00  0.00    +0.000 A 
ATOM      5  C   UNL     1       3.875   4.043  17.128  0.00  0.00    +0.000 A 
ATOM      6  C   UNL     1       3.094   5.008  17.814  0.00  0.00    +0.000 A 
ATOM      7  C   UNL     1       1.855   4.359  18.379  0.00  0.00    +0.000 C 
ATOM      8  C   UNL     1       2.245   2.885  18.397  0.00  0.00    +0.000 C 
ATOM      9  C   UNL     1       3.210   2.697  17.231  0.00  0.00    +0.000 C 
ENDROOT
BRANCH   1  15
ATOM     10  N   UNL     1       0.930  10.365  17.767  0.00  0.00    +0.000 N 
ATOM     11  C   UNL     1       1.428   9.334  18.560  0.00  0.00    +0.000 A 
ATOM     12  C   UNL     1       1.035   9.208  19.881  0.00  0.00    +0.000 A 
ATOM     13  C   UNL     1       1.504   8.126  20.612  0.00  0.00    +0.000 A 
ATOM     14  C   UNL     1       2.325   7.188  19.987  0.00  0.00    +0.000 A 
ATOM     15  C   UNL     1       2.667   7.364  18.648  0.00  0.00    +0.000 A 
ATOM     16  N   UNL     1       2.235   8.450  17.953  0.00  0.00    +0.000 NA
ATOM     17  H   UNL     1       1.072  11.273  18.194  0.00  0.00    +0.000 HD
ATOM     18  H   UNL     1       1.389  10.290  16.863  0.00  0.00    +0.000 HD
ENDBRANCH   1  15
BRANCH   4  19
ATOM     19  O   UNL     1       5.899   3.629  15.749  0.00  0.00    +0.000 OA
BRANCH  19  20
ATOM     20  C   UNL     1       6.204   4.085  14.433  0.00  0.00    +0.000 C 
BRANCH  20  21
ATOM     21  C   UNL     1       5.125   3.636  13.436  0.00  0.00    +0.000 C 
BRANCH  21  22
ATOM     22  N   UNL     1       5.598   3.683  12.036  0.00  0.00    +0.000 NA
ATOM     23  C   UNL     1       4.969   2.634  11.218  0.00  0.00    +0.000 C 
ATOM     24  C   UNL     1       5.877   1.430  11.364  0.00  0.00    +0.000 C 
ATOM     25  C   UNL     1       7.261   2.044  11.385  0.00  0.00    +0.000 C 
ATOM     26  C   UNL     1       7.051   3.462  11.900  0.00  0.00    +0.000 C 
ENDBRANCH  21  22
ENDBRANCH  20  21
ENDBRANCH  19  20
ENDBRANCH   4  19
TORSDOF 5
ENDMDL
MODEL 3
REMARK VINA RESULT:      -7.7      3.239      8.059
REMARK  Name = 
REMARK  5 active torsions:
REMARK  status: ('A' for Active; 'I' for Inactive)
REMARK    1  A    between atoms: C_6  and  C_7
REMARK    2  A    between atoms: C_10  and  O_11
REMARK    3  A    between atoms: O_11  and  C_12
REMARK    4  A    between atoms: C_12  and  C_13
REMARK    5  A    between atoms: C_13  and  N_14
REMARK                            x       y       z     vdW  Elec       q    Type
REMARK                         _______ _______ _______ _____ _____    ______ ____
ROOT
ATOM      1  C   UNL     1       4.032   6.452  17.832  0.00  0.00    +0.000 A 
ATOM      2  C   UNL     1       3.584   7.753  17.528  0.00  0.00    +0.000 A 
ATOM      3  C   UNL     1       2.558   8.386  18.256  0.00  0.00    +0.000 A 
ATOM      4  C   UNL     1       1.943   7.753  19.340  0.00  0.00    +0.000 A 
ATOM      5  C   UNL     1       2.355   6.463  19.656  0.00  0.00    +0.000 A 
ATOM      6  C   UNL     1       3.390   5.835  18.916  0.00  0.00    +0.000 A 
ATOM      7  C   UNL     1       3.687   4.476  19.501  0.00  0.00    +0.000 C 
ATOM      8  C   UNL     1       2.418   4.183  20.293  0.00  0.00    +0.000 C 
ATOM      9  C   UNL     1       1.891   5.539  20.749  0.00  0.00    +0.000 C 
ENDROOT
BRANCH   1  15
ATOM     10  N   UNL     1       8.204   4.219  17.790  0.00  0.00    +0.000 N 
ATOM     11  C   UNL     1       7.132   4.683  17.032  0.00  0.00    +0.000 A 
ATOM     12  C   UNL     1       7.018   4.351  15.693  0.00  0.00    +0.000 A 
ATOM     13  C   UNL     1       5.898   4.779  14.997  0.00  0.00    +0.000 A 
ATOM     14  C   UNL     1       4.911   5.498  15.671  0.00  0.00    +0.000 A 
ATOM     15  C   UNL     1       5.078   5.780  17.025  0.00  0.00    +0.000 A 
ATOM     16  N   UNL     1       6.199   5.391  17.688  0.00  0.00    +0.000 NA
ATOM     17  H   UNL     1       9.095   4.447  17.363  0.00  0.00    +0.000 HD
ATOM     18  H   UNL     1       8.107   4.623  18.718  0.00  0.00    +0.000 HD
ENDBRANCH   1  15
BRANCH   4  19
ATOM     19  O   UNL     1       0.983   8.512  19.953  0.00  0.00    +0.000 OA
BRANCH  19  20
ATOM     20  C   UNL     1       0.997   9.903  19.640  0.00  0.00    +0.000 C 
BRANCH  20  21
ATOM     21  C   UNL     1      -0.433  10.461  19.568  0.00  0.00    +0.000 C 
BRANCH  21  22
ATOM     22  N   UNL     1      -0.806  10.879  18.201  0.00  0.00    +0.000 NA
ATOM     23  C   UNL     1      -1.776  11.986  18.220  0.00  0.00    +0.000 C 
ATOM     24  C   UNL     1      -3.133  11.313  18.260  0.00  0.00    +0.000 C 
ATOM     25  C   UNL     1      -2.945  10.108  17.362  0.00  0.00    +0.000 C 
ATOM     26  C   UNL     1      -1.453   9.810  17.415  0.00  0.00    +0.000 C 
ENDBRANCH  21  22
ENDBRANCH  20  21
ENDBRANCH  19  20
ENDBRANCH   4  19
TORSDOF 5
ENDMDL
MODEL 4
REMARK VINA RESULT:      -7.5      2.073      7.337
REMARK  Name = 
REMARK  5 active torsions:
REMARK  status: ('A' for Active; 'I' for Inactive)
REMARK    1  A    between atoms: C_6  and  C_7
REMARK    2  A    between atoms: C_10  and  O_11
REMARK    3  A    between atoms: O_11  and  C_12
REMARK    4  A    between atoms: C_12  and  C_13
REMARK    5  A    between atoms: C_13  and  N_14
REMARK                            x       y       z     vdW  Elec       q    Type
REMARK                         _______ _______ _______ _____ _____    ______ ____
ROOT
ATOM      1  C   UNL     1       5.724   4.167  16.013  0.00  0.00    +0.000 A 
ATOM      2  C   UNL     1       4.677   3.268  16.298  0.00  0.00    +0.000 A 
ATOM      3  C   UNL     1       4.203   3.055  17.607  0.00  0.00    +0.000 A 
ATOM      4  C   UNL     1       4.742   3.751  18.694  0.00  0.00    +0.000 A 
ATOM      5  C   UNL     1       5.785   4.636  18.445  0.00  0.00    +0.000 A 
ATOM      6  C   UNL     1       6.255   4.842  17.122  0.00  0.00    +0.000 A 
ATOM      7  C   UNL     1       7.338   5.892  17.120  0.00  0.00    +0.000 C 
ATOM      8  C   UNL     1       7.788   5.892  18.576  0.00  0.00    +0.000 C 
ATOM      9  C   UNL     1       6.556   5.515  19.392  0.00  0.00    +0.000 C 
ENDROOT
BRANCH   1  15
ATOM     10  N   UNL     1       9.037   6.076  13.225  0.00  0.00    +0.000 N 
ATOM     11  C   UNL     1       7.889   5.291  13.288  0.00  0.00    +0.000 A 
ATOM     12  C   UNL     1       7.437   4.612  12.169  0.00  0.00    +0.000 A 
ATOM     13  C   UNL     1       6.328   3.789  12.296  0.00  0.00    +0.000 A 
ATOM     14  C   UNL     1       5.727   3.646  13.546  0.00  0.00    +0.000 A 
ATOM     15  C   UNL     1       6.245   4.342  14.636  0.00  0.00    +0.000 A 
ATOM     16  N   UNL     1       7.307   5.178  14.491  0.00  0.00    +0.000 NA
ATOM     17  H   UNL     1       8.989   6.759  12.478  0.00  0.00    +0.000 HD
ATOM     18  H   UNL     1       9.147   6.512  14.137  0.00  0.00    +0.000 HD
ENDBRANCH   1  15
BRANCH   4  19
ATOM     19  O   UNL     1       4.154   3.447  19.892  0.00  0.00    +0.000 OA
BRANCH  19  20
ATOM     20  C   UNL     1       2.882   4.045  20.131  0.00  0.00    +0.000 C 
BRANCH  20  21
ATOM     21  C   UNL     1       3.002   5.575  20.197  0.00  0.00    +0.000 C 
BRANCH  21  22
ATOM     22  N   UNL     1       2.015   6.254  19.331  0.00  0.00    +0.000 NA
ATOM     23  C   UNL     1       2.297   6.021  17.905  0.00  0.00    +0.000 C 
ATOM     24  C   UNL     1       3.242   7.137  17.508  0.00  0.00    +0.000 C 
ATOM     25  C   UNL     1       2.715   8.325  18.284  0.00  0.00    +0.000 C 
ATOM     26  C   UNL     1       2.005   7.722  19.489  0.00  0.00    +0.000 C 
ENDBRANCH  21  22
ENDBRANCH  20  21
ENDBRANCH  19  20
ENDBRANCH   4  19
TORSDOF 5
ENDMDL
MODEL 5
REMARK VINA RESULT:      -7.5      2.624      3.889
REMARK  Name = 
REMARK  5 active torsions:
REMARK  status: ('A' for Active; 'I' for Inactive)
REMARK    1  A    between atoms: C_6  and  C_7
REMARK    2  A    between atoms: C_10  and  O_11
REMARK    3  A    between atoms: O_11  and  C_12
REMARK    4  A    between atoms: C_12  and  C_13
REMARK    5  A    between atoms: C_13  and  N_14
REMARK                            x       y       z     vdW  Elec       q    Type
REMARK                         _______ _______ _______ _____ _____    ______ ____
ROOT
ATOM      1  C   UNL     1       2.268   7.186  19.222  0.00  0.00    +0.000 A 
ATOM      2  C   UNL     1       3.006   7.462  18.054  0.00  0.00    +0.000 A 
ATOM      3  C   UNL     1       3.620   6.448  17.294  0.00  0.00    +0.000 A 
ATOM      4  C   UNL     1       3.506   5.102  17.657  0.00  0.00    +0.000 A 
ATOM      5  C   UNL     1       2.795   4.800  18.813  0.00  0.00    +0.000 A 
ATOM      6  C   UNL     1       2.181   5.830  19.571  0.00  0.00    +0.000 A 
ATOM      7  C   UNL     1       1.423   5.232  20.729  0.00  0.00    +0.000 C 
ATOM      8  C   UNL     1       2.066   3.856  20.858  0.00  0.00    +0.000 C 
ATOM      9  C   UNL     1       2.503   3.469  19.449  0.00  0.00    +0.000 C 
ENDROOT
BRANCH   1  15
ATOM     10  N   UNL     1      -0.063  11.305  19.280  0.00  0.00    +0.000 N 
ATOM     11  C   UNL     1       0.521  10.294  20.040  0.00  0.00    +0.000 A 
ATOM     12  C   UNL     1       0.360  10.262  21.414  0.00  0.00    +0.000 A 
ATOM     13  C   UNL     1       0.903   9.200  22.121  0.00  0.00    +0.000 A 
ATOM     14  C   UNL     1       1.561   8.186  21.426  0.00  0.00    +0.000 A 
ATOM     15  C   UNL     1       1.670   8.269  20.039  0.00  0.00    +0.000 A 
ATOM     16  N   UNL     1       1.170   9.336  19.361  0.00  0.00    +0.000 NA
ATOM     17  H   UNL     1       0.190  12.226  19.618  0.00  0.00    +0.000 HD
ATOM     18  H   UNL     1       0.227  11.155  18.317  0.00  0.00    +0.000 HD
ENDBRANCH   1  15
BRANCH   4  19
ATOM     19  O   UNL     1       4.140   4.243  16.801  0.00  0.00    +0.000 OA
BRANCH  19  20
ATOM     20  C   UNL     1       5.126   4.825  15.951  0.00  0.00    +0.000 C 
BRANCH  20  21
ATOM     21  C   UNL     1       6.448   4.046  16.034  0.00  0.00    +0.000 C 
BRANCH  21  22
ATOM     22  N   UNL     1       7.562   4.880  16.531  0.00  0.00    +0.000 NA
ATOM     23  C   UNL     1       7.930   4.523  17.911  0.00  0.00    +0.000 C 
ATOM     24  C   UNL     1       7.045   5.387  18.786  0.00  0.00    +0.000 C 
ATOM     25  C   UNL     1       6.989   6.697  18.030  0.00  0.00    +0.000 C 
ATOM     26  C   UNL     1       7.244   6.321  16.576  0.00  0.00    +0.000 C 
ENDBRANCH  21  22
ENDBRANCH  20  21
ENDBRANCH  19  20
ENDBRANCH   4  19
TORSDOF 5
ENDMDL
MODEL 6
REMARK VINA RESULT:      -7.4      3.160      8.248
REMARK  Name = 
REMARK  5 active torsions:
REMARK  status: ('A' for Active; 'I' for Inactive)
REMARK    1  A    between atoms: C_6  and  C_7
REMARK    2  A    between atoms: C_10  and  O_11
REMARK    3  A    between atoms: O_11  and  C_12
REMARK    4  A    between atoms: C_12  and  C_13
REMARK    5  A    between atoms: C_13  and  N_14
REMARK                            x       y       z     vdW  Elec       q    Type
REMARK                         _______ _______ _______ _____ _____    ______ ____
ROOT
ATOM      1  C   UNL     1       3.945   5.914  18.325  0.00  0.00    +0.000 A 
ATOM      2  C   UNL     1       3.380   7.202  18.242  0.00  0.00    +0.000 A 
ATOM      3  C   UNL     1       2.353   7.631  19.105  0.00  0.00    +0.000 A 
ATOM      4  C   UNL     1       1.856   6.796  20.110  0.00  0.00    +0.000 A 
ATOM      5  C   UNL     1       2.385   5.514  20.208  0.00  0.00    +0.000 A 
ATOM      6  C   UNL     1       3.419   5.092  19.334  0.00  0.00    +0.000 A 
ATOM      7  C   UNL     1       3.857   3.694  19.693  0.00  0.00    +0.000 C 
ATOM      8  C   UNL     1       2.664   3.180  20.492  0.00  0.00    +0.000 C 
ATOM      9  C   UNL     1       2.061   4.404  21.171  0.00  0.00    +0.000 C 
ENDROOT
BRANCH   1  15
ATOM     10  N   UNL     1       8.313   4.189  17.743  0.00  0.00    +0.000 N 
ATOM     11  C   UNL     1       7.142   4.609  17.119  0.00  0.00    +0.000 A 
ATOM     12  C   UNL     1       6.959   4.418  15.760  0.00  0.00    +0.000 A 
ATOM     13  C   UNL     1       5.749   4.790  15.194  0.00  0.00    +0.000 A 
ATOM     14  C   UNL     1       4.748   5.312  16.013  0.00  0.00    +0.000 A 
ATOM     15  C   UNL     1       4.990   5.460  17.377  0.00  0.00    +0.000 A 
ATOM     16  N   UNL     1       6.194   5.129  17.914  0.00  0.00    +0.000 NA
ATOM     17  H   UNL     1       9.139   4.563  17.290  0.00  0.00    +0.000 HD
ATOM     18  H   UNL     1       8.247   4.475  18.717  0.00  0.00    +0.000 HD
ENDBRANCH   1  15
BRANCH   4  19
ATOM     19  O   UNL     1       0.878   7.372  20.876  0.00  0.00    +0.000 OA
BRANCH  19  20
ATOM     20  C   UNL     1       1.228   8.601  21.509  0.00  0.00    +0.000 C 
BRANCH  20  21
ATOM     21  C   UNL     1       0.123   9.651  21.312  0.00  0.00    +0.000 C 
BRANCH  21  22
ATOM     22  N   UNL     1       0.412  10.567  20.190  0.00  0.00    +0.000 NA
ATOM     23  C   UNL     1       0.057  11.957  20.522  0.00  0.00    +0.000 C 
ATOM     24  C   UNL     1      -1.395  12.096  20.112  0.00  0.00    +0.000 C 
ATOM     25  C   UNL     1      -1.473  11.278  18.841  0.00  0.00    +0.000 C 
ATOM     26  C   UNL     1      -0.351  10.255  18.965  0.00  0.00    +0.000 C 
ENDBRANCH  21  22
ENDBRANCH  20  21
ENDBRANCH  19  20
ENDBRANCH   4  19
TORSDOF 5
ENDMDL
MODEL 7
REMARK VINA RESULT:      -7.4      3.212      8.664
REMARK  Name = 
REMARK  5 active torsions:
REMARK  status: ('A' for Active; 'I' for Inactive)
REMARK    1  A    between atoms: C_6  and  C_7
REMARK    2  A    between atoms: C_10  and  O_11
REMARK    3  A    between atoms: O_11  and  C_12
REMARK    4  A    between atoms: C_12  and  C_13
REMARK    5  A    between atoms: C_13  and  N_14
REMARK                            x       y       z     vdW  Elec       q    Type
REMARK                         _______ _______ _______ _____ _____    ______ ____
ROOT
ATOM      1  C   UNL     1       3.847   5.618  18.497  0.00  0.00    +0.000 A 
ATOM      2  C   UNL     1       3.388   6.951  18.492  0.00  0.00    +0.000 A 
ATOM      3  C   UNL     1       2.402   7.410  19.386  0.00  0.00    +0.000 A 
ATOM      4  C   UNL     1       1.842   6.560  20.345  0.00  0.00    +0.000 A 
ATOM      5  C   UNL     1       2.265   5.236  20.365  0.00  0.00    +0.000 A 
ATOM      6  C   UNL     1       3.260   4.784  19.460  0.00  0.00    +0.000 A 
ATOM      7  C   UNL     1       3.584   3.337  19.734  0.00  0.00    +0.000 C 
ATOM      8  C   UNL     1       2.356   2.875  20.511  0.00  0.00    +0.000 C 
ATOM      9  C   UNL     1       1.856   4.102  21.264  0.00  0.00    +0.000 C 
ENDROOT
BRANCH   1  15
ATOM     10  N   UNL     1       8.307   4.240  17.712  0.00  0.00    +0.000 N 
ATOM     11  C   UNL     1       7.048   4.462  17.157  0.00  0.00    +0.000 A 
ATOM     12  C   UNL     1       6.772   4.070  15.859  0.00  0.00    +0.000 A 
ATOM     13  C   UNL     1       5.486   4.249  15.372  0.00  0.00    +0.000 A 
ATOM     14  C   UNL     1       4.509   4.783  16.212  0.00  0.00    +0.000 A 
ATOM     15  C   UNL     1       4.849   5.137  17.516  0.00  0.00    +0.000 A 
ATOM     16  N   UNL     1       6.123   4.995  17.969  0.00  0.00    +0.000 NA
ATOM     17  H   UNL     1       9.047   4.623  17.136  0.00  0.00    +0.000 HD
ATOM     18  H   UNL     1       8.294   4.648  18.644  0.00  0.00    +0.000 HD
ENDBRANCH   1  15
BRANCH   4  19
ATOM     19  O   UNL     1       0.916   7.168  21.150  0.00  0.00    +0.000 OA
BRANCH  19  20
ATOM     20  C   UNL     1       0.747   8.571  20.955  0.00  0.00    +0.000 C 
BRANCH  20  21
ATOM     21  C   UNL     1       0.124   9.224  22.198  0.00  0.00    +0.000 C 
BRANCH  21  22
ATOM     22  N   UNL     1       0.392  10.676  22.264  0.00  0.00    +0.000 NA
ATOM     23  C   UNL     1      -0.811  11.429  22.657  0.00  0.00    +0.000 C 
ATOM     24  C   UNL     1      -1.520  11.736  21.354  0.00  0.00    +0.000 C 
ATOM     25  C   UNL     1      -0.379  12.020  20.401  0.00  0.00    +0.000 C 
ATOM     26  C   UNL     1       0.808  11.256  20.973  0.00  0.00    +0.000 C 
ENDBRANCH  21  22
ENDBRANCH  20  21
ENDBRANCH  19  20
ENDBRANCH   4  19
TORSDOF 5
ENDMDL
MODEL 8
REMARK VINA RESULT:      -7.4      1.722      2.355
REMARK  Name = 
REMARK  5 active torsions:
REMARK  status: ('A' for Active; 'I' for Inactive)
REMARK    1  A    between atoms: C_6  and  C_7
REMARK    2  A    between atoms: C_10  and  O_11
REMARK    3  A    between atoms: O_11  and  C_12
REMARK    4  A    between atoms: C_12  and  C_13
REMARK    5  A    between atoms: C_13  and  N_14
REMARK                            x       y       z     vdW  Elec       q    Type
REMARK                         _______ _______ _______ _____ _____    ______ ____
ROOT
ATOM      1  C   UNL     1       2.601   7.089  18.900  0.00  0.00    +0.000 A 
ATOM      2  C   UNL     1       3.505   7.349  17.850  0.00  0.00    +0.000 A 
ATOM      3  C   UNL     1       4.346   6.353  17.317  0.00  0.00    +0.000 A 
ATOM      4  C   UNL     1       4.306   5.040  17.795  0.00  0.00    +0.000 A 
ATOM      5  C   UNL     1       3.433   4.756  18.839  0.00  0.00    +0.000 A 
ATOM      6  C   UNL     1       2.591   5.767  19.369  0.00  0.00    +0.000 A 
ATOM      7  C   UNL     1       1.701   5.185  20.439  0.00  0.00    +0.000 C 
ATOM      8  C   UNL     1       2.447   3.911  20.820  0.00  0.00    +0.000 C 
ATOM      9  C   UNL     1       3.167   3.459  19.554  0.00  0.00    +0.000 C 
ENDROOT
BRANCH   1  15
ATOM     10  N   UNL     1      -0.090  10.905  18.129  0.00  0.00    +0.000 N 
ATOM     11  C   UNL     1       0.439  10.034  19.078  0.00  0.00    +0.000 A 
ATOM     12  C   UNL     1       0.029  10.096  20.398  0.00  0.00    +0.000 A 
ATOM     13  C   UNL     1       0.532   9.164  21.294  0.00  0.00    +0.000 A 
ATOM     14  C   UNL     1       1.403   8.179  20.832  0.00  0.00    +0.000 A 
ATOM     15  C   UNL     1       1.760   8.160  19.485  0.00  0.00    +0.000 A 
ATOM     16  N   UNL     1       1.293   9.103  18.625  0.00  0.00    +0.000 NA
ATOM     17  H   UNL     1       0.005  11.874  18.411  0.00  0.00    +0.000 HD
ATOM     18  H   UNL     1       0.387  10.711  17.252  0.00  0.00    +0.000 HD
ENDBRANCH   1  15
BRANCH   4  19
ATOM     19  O   UNL     1       5.168   4.190  17.154  0.00  0.00    +0.000 OA
BRANCH  19  20
ATOM     20  C   UNL     1       6.501   4.667  16.987  0.00  0.00    +0.000 C 
BRANCH  20  21
ATOM     21  C   UNL     1       7.082   4.204  15.642  0.00  0.00    +0.000 C 
BRANCH  21  22
ATOM     22  N   UNL     1       6.586   5.011  14.507  0.00  0.00    +0.000 NA
ATOM     23  C   UNL     1       5.410   4.389  13.877  0.00  0.00    +0.000 C 
ATOM     24  C   UNL     1       5.979   3.463  12.821  0.00  0.00    +0.000 C 
ATOM     25  C   UNL     1       7.160   4.243  12.281  0.00  0.00    +0.000 C 
ATOM     26  C   UNL     1       7.572   5.166  13.420  0.00  0.00    +0.000 C 
ENDBRANCH  21  22
ENDBRANCH  20  21
ENDBRANCH  19  20
ENDBRANCH   4  19
TORSDOF 5
ENDMDL
MODEL 9
REMARK VINA RESULT:      -7.4      3.206      8.792
REMARK  Name = 
REMARK  5 active torsions:
REMARK  status: ('A' for Active; 'I' for Inactive)
REMARK    1  A    between atoms: C_6  and  C_7
REMARK    2  A    between atoms: C_10  and  O_11
REMARK    3  A    between atoms: O_11  and  C_12
REMARK    4  A    between atoms: C_12  and  C_13
REMARK    5  A    between atoms: C_13  and  N_14
REMARK                            x       y       z     vdW  Elec       q    Type
REMARK                         _______ _______ _______ _____ _____    ______ ____
ROOT
ATOM      1  C   UNL     1       4.047   6.485  17.793  0.00  0.00    +0.000 A 
ATOM      2  C   UNL     1       3.628   7.786  17.448  0.00  0.00    +0.000 A 
ATOM      3  C   UNL     1       2.615   8.463  18.154  0.00  0.00    +0.000 A 
ATOM      4  C   UNL     1       1.986   7.877  19.257  0.00  0.00    +0.000 A 
ATOM      5  C   UNL     1       2.370   6.589  19.614  0.00  0.00    +0.000 A 
ATOM      6  C   UNL     1       3.392   5.916  18.895  0.00  0.00    +0.000 A 
ATOM      7  C   UNL     1       3.660   4.571  19.523  0.00  0.00    +0.000 C 
ATOM      8  C   UNL     1       2.385   4.330  20.323  0.00  0.00    +0.000 C 
ATOM      9  C   UNL     1       1.886   5.710  20.735  0.00  0.00    +0.000 C 
ENDROOT
BRANCH   1  15
ATOM     10  N   UNL     1       8.210   4.234  17.812  0.00  0.00    +0.000 N 
ATOM     11  C   UNL     1       7.128   4.662  17.046  0.00  0.00    +0.000 A 
ATOM     12  C   UNL     1       6.995   4.259  15.728  0.00  0.00    +0.000 A 
ATOM     13  C   UNL     1       5.866   4.655  15.025  0.00  0.00    +0.000 A 
ATOM     14  C   UNL     1       4.892   5.413  15.674  0.00  0.00    +0.000 A 
ATOM     15  C   UNL     1       5.079   5.766  17.009  0.00  0.00    +0.000 A 
ATOM     16  N   UNL     1       6.208   5.408  17.676  0.00  0.00    +0.000 NA
ATOM     17  H   UNL     1       9.096   4.435  17.362  0.00  0.00    +0.000 HD
ATOM     18  H   UNL     1       8.128   4.688  18.718  0.00  0.00    +0.000 HD
ENDBRANCH   1  15
BRANCH   4  19
ATOM     19  O   UNL     1       1.042   8.675  19.845  0.00  0.00    +0.000 OA
BRANCH  19  20
ATOM     20  C   UNL     1       0.735   9.886  19.156  0.00  0.00    +0.000 C 
BRANCH  20  21
ATOM     21  C   UNL     1      -0.661  10.396  19.545  0.00  0.00    +0.000 C 
BRANCH  21  22
ATOM     22  N   UNL     1      -0.624  11.763  20.106  0.00  0.00    +0.000 NA
ATOM     23  C   UNL     1       0.195  11.823  21.328  0.00  0.00    +0.000 C 
ATOM     24  C   UNL     1      -0.766  11.510  22.456  0.00  0.00    +0.000 C 
ATOM     25  C   UNL     1      -2.041  12.201  22.023  0.00  0.00    +0.000 C 
ATOM     26  C   UNL     1      -1.951  12.271  20.504  0.00  0.00    +0.000 C 
ENDBRANCH  21  22
ENDBRANCH  20  21
ENDBRANCH  19  20
ENDBRANCH   4  19
TORSDOF 5
ENDMDL
