MODEL 1
REMARK VINA RESULT:      -6.7      0.000      0.000
REMARK  Name = 
REMARK  4 active torsions:
REMARK  status: ('A' for Active; 'I' for Inactive)
REMARK    1  A    between atoms: C_1  and  O_2
REMARK    2  A    between atoms: O_2  and  C_3
REMARK    3  A    between atoms: C_8  and  C_9
REMARK    4  A    between atoms: C_12  and  O_13
REMARK                            x       y       z     vdW  Elec       q    Type
REMARK                         _______ _______ _______ _____ _____    ______ ____
ROOT
ATOM      1  C   UNL     1       6.537   4.525  14.492  0.00  0.00    +0.000 A 
ATOM      2  C   UNL     1       7.527   4.939  15.480  0.00  0.00    +0.000 A 
ATOM      3  C   UNL     1       7.276   4.889  16.804  0.00  0.00    +0.000 A 
ATOM      4  C   UNL     1       6.020   4.401  17.265  0.00  0.00    +0.000 A 
ATOM      5  N   UNL     1       5.515   4.259  18.474  0.00  0.00    +0.000 NA
ATOM      6  C   UNL     1       4.250   3.735  18.290  0.00  0.00    +0.000 A 
ATOM      7  C   UNL     1       3.994   3.558  16.947  0.00  0.00    +0.000 A 
ATOM      8  N   UNL     1       5.117   3.989  16.296  0.00  0.00    +0.000 N 
ATOM      9  C   UNL     1       5.358   4.045  14.929  0.00  0.00    +0.000 A 
ENDROOT
BRANCH   6  10
ATOM     10  C   UNL     1       3.332   3.423  19.376  0.00  0.00    +0.000 A 
ATOM     11  C   UNL     1       3.770   2.640  20.454  0.00  0.00    +0.000 A 
ATOM     12  C   UNL     1       2.904   2.321  21.505  0.00  0.00    +0.000 A 
ATOM     13  C   UNL     1       1.597   2.790  21.481  0.00  0.00    +0.000 A 
ATOM     14  C   UNL     1       1.140   3.570  20.427  0.00  0.00    +0.000 A 
ATOM     15  C   UNL     1       2.005   3.883  19.376  0.00  0.00    +0.000 A 
BRANCH  13  16
ATOM     16  O   UNL     1       0.715   2.506  22.480  0.00  0.00    +0.000 OA
ATOM     17  H   UNL     1       1.021   2.939  23.292  0.00  0.00    +0.000 HD
ENDBRANCH  13  16
ENDBRANCH   6  10
BRANCH   1  19
ATOM     18  C   UNL     1       6.640   3.631  12.302  0.00  0.00    +0.000 C 
ATOM     19  O   UNL     1       6.927   4.708  13.191  0.00  0.00    +0.000 OA
ENDBRANCH   1  19
TORSDOF 3
ENDMDL
MODEL 2
REMARK VINA RESULT:      -6.7      4.626      7.690
REMARK  Name = 
REMARK  4 active torsions:
REMARK  status: ('A' for Active; 'I' for Inactive)
REMARK    1  A    between atoms: C_1  and  O_2
REMARK    2  A    between atoms: O_2  and  C_3
REMARK    3  A    between atoms: C_8  and  C_9
REMARK    4  A    between atoms: C_12  and  O_13
REMARK                            x       y       z     vdW  Elec       q    Type
REMARK                         _______ _______ _______ _____ _____    ______ ____
ROOT
ATOM      1  C   UNL     1       0.536   9.717  20.858  0.00  0.00    +0.000 A 
ATOM      2  C   UNL     1       0.494  10.489  19.621  0.00  0.00    +0.000 A 
ATOM      3  C   UNL     1       1.115  10.070  18.500  0.00  0.00    +0.000 A 
ATOM      4  C   UNL     1       1.820   8.833  18.505  0.00  0.00    +0.000 A 
ATOM      5  N   UNL     1       2.512   8.205  17.575  0.00  0.00    +0.000 NA
ATOM      6  C   UNL     1       2.964   7.042  18.170  0.00  0.00    +0.000 A 
ATOM      7  C   UNL     1       2.531   6.971  19.477  0.00  0.00    +0.000 A 
ATOM      8  N   UNL     1       1.811   8.114  19.691  0.00  0.00    +0.000 N 
ATOM      9  C   UNL     1       1.184   8.537  20.856  0.00  0.00    +0.000 A 
ENDROOT
BRANCH   6  10
ATOM     10  C   UNL     1       3.781   6.046  17.493  0.00  0.00    +0.000 A 
ATOM     11  C   UNL     1       3.541   4.681  17.714  0.00  0.00    +0.000 A 
ATOM     12  C   UNL     1       4.318   3.706  17.081  0.00  0.00    +0.000 A 
ATOM     13  C   UNL     1       5.335   4.095  16.219  0.00  0.00    +0.000 A 
ATOM     14  C   UNL     1       5.590   5.439  15.980  0.00  0.00    +0.000 A 
ATOM     15  C   UNL     1       4.816   6.411  16.617  0.00  0.00    +0.000 A 
BRANCH  13  16
ATOM     16  O   UNL     1       6.120   3.184  15.579  0.00  0.00    +0.000 OA
ATOM     17  H   UNL     1       5.876   3.175  14.639  0.00  0.00    +0.000 HD
ENDBRANCH  13  16
ENDBRANCH   6  10
BRANCH   1  19
ATOM     18  C   UNL     1      -0.229   9.517  23.090  0.00  0.00    +0.000 C 
ATOM     19  O   UNL     1      -0.087  10.319  21.920  0.00  0.00    +0.000 OA
ENDBRANCH   1  19
TORSDOF 3
ENDMDL
MODEL 3
REMARK VINA RESULT:      -6.7      4.654      7.715
REMARK  Name = 
REMARK  4 active torsions:
REMARK  status: ('A' for Active; 'I' for Inactive)
REMARK    1  A    between atoms: C_1  and  O_2
REMARK    2  A    between atoms: O_2  and  C_3
REMARK    3  A    between atoms: C_8  and  C_9
REMARK    4  A    between atoms: C_12  and  O_13
REMARK                            x       y       z     vdW  Elec       q    Type
REMARK                         _______ _______ _______ _____ _____    ______ ____
ROOT
ATOM      1  C   UNL     1       0.528   9.770  20.849  0.00  0.00    +0.000 A 
ATOM      2  C   UNL     1       0.507  10.536  19.608  0.00  0.00    +0.000 A 
ATOM      3  C   UNL     1       1.134  10.103  18.495  0.00  0.00    +0.000 A 
ATOM      4  C   UNL     1       1.822   8.857  18.512  0.00  0.00    +0.000 A 
ATOM      5  N   UNL     1       2.514   8.215  17.593  0.00  0.00    +0.000 NA
ATOM      6  C   UNL     1       2.946   7.050  18.198  0.00  0.00    +0.000 A 
ATOM      7  C   UNL     1       2.501   6.992  19.502  0.00  0.00    +0.000 A 
ATOM      8  N   UNL     1       1.793   8.145  19.703  0.00  0.00    +0.000 N 
ATOM      9  C   UNL     1       1.161   8.582  20.860  0.00  0.00    +0.000 A 
ENDROOT
BRANCH   6  10
ATOM     10  C   UNL     1       3.756   6.039  17.534  0.00  0.00    +0.000 A 
ATOM     11  C   UNL     1       4.790   6.432  16.670  0.00  0.00    +0.000 A 
ATOM     12  C   UNL     1       5.577   5.480  16.015  0.00  0.00    +0.000 A 
ATOM     13  C   UNL     1       5.334   4.129  16.228  0.00  0.00    +0.000 A 
ATOM     14  C   UNL     1       4.319   3.713  17.081  0.00  0.00    +0.000 A 
ATOM     15  C   UNL     1       3.532   4.667  17.730  0.00  0.00    +0.000 A 
BRANCH  13  16
ATOM     16  O   UNL     1       6.071   3.162  15.613  0.00  0.00    +0.000 OA
ATOM     17  H   UNL     1       6.423   3.526  14.784  0.00  0.00    +0.000 HD
ENDBRANCH  13  16
ENDBRANCH   6  10
BRANCH   1  19
ATOM     18  C   UNL     1      -0.349   9.564  23.038  0.00  0.00    +0.000 C 
ATOM     19  O   UNL     1      -0.097  10.387  21.902  0.00  0.00    +0.000 OA
ENDBRANCH   1  19
TORSDOF 3
ENDMDL
MODEL 4
REMARK VINA RESULT:      -6.7      0.272      1.168
REMARK  Name = 
REMARK  4 active torsions:
REMARK  status: ('A' for Active; 'I' for Inactive)
REMARK    1  A    between atoms: C_1  and  O_2
REMARK    2  A    between atoms: O_2  and  C_3
REMARK    3  A    between atoms: C_8  and  C_9
REMARK    4  A    between atoms: C_12  and  O_13
REMARK                            x       y       z     vdW  Elec       q    Type
REMARK                         _______ _______ _______ _____ _____    ______ ____
ROOT
ATOM      1  C   UNL     1       6.577   4.493  14.564  0.00  0.00    +0.000 A 
ATOM      2  C   UNL     1       7.336   5.328  15.488  0.00  0.00    +0.000 A 
ATOM      3  C   UNL     1       6.990   5.449  16.786  0.00  0.00    +0.000 A 
ATOM      4  C   UNL     1       5.865   4.733  17.286  0.00  0.00    +0.000 A 
ATOM      5  N   UNL     1       5.309   4.679  18.479  0.00  0.00    +0.000 NA
ATOM      6  C   UNL     1       4.241   3.811  18.353  0.00  0.00    +0.000 A 
ATOM      7  C   UNL     1       4.159   3.334  17.062  0.00  0.00    +0.000 A 
ATOM      8  N   UNL     1       5.188   3.927  16.383  0.00  0.00    +0.000 N 
ATOM      9  C   UNL     1       5.526   3.800  15.042  0.00  0.00    +0.000 A 
ENDROOT
BRANCH   6  10
ATOM     10  C   UNL     1       3.342   3.463  19.444  0.00  0.00    +0.000 A 
ATOM     11  C   UNL     1       2.046   4.001  19.476  0.00  0.00    +0.000 A 
ATOM     12  C   UNL     1       1.166   3.687  20.517  0.00  0.00    +0.000 A 
ATOM     13  C   UNL     1       1.581   2.829  21.528  0.00  0.00    +0.000 A 
ATOM     14  C   UNL     1       2.858   2.281  21.517  0.00  0.00    +0.000 A 
ATOM     15  C   UNL     1       3.735   2.600  20.478  0.00  0.00    +0.000 A 
BRANCH  13  16
ATOM     16  O   UNL     1       0.763   2.493  22.564  0.00  0.00    +0.000 OA
ATOM     17  H   UNL     1       0.647   3.274  23.129  0.00  0.00    +0.000 HD
ENDBRANCH  13  16
ENDBRANCH   6  10
BRANCH   1  19
ATOM     18  C   UNL     1       6.439   3.586  12.382  0.00  0.00    +0.000 C 
ATOM     19  O   UNL     1       7.021   4.539  13.268  0.00  0.00    +0.000 OA
ENDBRANCH   1  19
TORSDOF 3
ENDMDL
MODEL 5
REMARK VINA RESULT:      -6.5      4.810      7.608
REMARK  Name = 
REMARK  4 active torsions:
REMARK  status: ('A' for Active; 'I' for Inactive)
REMARK    1  A    between atoms: C_1  and  O_2
REMARK    2  A    between atoms: O_2  and  C_3
REMARK    3  A    between atoms: C_8  and  C_9
REMARK    4  A    between atoms: C_12  and  O_13
REMARK                            x       y       z     vdW  Elec       q    Type
REMARK                         _______ _______ _______ _____ _____    ______ ____
ROOT
ATOM      1  C   UNL     1       0.405  10.234  19.962  0.00  0.00    +0.000 A 
ATOM      2  C   UNL     1       0.497   9.372  21.135  0.00  0.00    +0.000 A 
ATOM      3  C   UNL     1       1.185   8.212  21.114  0.00  0.00    +0.000 A 
ATOM      4  C   UNL     1       1.862   7.815  19.925  0.00  0.00    +0.000 A 
ATOM      5  N   UNL     1       2.580   6.751  19.629  0.00  0.00    +0.000 NA
ATOM      6  C   UNL     1       2.977   6.924  18.317  0.00  0.00    +0.000 A 
ATOM      7  C   UNL     1       2.491   8.114  17.820  0.00  0.00    +0.000 A 
ATOM      8  N   UNL     1       1.775   8.677  18.841  0.00  0.00    +0.000 N 
ATOM      9  C   UNL     1       1.062   9.869  18.845  0.00  0.00    +0.000 A 
ENDROOT
BRANCH   6  10
ATOM     10  C   UNL     1       3.794   5.970  17.581  0.00  0.00    +0.000 A 
ATOM     11  C   UNL     1       3.586   4.593  17.758  0.00  0.00    +0.000 A 
ATOM     12  C   UNL     1       4.364   3.657  17.067  0.00  0.00    +0.000 A 
ATOM     13  C   UNL     1       5.349   4.098  16.193  0.00  0.00    +0.000 A 
ATOM     14  C   UNL     1       5.572   5.456  15.998  0.00  0.00    +0.000 A 
ATOM     15  C   UNL     1       4.797   6.388  16.692  0.00  0.00    +0.000 A 
BRANCH  13  16
ATOM     16  O   UNL     1       6.133   3.227  15.498  0.00  0.00    +0.000 OA
ATOM     17  H   UNL     1       5.857   3.242  14.568  0.00  0.00    +0.000 HD
ENDBRANCH  13  16
ENDBRANCH   6  10
BRANCH   1  19
ATOM     18  C   UNL     1      -0.515  11.807  21.473  0.00  0.00    +0.000 C 
ATOM     19  O   UNL     1      -0.390  11.337  20.133  0.00  0.00    +0.000 OA
ENDBRANCH   1  19
TORSDOF 3
ENDMDL
MODEL 6
REMARK VINA RESULT:      -6.5      4.760      7.507
REMARK  Name = 
REMARK  4 active torsions:
REMARK  status: ('A' for Active; 'I' for Inactive)
REMARK    1  A    between atoms: C_1  and  O_2
REMARK    2  A    between atoms: O_2  and  C_3
REMARK    3  A    between atoms: C_8  and  C_9
REMARK    4  A    between atoms: C_12  and  O_13
REMARK                            x       y       z     vdW  Elec       q    Type
REMARK                         _______ _______ _______ _____ _____    ______ ____
ROOT
ATOM      1  C   UNL     1       0.339  10.100  20.036  0.00  0.00    +0.000 A 
ATOM      2  C   UNL     1       0.483   9.255  21.215  0.00  0.00    +0.000 A 
ATOM      3  C   UNL     1       1.203   8.115  21.191  0.00  0.00    +0.000 A 
ATOM      4  C   UNL     1       1.864   7.724  19.991  0.00  0.00    +0.000 A 
ATOM      5  N   UNL     1       2.605   6.678  19.690  0.00  0.00    +0.000 NA
ATOM      6  C   UNL     1       2.968   6.847  18.367  0.00  0.00    +0.000 A 
ATOM      7  C   UNL     1       2.435   8.017  17.869  0.00  0.00    +0.000 A 
ATOM      8  N   UNL     1       1.727   8.570  18.900  0.00  0.00    +0.000 N 
ATOM      9  C   UNL     1       0.981   9.741  18.908  0.00  0.00    +0.000 A 
ENDROOT
BRANCH   6  10
ATOM     10  C   UNL     1       3.795   5.908  17.623  0.00  0.00    +0.000 A 
ATOM     11  C   UNL     1       4.794   6.389  16.764  0.00  0.00    +0.000 A 
ATOM     12  C   UNL     1       5.596   5.507  16.033  0.00  0.00    +0.000 A 
ATOM     13  C   UNL     1       5.402   4.138  16.165  0.00  0.00    +0.000 A 
ATOM     14  C   UNL     1       4.421   3.636  17.011  0.00  0.00    +0.000 A 
ATOM     15  C   UNL     1       3.619   4.520  17.736  0.00  0.00    +0.000 A 
BRANCH  13  16
ATOM     16  O   UNL     1       6.156   3.237  15.474  0.00  0.00    +0.000 OA
ATOM     17  H   UNL     1       5.599   2.472  15.259  0.00  0.00    +0.000 HD
ENDBRANCH  13  16
ENDBRANCH   6  10
BRANCH   1  19
ATOM     18  C   UNL     1      -0.458  12.156  19.174  0.00  0.00    +0.000 C 
ATOM     19  O   UNL     1      -0.484  11.181  20.213  0.00  0.00    +0.000 OA
ENDBRANCH   1  19
TORSDOF 3
ENDMDL
MODEL 7
REMARK VINA RESULT:      -6.5      0.988      1.960
REMARK  Name = 
REMARK  4 active torsions:
REMARK  status: ('A' for Active; 'I' for Inactive)
REMARK    1  A    between atoms: C_1  and  O_2
REMARK    2  A    between atoms: O_2  and  C_3
REMARK    3  A    between atoms: C_8  and  C_9
REMARK    4  A    between atoms: C_12  and  O_13
REMARK                            x       y       z     vdW  Elec       q    Type
REMARK                         _______ _______ _______ _____ _____    ______ ____
ROOT
ATOM      1  C   UNL     1       7.079   5.143  14.964  0.00  0.00    +0.000 A 
ATOM      2  C   UNL     1       6.070   4.509  14.123  0.00  0.00    +0.000 A 
ATOM      3  C   UNL     1       4.962   3.944  14.644  0.00  0.00    +0.000 A 
ATOM      4  C   UNL     1       4.749   3.977  16.052  0.00  0.00    +0.000 A 
ATOM      5  N   UNL     1       3.784   3.503  16.812  0.00  0.00    +0.000 NA
ATOM      6  C   UNL     1       4.128   3.844  18.107  0.00  0.00    +0.000 A 
ATOM      7  C   UNL     1       5.319   4.538  18.120  0.00  0.00    +0.000 A 
ATOM      8  N   UNL     1       5.717   4.616  16.814  0.00  0.00    +0.000 N 
ATOM      9  C   UNL     1       6.868   5.193  16.292  0.00  0.00    +0.000 A 
ENDROOT
BRANCH   6  10
ATOM     10  C   UNL     1       3.330   3.507  19.277  0.00  0.00    +0.000 A 
ATOM     11  C   UNL     1       2.042   4.046  19.421  0.00  0.00    +0.000 A 
ATOM     12  C   UNL     1       1.261   3.742  20.540  0.00  0.00    +0.000 A 
ATOM     13  C   UNL     1       1.766   2.894  21.517  0.00  0.00    +0.000 A 
ATOM     14  C   UNL     1       3.036   2.345  21.397  0.00  0.00    +0.000 A 
ATOM     15  C   UNL     1       3.816   2.654  20.280  0.00  0.00    +0.000 A 
BRANCH  13  16
ATOM     16  O   UNL     1       1.044   2.568  22.626  0.00  0.00    +0.000 OA
ATOM     17  H   UNL     1       0.429   1.855  22.394  0.00  0.00    +0.000 HD
ENDBRANCH  13  16
ENDBRANCH   6  10
BRANCH   1  19
ATOM     18  C   UNL     1       8.113   5.482  12.861  0.00  0.00    +0.000 C 
ATOM     19  O   UNL     1       8.175   5.603  14.280  0.00  0.00    +0.000 OA
ENDBRANCH   1  19
TORSDOF 3
ENDMDL
MODEL 8
REMARK VINA RESULT:      -6.5      0.988      1.603
REMARK  Name = 
REMARK  4 active torsions:
REMARK  status: ('A' for Active; 'I' for Inactive)
REMARK    1  A    between atoms: C_1  and  O_2
REMARK    2  A    between atoms: O_2  and  C_3
REMARK    3  A    between atoms: C_8  and  C_9
REMARK    4  A    between atoms: C_12  and  O_13
REMARK                            x       y       z     vdW  Elec       q    Type
REMARK                         _______ _______ _______ _____ _____    ______ ____
ROOT
ATOM      1  C   UNL     1       7.059   5.128  15.043  0.00  0.00    +0.000 A 
ATOM      2  C   UNL     1       6.050   4.532  14.175  0.00  0.00    +0.000 A 
ATOM      3  C   UNL     1       4.923   3.980  14.669  0.00  0.00    +0.000 A 
ATOM      4  C   UNL     1       4.690   3.990  16.074  0.00  0.00    +0.000 A 
ATOM      5  N   UNL     1       3.704   3.521  16.811  0.00  0.00    +0.000 NA
ATOM      6  C   UNL     1       4.036   3.830  18.117  0.00  0.00    +0.000 A 
ATOM      7  C   UNL     1       5.240   4.499  18.161  0.00  0.00    +0.000 A 
ATOM      8  N   UNL     1       5.659   4.594  16.862  0.00  0.00    +0.000 N 
ATOM      9  C   UNL     1       6.829   5.157  16.369  0.00  0.00    +0.000 A 
ENDROOT
BRANCH   6  10
ATOM     10  C   UNL     1       3.214   3.487  19.268  0.00  0.00    +0.000 A 
ATOM     11  C   UNL     1       3.743   2.676  20.285  0.00  0.00    +0.000 A 
ATOM     12  C   UNL     1       2.970   2.327  21.397  0.00  0.00    +0.000 A 
ATOM     13  C   UNL     1       1.666   2.794  21.497  0.00  0.00    +0.000 A 
ATOM     14  C   UNL     1       1.120   3.600  20.506  0.00  0.00    +0.000 A 
ATOM     15  C   UNL     1       1.892   3.943  19.394  0.00  0.00    +0.000 A 
BRANCH  13  16
ATOM     16  O   UNL     1       0.872   2.481  22.559  0.00  0.00    +0.000 OA
ATOM     17  H   UNL     1      -0.023   2.302  22.231  0.00  0.00    +0.000 HD
ENDBRANCH  13  16
ENDBRANCH   6  10
BRANCH   1  19
ATOM     18  C   UNL     1       8.140   5.468  12.964  0.00  0.00    +0.000 C 
ATOM     19  O   UNL     1       8.174   5.579  14.385  0.00  0.00    +0.000 OA
ENDBRANCH   1  19
TORSDOF 3
ENDMDL
MODEL 9
REMARK VINA RESULT:      -6.4      4.842      6.703
REMARK  Name = 
REMARK  4 active torsions:
REMARK  status: ('A' for Active; 'I' for Inactive)
REMARK    1  A    between atoms: C_1  and  O_2
REMARK    2  A    between atoms: O_2  and  C_3
REMARK    3  A    between atoms: C_8  and  C_9
REMARK    4  A    between atoms: C_12  and  O_13
REMARK                            x       y       z     vdW  Elec       q    Type
REMARK                         _______ _______ _______ _____ _____    ______ ____
ROOT
ATOM      1  C   UNL     1       1.096  10.177  20.056  0.00  0.00    +0.000 A 
ATOM      2  C   UNL     1       1.454  10.401  18.660  0.00  0.00    +0.000 A 
ATOM      3  C   UNL     1       1.945   9.412  17.884  0.00  0.00    +0.000 A 
ATOM      4  C   UNL     1       2.104   8.105  18.425  0.00  0.00    +0.000 A 
ATOM      5  N   UNL     1       2.562   6.983  17.907  0.00  0.00    +0.000 NA
ATOM      6  C   UNL     1       2.474   6.044  18.917  0.00  0.00    +0.000 A 
ATOM      7  C   UNL     1       1.951   6.614  20.059  0.00  0.00    +0.000 A 
ATOM      8  N   UNL     1       1.724   7.926  19.747  0.00  0.00    +0.000 N 
ATOM      9  C   UNL     1       1.227   8.936  20.561  0.00  0.00    +0.000 A 
ENDROOT
BRANCH   6  10
ATOM     10  C   UNL     1       2.883   4.654  18.775  0.00  0.00    +0.000 A 
ATOM     11  C   UNL     1       2.322   3.863  17.761  0.00  0.00    +0.000 A 
ATOM     12  C   UNL     1       2.693   2.523  17.609  0.00  0.00    +0.000 A 
ATOM     13  C   UNL     1       3.633   1.973  18.471  0.00  0.00    +0.000 A 
ATOM     14  C   UNL     1       4.205   2.735  19.482  0.00  0.00    +0.000 A 
ATOM     15  C   UNL     1       3.829   4.071  19.633  0.00  0.00    +0.000 A 
BRANCH  13  16
ATOM     16  O   UNL     1       4.027   0.673  18.366  0.00  0.00    +0.000 OA
ATOM     17  H   UNL     1       4.384   0.532  17.475  0.00  0.00    +0.000 HD
ENDBRANCH  13  16
ENDBRANCH   6  10
BRANCH   1  19
ATOM     18  C   UNL     1       1.435  12.485  20.460  0.00  0.00    +0.000 C 
ATOM     19  O   UNL     1       0.682  11.303  20.719  0.00  0.00    +0.000 OA
ENDBRANCH   1  19
TORSDOF 3
ENDMDL
