MODEL 1
REMARK VINA RESULT:      -7.4      0.000      0.000
REMARK  Name = 
REMARK  9 active torsions:
REMARK  status: ('A' for Active; 'I' for Inactive)
REMARK    1  A    between atoms: C_1  and  N_2
REMARK    2  A    between atoms: N_2  and  C_3
REMARK    3  A    between atoms: N_2  and  C_4
REMARK    4  A    between atoms: C_4  and  C_5
REMARK    5  A    between atoms: C_13  and  C_14
REMARK    6  A    between atoms: C_13  and  N_20
REMARK    7  A    between atoms: N_20  and  C_21
REMARK    8  A    between atoms: N_20  and  C_22
REMARK    9  A    between atoms: C_22  and  C_23
REMARK                            x       y       z     vdW  Elec       q    Type
REMARK                         _______ _______ _______ _____ _____    ______ ____
ROOT
ATOM      1  C   UNL     1       0.633  15.402  19.642  0.00  0.00    +0.000 C 
ATOM      2  C   UNL     1       1.757  14.349  19.381  0.00  0.00    +0.000 C 
ATOM      3  C   UNL     1       1.648  12.981  20.067  0.00  0.00    +0.000 C 
ATOM      4  C   UNL     1       0.268  12.246  20.038  0.00  0.00    +0.000 C 
ATOM      5  C   UNL     1      -0.844  13.327  20.273  0.00  0.00    +0.000 C 
ATOM      6  C   UNL     1      -0.730  14.666  19.554  0.00  0.00    +0.000 C 
ENDROOT
BRANCH   1   7
ATOM      7  C   UNL     1       0.675  16.468  18.466  0.00  0.00    +0.000 A 
ATOM      8  C   UNL     1       1.876  16.865  17.842  0.00  0.00    +0.000 A 
ATOM      9  C   UNL     1       1.902  17.881  16.878  0.00  0.00    +0.000 A 
ATOM     10  C   UNL     1       0.734  18.547  16.525  0.00  0.00    +0.000 A 
ATOM     11  C   UNL     1      -0.473  18.153  17.087  0.00  0.00    +0.000 A 
ATOM     12  C   UNL     1      -0.503  17.114  18.024  0.00  0.00    +0.000 A 
ENDBRANCH   1   7
BRANCH   4  13
ATOM     13  C   UNL     1       0.164  11.262  21.284  0.00  0.00    +0.000 A 
ATOM     14  C   UNL     1       1.072  10.191  21.482  0.00  0.00    +0.000 A 
ATOM     15  C   UNL     1       0.892   9.251  22.504  0.00  0.00    +0.000 A 
ATOM     16  C   UNL     1      -0.168   9.360  23.381  0.00  0.00    +0.000 A 
ATOM     17  C   UNL     1      -1.042  10.434  23.260  0.00  0.00    +0.000 A 
ATOM     18  C   UNL     1      -0.874  11.376  22.231  0.00  0.00    +0.000 A 
ENDBRANCH   4  13
BRANCH   1  20
ATOM     19  C   UNL     1       2.225  16.681  21.087  0.00  0.00    +0.000 C 
ATOM     20  N   UNL     1       0.883  16.112  20.947  0.00  0.00    +0.000 NA
ATOM     21  C   UNL     1      -0.060  17.130  21.405  0.00  0.00    +0.000 C 
ENDBRANCH   1  20
BRANCH   4  22
ATOM     22  N   UNL     1       0.063  11.479  18.753  0.00  0.00    +0.000 NA
ATOM     23  C   UNL     1       1.259  10.841  18.190  0.00  0.00    +0.000 C 
BRANCH  22  24
ATOM     24  C   UNL     1      -1.038  10.489  18.847  0.00  0.00    +0.000 C 
BRANCH  24  25
ATOM     25  C   UNL     1      -2.121  10.641  17.800  0.00  0.00    +0.000 A 
ATOM     26  C   UNL     1      -3.228  11.472  18.037  0.00  0.00    +0.000 A 
ATOM     27  C   UNL     1      -4.247  11.561  17.095  0.00  0.00    +0.000 A 
ATOM     28  C   UNL     1      -4.170  10.818  15.915  0.00  0.00    +0.000 A 
ATOM     29  C   UNL     1      -3.080   9.979  15.686  0.00  0.00    +0.000 A 
ATOM     30  C   UNL     1      -2.058   9.893  16.614  0.00  0.00    +0.000 A 
ENDBRANCH  24  25
ENDBRANCH  22  24
ENDBRANCH   4  22
TORSDOF 6
ENDMDL
MODEL 2
REMARK VINA RESULT:      -7.3      0.199      1.532
REMARK  Name = 
REMARK  9 active torsions:
REMARK  status: ('A' for Active; 'I' for Inactive)
REMARK    1  A    between atoms: C_1  and  N_2
REMARK    2  A    between atoms: N_2  and  C_3
REMARK    3  A    between atoms: N_2  and  C_4
REMARK    4  A    between atoms: C_4  and  C_5
REMARK    5  A    between atoms: C_13  and  C_14
REMARK    6  A    between atoms: C_13  and  N_20
REMARK    7  A    between atoms: N_20  and  C_21
REMARK    8  A    between atoms: N_20  and  C_22
REMARK    9  A    between atoms: C_22  and  C_23
REMARK                            x       y       z     vdW  Elec       q    Type
REMARK                         _______ _______ _______ _____ _____    ______ ____
ROOT
ATOM      1  C   UNL     1       0.628  15.360  19.777  0.00  0.00    +0.000 C 
ATOM      2  C   UNL     1       1.776  14.330  19.528  0.00  0.00    +0.000 C 
ATOM      3  C   UNL     1       1.644  12.929  20.139  0.00  0.00    +0.000 C 
ATOM      4  C   UNL     1       0.275  12.186  19.999  0.00  0.00    +0.000 C 
ATOM      5  C   UNL     1      -0.860  13.245  20.223  0.00  0.00    +0.000 C 
ATOM      6  C   UNL     1      -0.720  14.619  19.578  0.00  0.00    +0.000 C 
ENDROOT
BRANCH   1   7
ATOM      7  C   UNL     1       0.724  16.482  18.657  0.00  0.00    +0.000 A 
ATOM      8  C   UNL     1      -0.411  17.147  18.148  0.00  0.00    +0.000 A 
ATOM      9  C   UNL     1      -0.315  18.059  17.089  0.00  0.00    +0.000 A 
ATOM     10  C   UNL     1       0.914  18.317  16.491  0.00  0.00    +0.000 A 
ATOM     11  C   UNL     1       2.058  17.713  16.995  0.00  0.00    +0.000 A 
ATOM     12  C   UNL     1       1.966  16.829  18.076  0.00  0.00    +0.000 A 
ENDBRANCH   1   7
BRANCH   4  13
ATOM     13  C   UNL     1       0.113  11.141  21.188  0.00  0.00    +0.000 A 
ATOM     14  C   UNL     1      -0.932  11.235  22.143  0.00  0.00    +0.000 A 
ATOM     15  C   UNL     1      -0.986  10.394  23.261  0.00  0.00    +0.000 A 
ATOM     16  C   UNL     1      -0.033   9.414  23.450  0.00  0.00    +0.000 A 
ATOM     17  C   UNL     1       0.969   9.247  22.501  0.00  0.00    +0.000 A 
ATOM     18  C   UNL     1       1.036  10.094  21.382  0.00  0.00    +0.000 A 
ENDBRANCH   4  13
BRANCH   1  20
ATOM     19  C   UNL     1       2.179  16.355  21.469  0.00  0.00    +0.000 C 
ATOM     20  N   UNL     1       0.799  16.007  21.127  0.00  0.00    +0.000 NA
ATOM     21  C   UNL     1      -0.030  17.157  21.483  0.00  0.00    +0.000 C 
ENDBRANCH   1  20
BRANCH   4  22
ATOM     22  N   UNL     1       0.149  11.481  18.669  0.00  0.00    +0.000 NA
ATOM     23  C   UNL     1       1.406  11.025  18.064  0.00  0.00    +0.000 C 
BRANCH  22  24
ATOM     24  C   UNL     1      -0.826  10.363  18.704  0.00  0.00    +0.000 C 
BRANCH  24  25
ATOM     25  C   UNL     1      -2.019  10.532  17.787  0.00  0.00    +0.000 A 
ATOM     26  C   UNL     1      -2.027   9.939  16.513  0.00  0.00    +0.000 A 
ATOM     27  C   UNL     1      -3.100  10.146  15.654  0.00  0.00    +0.000 A 
ATOM     28  C   UNL     1      -4.168  10.950  16.058  0.00  0.00    +0.000 A 
ATOM     29  C   UNL     1      -4.155  11.554  17.315  0.00  0.00    +0.000 A 
ATOM     30  C   UNL     1      -3.095  11.343  18.178  0.00  0.00    +0.000 A 
ENDBRANCH  24  25
ENDBRANCH  22  24
ENDBRANCH   4  22
TORSDOF 6
ENDMDL
MODEL 3
REMARK VINA RESULT:      -7.3      0.397      1.120
REMARK  Name = 
REMARK  9 active torsions:
REMARK  status: ('A' for Active; 'I' for Inactive)
REMARK    1  A    between atoms: C_1  and  N_2
REMARK    2  A    between atoms: N_2  and  C_3
REMARK    3  A    between atoms: N_2  and  C_4
REMARK    4  A    between atoms: C_4  and  C_5
REMARK    5  A    between atoms: C_13  and  C_14
REMARK    6  A    between atoms: C_13  and  N_20
REMARK    7  A    between atoms: N_20  and  C_21
REMARK    8  A    between atoms: N_20  and  C_22
REMARK    9  A    between atoms: C_22  and  C_23
REMARK                            x       y       z     vdW  Elec       q    Type
REMARK                         _______ _______ _______ _____ _____    ______ ____
ROOT
ATOM      1  C   UNL     1       0.649  15.255  19.679  0.00  0.00    +0.000 C 
ATOM      2  C   UNL     1       1.791  14.214  19.450  0.00  0.00    +0.000 C 
ATOM      3  C   UNL     1       1.656  12.829  20.096  0.00  0.00    +0.000 C 
ATOM      4  C   UNL     1       0.283  12.088  19.980  0.00  0.00    +0.000 C 
ATOM      5  C   UNL     1      -0.846  13.158  20.184  0.00  0.00    +0.000 C 
ATOM      6  C   UNL     1      -0.704  14.514  19.504  0.00  0.00    +0.000 C 
ENDROOT
BRANCH   1   7
ATOM      7  C   UNL     1       0.744  16.349  18.532  0.00  0.00    +0.000 A 
ATOM      8  C   UNL     1       1.967  16.727  17.941  0.00  0.00    +0.000 A 
ATOM      9  C   UNL     1       2.041  17.767  17.005  0.00  0.00    +0.000 A 
ATOM     10  C   UNL     1       0.899  18.476  16.649  0.00  0.00    +0.000 A 
ATOM     11  C   UNL     1      -0.329  18.102  17.178  0.00  0.00    +0.000 A 
ATOM     12  C   UNL     1      -0.407  17.040  18.086  0.00  0.00    +0.000 A 
ENDBRANCH   1   7
BRANCH   4  13
ATOM     13  C   UNL     1       0.123  11.074  21.195  0.00  0.00    +0.000 A 
ATOM     14  C   UNL     1      -0.931  11.181  22.139  0.00  0.00    +0.000 A 
ATOM     15  C   UNL     1      -0.985  10.369  23.278  0.00  0.00    +0.000 A 
ATOM     16  C   UNL     1      -0.024   9.405  23.501  0.00  0.00    +0.000 A 
ATOM     17  C   UNL     1       0.988   9.224  22.565  0.00  0.00    +0.000 A 
ATOM     18  C   UNL     1       1.056  10.042  21.424  0.00  0.00    +0.000 A 
ENDBRANCH   4  13
BRANCH   1  20
ATOM     19  C   UNL     1      -0.074  15.464  22.065  0.00  0.00    +0.000 C 
ATOM     20  N   UNL     1       0.828  15.934  21.012  0.00  0.00    +0.000 NA
ATOM     21  C   UNL     1       2.161  16.020  21.602  0.00  0.00    +0.000 C 
ENDBRANCH   1  20
BRANCH   4  22
ATOM     22  N   UNL     1       0.149  11.352  18.668  0.00  0.00    +0.000 NA
ATOM     23  C   UNL     1       1.381  10.755  18.139  0.00  0.00    +0.000 C 
BRANCH  22  24
ATOM     24  C   UNL     1      -0.932  10.336  18.691  0.00  0.00    +0.000 C 
BRANCH  24  25
ATOM     25  C   UNL     1      -2.043  10.567  17.689  0.00  0.00    +0.000 A 
ATOM     26  C   UNL     1      -3.131  11.395  18.011  0.00  0.00    +0.000 A 
ATOM     27  C   UNL     1      -4.176  11.556  17.108  0.00  0.00    +0.000 A 
ATOM     28  C   UNL     1      -4.145  10.888  15.883  0.00  0.00    +0.000 A 
ATOM     29  C   UNL     1      -3.075  10.051  15.568  0.00  0.00    +0.000 A 
ATOM     30  C   UNL     1      -2.027   9.895  16.457  0.00  0.00    +0.000 A 
ENDBRANCH  24  25
ENDBRANCH  22  24
ENDBRANCH   4  22
TORSDOF 6
ENDMDL
MODEL 4
REMARK VINA RESULT:      -7.3      3.749      8.090
REMARK  Name = 
REMARK  9 active torsions:
REMARK  status: ('A' for Active; 'I' for Inactive)
REMARK    1  A    between atoms: C_1  and  N_2
REMARK    2  A    between atoms: N_2  and  C_3
REMARK    3  A    between atoms: N_2  and  C_4
REMARK    4  A    between atoms: C_4  and  C_5
REMARK    5  A    between atoms: C_13  and  C_14
REMARK    6  A    between atoms: C_13  and  N_20
REMARK    7  A    between atoms: N_20  and  C_21
REMARK    8  A    between atoms: N_20  and  C_22
REMARK    9  A    between atoms: C_22  and  C_23
REMARK                            x       y       z     vdW  Elec       q    Type
REMARK                         _______ _______ _______ _____ _____    ______ ____
ROOT
ATOM      1  C   UNL     1       2.372   6.745  19.011  0.00  0.00    +0.000 C 
ATOM      2  C   UNL     1       2.011   7.347  20.406  0.00  0.00    +0.000 C 
ATOM      3  C   UNL     1       1.897   8.871  20.534  0.00  0.00    +0.000 C 
ATOM      4  C   UNL     1       1.095   9.649  19.439  0.00  0.00    +0.000 C 
ATOM      5  C   UNL     1       1.452   9.008  18.053  0.00  0.00    +0.000 C 
ATOM      6  C   UNL     1       1.527   7.490  17.943  0.00  0.00    +0.000 C 
ENDROOT
BRANCH   1   7
ATOM      7  C   UNL     1       1.919   5.223  19.000  0.00  0.00    +0.000 A 
ATOM      8  C   UNL     1       1.908   4.442  17.826  0.00  0.00    +0.000 A 
ATOM      9  C   UNL     1       1.406   3.133  17.819  0.00  0.00    +0.000 A 
ATOM     10  C   UNL     1       0.880   2.575  18.979  0.00  0.00    +0.000 A 
ATOM     11  C   UNL     1       0.914   3.300  20.162  0.00  0.00    +0.000 A 
ATOM     12  C   UNL     1       1.448   4.594  20.176  0.00  0.00    +0.000 A 
ENDBRANCH   1   7
BRANCH   4  13
ATOM     13  C   UNL     1       1.625  11.147  19.356  0.00  0.00    +0.000 A 
ATOM     14  C   UNL     1       1.531  12.047  20.448  0.00  0.00    +0.000 A 
ATOM     15  C   UNL     1       1.874  13.398  20.321  0.00  0.00    +0.000 A 
ATOM     16  C   UNL     1       2.355  13.893  19.126  0.00  0.00    +0.000 A 
ATOM     17  C   UNL     1       2.524  13.028  18.051  0.00  0.00    +0.000 A 
ATOM     18  C   UNL     1       2.171  11.672  18.167  0.00  0.00    +0.000 A 
ENDBRANCH   4  13
BRANCH   1  20
ATOM     19  C   UNL     1       4.617   5.707  19.394  0.00  0.00    +0.000 C 
ATOM     20  N   UNL     1       3.862   6.807  18.791  0.00  0.00    +0.000 NA
ATOM     21  C   UNL     1       4.382   6.988  17.438  0.00  0.00    +0.000 C 
ENDBRANCH   1  20
BRANCH   4  22
ATOM     22  N   UNL     1      -0.390   9.639  19.713  0.00  0.00    +0.000 NA
ATOM     23  C   UNL     1      -0.788   9.282  21.080  0.00  0.00    +0.000 C 
BRANCH  22  24
ATOM     24  C   UNL     1      -1.054  10.904  19.312  0.00  0.00    +0.000 C 
BRANCH  24  25
ATOM     25  C   UNL     1      -2.061  10.766  18.189  0.00  0.00    +0.000 A 
ATOM     26  C   UNL     1      -1.791   9.933  17.090  0.00  0.00    +0.000 A 
ATOM     27  C   UNL     1      -2.694   9.857  16.035  0.00  0.00    +0.000 A 
ATOM     28  C   UNL     1      -3.867  10.612  16.069  0.00  0.00    +0.000 A 
ATOM     29  C   UNL     1      -4.129  11.453  17.150  0.00  0.00    +0.000 A 
ATOM     30  C   UNL     1      -3.240  11.526  18.207  0.00  0.00    +0.000 A 
ENDBRANCH  24  25
ENDBRANCH  22  24
ENDBRANCH   4  22
TORSDOF 6
ENDMDL
MODEL 5
REMARK VINA RESULT:      -7.3      3.742      8.073
REMARK  Name = 
REMARK  9 active torsions:
REMARK  status: ('A' for Active; 'I' for Inactive)
REMARK    1  A    between atoms: C_1  and  N_2
REMARK    2  A    between atoms: N_2  and  C_3
REMARK    3  A    between atoms: N_2  and  C_4
REMARK    4  A    between atoms: C_4  and  C_5
REMARK    5  A    between atoms: C_13  and  C_14
REMARK    6  A    between atoms: C_13  and  N_20
REMARK    7  A    between atoms: N_20  and  C_21
REMARK    8  A    between atoms: N_20  and  C_22
REMARK    9  A    between atoms: C_22  and  C_23
REMARK                            x       y       z     vdW  Elec       q    Type
REMARK                         _______ _______ _______ _____ _____    ______ ____
ROOT
ATOM      1  C   UNL     1       2.285   6.780  19.008  0.00  0.00    +0.000 C 
ATOM      2  C   UNL     1       1.924   7.397  20.398  0.00  0.00    +0.000 C 
ATOM      3  C   UNL     1       1.829   8.923  20.516  0.00  0.00    +0.000 C 
ATOM      4  C   UNL     1       1.044   9.704  19.411  0.00  0.00    +0.000 C 
ATOM      5  C   UNL     1       1.400   9.049  18.031  0.00  0.00    +0.000 C 
ATOM      6  C   UNL     1       1.456   7.530  17.932  0.00  0.00    +0.000 C 
ENDROOT
BRANCH   1   7
ATOM      7  C   UNL     1       1.812   5.265  19.005  0.00  0.00    +0.000 A 
ATOM      8  C   UNL     1       1.366   4.605  20.168  0.00  0.00    +0.000 A 
ATOM      9  C   UNL     1       1.052   3.239  20.164  0.00  0.00    +0.000 A 
ATOM     10  C   UNL     1       1.195   2.488  19.003  0.00  0.00    +0.000 A 
ATOM     11  C   UNL     1       1.590   3.114  17.828  0.00  0.00    +0.000 A 
ATOM     12  C   UNL     1       1.870   4.485  17.826  0.00  0.00    +0.000 A 
ENDBRANCH   1   7
BRANCH   4  13
ATOM     13  C   UNL     1       1.594  11.194  19.321  0.00  0.00    +0.000 A 
ATOM     14  C   UNL     1       2.160  11.724  18.133  0.00  0.00    +0.000 A 
ATOM     15  C   UNL     1       2.763  12.986  18.103  0.00  0.00    +0.000 A 
ATOM     16  C   UNL     1       2.795  13.778  19.233  0.00  0.00    +0.000 A 
ATOM     17  C   UNL     1       2.192  13.322  20.400  0.00  0.00    +0.000 A 
ATOM     18  C   UNL     1       1.594  12.050  20.441  0.00  0.00    +0.000 A 
ENDBRANCH   4  13
BRANCH   1  20
ATOM     19  C   UNL     1       4.513   5.713  19.405  0.00  0.00    +0.000 C 
ATOM     20  N   UNL     1       3.777   6.822  18.796  0.00  0.00    +0.000 NA
ATOM     21  C   UNL     1       4.307   6.993  17.446  0.00  0.00    +0.000 C 
ENDBRANCH   1  20
BRANCH   4  22
ATOM     22  N   UNL     1      -0.443   9.715  19.677  0.00  0.00    +0.000 NA
ATOM     23  C   UNL     1      -0.851   9.406  21.052  0.00  0.00    +0.000 C 
BRANCH  22  24
ATOM     24  C   UNL     1      -1.094  10.972  19.231  0.00  0.00    +0.000 C 
BRANCH  24  25
ATOM     25  C   UNL     1      -2.109  10.803  18.120  0.00  0.00    +0.000 A 
ATOM     26  C   UNL     1      -1.837   9.957  17.031  0.00  0.00    +0.000 A 
ATOM     27  C   UNL     1      -2.749   9.852  15.986  0.00  0.00    +0.000 A 
ATOM     28  C   UNL     1      -3.932  10.593  16.020  0.00  0.00    +0.000 A 
ATOM     29  C   UNL     1      -4.195  11.446  17.091  0.00  0.00    +0.000 A 
ATOM     30  C   UNL     1      -3.298  11.547  18.138  0.00  0.00    +0.000 A 
ENDBRANCH  24  25
ENDBRANCH  22  24
ENDBRANCH   4  22
TORSDOF 6
ENDMDL
MODEL 6
REMARK VINA RESULT:      -7.2      0.329      1.118
REMARK  Name = 
REMARK  9 active torsions:
REMARK  status: ('A' for Active; 'I' for Inactive)
REMARK    1  A    between atoms: C_1  and  N_2
REMARK    2  A    between atoms: N_2  and  C_3
REMARK    3  A    between atoms: N_2  and  C_4
REMARK    4  A    between atoms: C_4  and  C_5
REMARK    5  A    between atoms: C_13  and  C_14
REMARK    6  A    between atoms: C_13  and  N_20
REMARK    7  A    between atoms: N_20  and  C_21
REMARK    8  A    between atoms: N_20  and  C_22
REMARK    9  A    between atoms: C_22  and  C_23
REMARK                            x       y       z     vdW  Elec       q    Type
REMARK                         _______ _______ _______ _____ _____    ______ ____
ROOT
ATOM      1  C   UNL     1       0.741  15.382  19.666  0.00  0.00    +0.000 C 
ATOM      2  C   UNL     1       1.853  14.315  19.407  0.00  0.00    +0.000 C 
ATOM      3  C   UNL     1       1.729  12.951  20.097  0.00  0.00    +0.000 C 
ATOM      4  C   UNL     1       0.340  12.231  20.071  0.00  0.00    +0.000 C 
ATOM      5  C   UNL     1      -0.759  13.325  20.304  0.00  0.00    +0.000 C 
ATOM      6  C   UNL     1      -0.631  14.661  19.582  0.00  0.00    +0.000 C 
ENDROOT
BRANCH   1   7
ATOM      7  C   UNL     1       0.794  16.443  18.486  0.00  0.00    +0.000 A 
ATOM      8  C   UNL     1       1.992  16.791  17.830  0.00  0.00    +0.000 A 
ATOM      9  C   UNL     1       2.033  17.805  16.863  0.00  0.00    +0.000 A 
ATOM     10  C   UNL     1       0.883  18.517  16.540  0.00  0.00    +0.000 A 
ATOM     11  C   UNL     1      -0.323  18.172  17.136  0.00  0.00    +0.000 A 
ATOM     12  C   UNL     1      -0.369  17.136  18.075  0.00  0.00    +0.000 A 
ENDBRANCH   1   7
BRANCH   4  13
ATOM     13  C   UNL     1       0.227  11.252  21.320  0.00  0.00    +0.000 A 
ATOM     14  C   UNL     1       1.170  10.221  21.564  0.00  0.00    +0.000 A 
ATOM     15  C   UNL     1       0.987   9.281  22.585  0.00  0.00    +0.000 A 
ATOM     16  C   UNL     1      -0.110   9.352  23.418  0.00  0.00    +0.000 A 
ATOM     17  C   UNL     1      -1.023  10.388  23.254  0.00  0.00    +0.000 A 
ATOM     18  C   UNL     1      -0.853  11.329  22.223  0.00  0.00    +0.000 A 
ENDBRANCH   4  13
BRANCH   1  20
ATOM     19  C   UNL     1      -0.032  15.898  21.988  0.00  0.00    +0.000 C 
ATOM     20  N   UNL     1       1.001  16.093  20.969  0.00  0.00    +0.000 NA
ATOM     21  C   UNL     1       2.291  15.927  21.634  0.00  0.00    +0.000 C 
ENDBRANCH   1  20
BRANCH   4  22
ATOM     22  N   UNL     1       0.126  11.463  18.789  0.00  0.00    +0.000 NA
ATOM     23  C   UNL     1       1.330  10.895  18.173  0.00  0.00    +0.000 C 
BRANCH  22  24
ATOM     24  C   UNL     1      -0.915  10.413  18.919  0.00  0.00    +0.000 C 
BRANCH  24  25
ATOM     25  C   UNL     1      -2.070  10.540  17.949  0.00  0.00    +0.000 A 
ATOM     26  C   UNL     1      -2.064   9.829  16.737  0.00  0.00    +0.000 A 
ATOM     27  C   UNL     1      -3.101   9.996  15.826  0.00  0.00    +0.000 A 
ATOM     28  C   UNL     1      -4.145  10.876  16.115  0.00  0.00    +0.000 A 
ATOM     29  C   UNL     1      -4.145  11.596  17.309  0.00  0.00    +0.000 A 
ATOM     30  C   UNL     1      -3.122  11.427  18.225  0.00  0.00    +0.000 A 
ENDBRANCH  24  25
ENDBRANCH  22  24
ENDBRANCH   4  22
TORSDOF 6
ENDMDL
MODEL 7
REMARK VINA RESULT:      -7.2      3.727      7.994
REMARK  Name = 
REMARK  9 active torsions:
REMARK  status: ('A' for Active; 'I' for Inactive)
REMARK    1  A    between atoms: C_1  and  N_2
REMARK    2  A    between atoms: N_2  and  C_3
REMARK    3  A    between atoms: N_2  and  C_4
REMARK    4  A    between atoms: C_4  and  C_5
REMARK    5  A    between atoms: C_13  and  C_14
REMARK    6  A    between atoms: C_13  and  N_20
REMARK    7  A    between atoms: N_20  and  C_21
REMARK    8  A    between atoms: N_20  and  C_22
REMARK    9  A    between atoms: C_22  and  C_23
REMARK                            x       y       z     vdW  Elec       q    Type
REMARK                         _______ _______ _______ _____ _____    ______ ____
ROOT
ATOM      1  C   UNL     1       2.348   6.785  19.005  0.00  0.00    +0.000 C 
ATOM      2  C   UNL     1       1.998   7.394  20.401  0.00  0.00    +0.000 C 
ATOM      3  C   UNL     1       1.879   8.918  20.523  0.00  0.00    +0.000 C 
ATOM      4  C   UNL     1       1.061   9.686  19.432  0.00  0.00    +0.000 C 
ATOM      5  C   UNL     1       1.406   9.039  18.045  0.00  0.00    +0.000 C 
ATOM      6  C   UNL     1       1.487   7.521  17.943  0.00  0.00    +0.000 C 
ENDROOT
BRANCH   1   7
ATOM      7  C   UNL     1       1.901   5.262  19.007  0.00  0.00    +0.000 A 
ATOM      8  C   UNL     1       1.846   4.484  17.832  0.00  0.00    +0.000 A 
ATOM      9  C   UNL     1       1.351   3.173  17.841  0.00  0.00    +0.000 A 
ATOM     10  C   UNL     1       0.874   2.609  19.019  0.00  0.00    +0.000 A 
ATOM     11  C   UNL     1       0.953   3.330  20.202  0.00  0.00    +0.000 A 
ATOM     12  C   UNL     1       1.481   4.627  20.199  0.00  0.00    +0.000 A 
ENDBRANCH   1   7
BRANCH   4  13
ATOM     13  C   UNL     1       1.583  11.186  19.335  0.00  0.00    +0.000 A 
ATOM     14  C   UNL     1       2.130  11.724  18.141  0.00  0.00    +0.000 A 
ATOM     15  C   UNL     1       2.710  12.997  18.104  0.00  0.00    +0.000 A 
ATOM     16  C   UNL     1       2.736  13.791  19.232  0.00  0.00    +0.000 A 
ATOM     17  C   UNL     1       2.151  13.326  20.405  0.00  0.00    +0.000 A 
ATOM     18  C   UNL     1       1.577  12.044  20.453  0.00  0.00    +0.000 A 
ENDBRANCH   4  13
BRANCH   1  20
ATOM     19  C   UNL     1       4.600   5.759  19.367  0.00  0.00    +0.000 C 
ATOM     20  N   UNL     1       3.834   6.854  18.769  0.00  0.00    +0.000 NA
ATOM     21  C   UNL     1       4.339   7.032  17.409  0.00  0.00    +0.000 C 
ENDBRANCH   1  20
BRANCH   4  22
ATOM     22  N   UNL     1      -0.421   9.671  19.722  0.00  0.00    +0.000 NA
ATOM     23  C   UNL     1      -0.803   9.281  21.084  0.00  0.00    +0.000 C 
BRANCH  22  24
ATOM     24  C   UNL     1      -1.088  10.946  19.359  0.00  0.00    +0.000 C 
BRANCH  24  25
ATOM     25  C   UNL     1      -2.052  10.850  18.196  0.00  0.00    +0.000 A 
ATOM     26  C   UNL     1      -3.254  11.578  18.206  0.00  0.00    +0.000 A 
ATOM     27  C   UNL     1      -4.162  11.439  17.162  0.00  0.00    +0.000 A 
ATOM     28  C   UNL     1      -3.879  10.571  16.106  0.00  0.00    +0.000 A 
ATOM     29  C   UNL     1      -2.696   9.834  16.103  0.00  0.00    +0.000 A 
ATOM     30  C   UNL     1      -1.784   9.974  17.133  0.00  0.00    +0.000 A 
ENDBRANCH  24  25
ENDBRANCH  22  24
ENDBRANCH   4  22
TORSDOF 6
ENDMDL
MODEL 8
REMARK VINA RESULT:      -7.2      3.756      8.072
REMARK  Name = 
REMARK  9 active torsions:
REMARK  status: ('A' for Active; 'I' for Inactive)
REMARK    1  A    between atoms: C_1  and  N_2
REMARK    2  A    between atoms: N_2  and  C_3
REMARK    3  A    between atoms: N_2  and  C_4
REMARK    4  A    between atoms: C_4  and  C_5
REMARK    5  A    between atoms: C_13  and  C_14
REMARK    6  A    between atoms: C_13  and  N_20
REMARK    7  A    between atoms: N_20  and  C_21
REMARK    8  A    between atoms: N_20  and  C_22
REMARK    9  A    between atoms: C_22  and  C_23
REMARK                            x       y       z     vdW  Elec       q    Type
REMARK                         _______ _______ _______ _____ _____    ______ ____
ROOT
ATOM      1  C   UNL     1       2.298   6.745  19.023  0.00  0.00    +0.000 C 
ATOM      2  C   UNL     1       1.940   7.359  20.414  0.00  0.00    +0.000 C 
ATOM      3  C   UNL     1       1.861   8.886  20.539  0.00  0.00    +0.000 C 
ATOM      4  C   UNL     1       1.085   9.679  19.436  0.00  0.00    +0.000 C 
ATOM      5  C   UNL     1       1.437   9.027  18.054  0.00  0.00    +0.000 C 
ATOM      6  C   UNL     1       1.478   7.507  17.948  0.00  0.00    +0.000 C 
ENDROOT
BRANCH   1   7
ATOM      7  C   UNL     1       1.809   5.235  19.012  0.00  0.00    +0.000 A 
ATOM      8  C   UNL     1       1.355   4.574  20.172  0.00  0.00    +0.000 A 
ATOM      9  C   UNL     1       1.026   3.212  20.161  0.00  0.00    +0.000 A 
ATOM     10  C   UNL     1       1.163   2.464  18.997  0.00  0.00    +0.000 A 
ATOM     11  C   UNL     1       1.567   3.091  17.826  0.00  0.00    +0.000 A 
ATOM     12  C   UNL     1       1.861   4.460  17.830  0.00  0.00    +0.000 A 
ENDBRANCH   1   7
BRANCH   4  13
ATOM     13  C   UNL     1       1.651  11.164  19.353  0.00  0.00    +0.000 A 
ATOM     14  C   UNL     1       1.597  12.059  20.452  0.00  0.00    +0.000 A 
ATOM     15  C   UNL     1       1.971  13.402  20.329  0.00  0.00    +0.000 A 
ATOM     16  C   UNL     1       2.444  13.893  19.129  0.00  0.00    +0.000 A 
ATOM     17  C   UNL     1       2.575  13.031  18.046  0.00  0.00    +0.000 A 
ATOM     18  C   UNL     1       2.191  11.684  18.159  0.00  0.00    +0.000 A 
ENDBRANCH   4  13
BRANCH   1  20
ATOM     19  C   UNL     1       4.513   5.648  19.412  0.00  0.00    +0.000 C 
ATOM     20  N   UNL     1       3.790   6.772  18.814  0.00  0.00    +0.000 NA
ATOM     21  C   UNL     1       4.324   6.952  17.466  0.00  0.00    +0.000 C 
ENDBRANCH   1  20
BRANCH   4  22
ATOM     22  N   UNL     1      -0.402   9.705  19.699  0.00  0.00    +0.000 NA
ATOM     23  C   UNL     1      -0.818   9.359  21.063  0.00  0.00    +0.000 C 
BRANCH  22  24
ATOM     24  C   UNL     1      -1.033  10.984  19.290  0.00  0.00    +0.000 C 
BRANCH  24  25
ATOM     25  C   UNL     1      -2.026  10.869  18.153  0.00  0.00    +0.000 A 
ATOM     26  C   UNL     1      -3.224  11.603  18.178  0.00  0.00    +0.000 A 
ATOM     27  C   UNL     1      -4.157  11.447  17.159  0.00  0.00    +0.000 A 
ATOM     28  C   UNL     1      -3.904  10.557  16.115  0.00  0.00    +0.000 A 
ATOM     29  C   UNL     1      -2.723   9.815  16.097  0.00  0.00    +0.000 A 
ATOM     30  C   UNL     1      -1.786   9.972  17.102  0.00  0.00    +0.000 A 
ENDBRANCH  24  25
ENDBRANCH  22  24
ENDBRANCH   4  22
TORSDOF 6
ENDMDL
MODEL 9
REMARK VINA RESULT:      -7.1      5.105      7.631
REMARK  Name = 
REMARK  9 active torsions:
REMARK  status: ('A' for Active; 'I' for Inactive)
REMARK    1  A    between atoms: C_1  and  N_2
REMARK    2  A    between atoms: N_2  and  C_3
REMARK    3  A    between atoms: N_2  and  C_4
REMARK    4  A    between atoms: C_4  and  C_5
REMARK    5  A    between atoms: C_13  and  C_14
REMARK    6  A    between atoms: C_13  and  N_20
REMARK    7  A    between atoms: N_20  and  C_21
REMARK    8  A    between atoms: N_20  and  C_22
REMARK    9  A    between atoms: C_22  and  C_23
REMARK                            x       y       z     vdW  Elec       q    Type
REMARK                         _______ _______ _______ _____ _____    ______ ____
ROOT
ATOM      1  C   UNL     1       1.084   9.698  19.286  0.00  0.00    +0.000 C 
ATOM      2  C   UNL     1       1.807   8.991  20.477  0.00  0.00    +0.000 C 
ATOM      3  C   UNL     1       1.909   7.460  20.463  0.00  0.00    +0.000 C 
ATOM      4  C   UNL     1       2.346   6.759  19.135  0.00  0.00    +0.000 C 
ATOM      5  C   UNL     1       1.631   7.503  17.954  0.00  0.00    +0.000 C 
ATOM      6  C   UNL     1       1.572   9.026  17.975  0.00  0.00    +0.000 C 
ENDROOT
BRANCH   1   7
ATOM      7  C   UNL     1       1.560  11.212  19.251  0.00  0.00    +0.000 A 
ATOM      8  C   UNL     1       2.173  11.790  18.120  0.00  0.00    +0.000 A 
ATOM      9  C   UNL     1       2.679  13.096  18.145  0.00  0.00    +0.000 A 
ATOM     10  C   UNL     1       2.608  13.856  19.308  0.00  0.00    +0.000 A 
ATOM     11  C   UNL     1       1.972  13.334  20.427  0.00  0.00    +0.000 A 
ATOM     12  C   UNL     1       1.437  12.042  20.389  0.00  0.00    +0.000 A 
ENDBRANCH   1   7
BRANCH   4  13
ATOM     13  C   UNL     1       1.771   5.276  19.104  0.00  0.00    +0.000 A 
ATOM     14  C   UNL     1       1.327   4.609  20.274  0.00  0.00    +0.000 A 
ATOM     15  C   UNL     1       0.952   3.261  20.257  0.00  0.00    +0.000 A 
ATOM     16  C   UNL     1       0.968   2.541  19.080  0.00  0.00    +0.000 A 
ATOM     17  C   UNL     1       1.333   3.177  17.899  0.00  0.00    +0.000 A 
ATOM     18  C   UNL     1       1.722   4.527  17.910  0.00  0.00    +0.000 A 
ENDBRANCH   4  13
BRANCH   1  20
ATOM     19  C   UNL     1      -0.838   9.866  20.879  0.00  0.00    +0.000 C 
ATOM     20  N   UNL     1      -0.408   9.664  19.494  0.00  0.00    +0.000 NA
ATOM     21  C   UNL     1      -1.270  10.494  18.656  0.00  0.00    +0.000 C 
ENDBRANCH   1  20
BRANCH   4  22
ATOM     22  N   UNL     1       3.848   6.736  18.977  0.00  0.00    +0.000 NA
ATOM     23  C   UNL     1       4.526   5.531  19.466  0.00  0.00    +0.000 C 
BRANCH  22  24
ATOM     24  C   UNL     1       4.280   7.026  17.587  0.00  0.00    +0.000 C 
BRANCH  24  25
ATOM     25  C   UNL     1       5.222   6.003  16.987  0.00  0.00    +0.000 A 
ATOM     26  C   UNL     1       6.601   6.068  17.246  0.00  0.00    +0.000 A 
ATOM     27  C   UNL     1       7.466   5.160  16.645  0.00  0.00    +0.000 A 
ATOM     28  C   UNL     1       6.961   4.188  15.779  0.00  0.00    +0.000 A 
ATOM     29  C   UNL     1       5.595   4.134  15.507  0.00  0.00    +0.000 A 
ATOM     30  C   UNL     1       4.728   5.027  16.109  0.00  0.00    +0.000 A 
ENDBRANCH  24  25
ENDBRANCH  22  24
ENDBRANCH   4  22
TORSDOF 6
ENDMDL
