MODEL 1
REMARK VINA RESULT:      -8.8      0.000      0.000
REMARK  Name = 
REMARK  9 active torsions:
REMARK  status: ('A' for Active; 'I' for Inactive)
REMARK    1  A    between atoms: C_1  and  C_2
REMARK    2  A    between atoms: C_2  and  N_3
REMARK    3  A    between atoms: N_3  and  C_4
REMARK    4  A    between atoms: C_7  and  O_8
REMARK    5  A    between atoms: C_7  and  C_9
REMARK    6  A    between atoms: C_12  and  C_13
REMARK    7  A    between atoms: C_16  and  C_17
REMARK    8  A    between atoms: C_17  and  C_19
REMARK    9  A    between atoms: C_22  and  C_23
REMARK                            x       y       z     vdW  Elec       q    Type
REMARK                         _______ _______ _______ _____ _____    ______ ____
ROOT
ATOM      1  N   UNL     1       2.130   3.731  19.403  0.00  0.00    +0.000 N 
ATOM      2  C   UNL     1       2.779   2.397  18.948  0.00  0.00    +0.000 C 
ATOM      3  C   UNL     1       1.468   4.377  18.195  0.00  0.00    +0.000 C 
ATOM      4  C   UNL     1       2.462   5.155  17.344  0.00  0.00    +0.000 C 
ATOM      5  C   UNL     1       3.266   6.189  18.155  0.00  0.00    +0.000 C 
ATOM      6  C   UNL     1       4.109   5.418  19.213  0.00  0.00    +0.000 C 
ATOM      7  C   UNL     1       3.152   4.626  20.128  0.00  0.00    +0.000 C 
ENDROOT
BRANCH   5   8
ATOM      8  C   UNL     1       2.404   7.328  18.769  0.00  0.00    +0.000 A 
ATOM      9  C   UNL     1       1.917   8.386  17.974  0.00  0.00    +0.000 A 
ATOM     10  C   UNL     1       1.205   9.462  18.515  0.00  0.00    +0.000 A 
ATOM     11  C   UNL     1       0.899   9.499  19.871  0.00  0.00    +0.000 A 
ATOM     12  C   UNL     1       0.156  10.667  20.455  0.00  0.00    +0.000 C 
ATOM     13  C   UNL     1       1.298   8.424  20.667  0.00  0.00    +0.000 A 
ATOM     14  C   UNL     1       2.030   7.352  20.126  0.00  0.00    +0.000 A 
ENDBRANCH   5   8
BRANCH   1  16
ATOM     15  C   UNL     1       1.557   2.661  21.713  0.00  0.00    +0.000 C 
ATOM     16  C   UNL     1       1.032   3.259  20.417  0.00  0.00    +0.000 C 
ENDBRANCH   1  16
BRANCH   5  17
ATOM     17  O   UNL     1       4.138   6.843  17.233  0.00  0.00    +0.000 OA
ATOM     18  H   UNL     1       4.142   6.341  16.396  0.00  0.00    +0.000 HD
ENDBRANCH   5  17
BRANCH   6  19
ATOM     19  C   UNL     1       5.256   4.504  18.757  0.00  0.00    +0.000 C 
ATOM     20  O   UNL     1       5.874   3.811  19.568  0.00  0.00    +0.000 OA
BRANCH  19  21
ATOM     21  C   UNL     1       5.802   4.501  17.374  0.00  0.00    +0.000 A 
ATOM     22  C   UNL     1       6.872   5.371  17.109  0.00  0.00    +0.000 A 
ATOM     23  C   UNL     1       7.378   5.506  15.816  0.00  0.00    +0.000 A 
ATOM     24  C   UNL     1       6.814   4.780  14.765  0.00  0.00    +0.000 A 
ATOM     25  C   UNL     1       7.360   4.902  13.372  0.00  0.00    +0.000 C 
ATOM     26  C   UNL     1       5.741   3.917  15.029  0.00  0.00    +0.000 A 
ATOM     27  C   UNL     1       5.228   3.783  16.326  0.00  0.00    +0.000 A 
ENDBRANCH  19  21
ENDBRANCH   6  19
TORSDOF 5
ENDMDL
MODEL 2
REMARK VINA RESULT:      -8.7      0.330      1.369
REMARK  Name = 
REMARK  9 active torsions:
REMARK  status: ('A' for Active; 'I' for Inactive)
REMARK    1  A    between atoms: C_1  and  C_2
REMARK    2  A    between atoms: C_2  and  N_3
REMARK    3  A    between atoms: N_3  and  C_4
REMARK    4  A    between atoms: C_7  and  O_8
REMARK    5  A    between atoms: C_7  and  C_9
REMARK    6  A    between atoms: C_12  and  C_13
REMARK    7  A    between atoms: C_16  and  C_17
REMARK    8  A    between atoms: C_17  and  C_19
REMARK    9  A    between atoms: C_22  and  C_23
REMARK                            x       y       z     vdW  Elec       q    Type
REMARK                         _______ _______ _______ _____ _____    ______ ____
ROOT
ATOM      1  N   UNL     1       2.056   3.741  19.417  0.00  0.00    +0.000 N 
ATOM      2  C   UNL     1       2.688   2.450  18.831  0.00  0.00    +0.000 C 
ATOM      3  C   UNL     1       1.353   4.483  18.290  0.00  0.00    +0.000 C 
ATOM      4  C   UNL     1       2.317   5.331  17.472  0.00  0.00    +0.000 C 
ATOM      5  C   UNL     1       3.151   6.295  18.337  0.00  0.00    +0.000 C 
ATOM      6  C   UNL     1       4.030   5.442  19.298  0.00  0.00    +0.000 C 
ATOM      7  C   UNL     1       3.104   4.575  20.177  0.00  0.00    +0.000 C 
ENDROOT
BRANCH   5   8
ATOM      8  C   UNL     1       2.312   7.379  19.072  0.00  0.00    +0.000 A 
ATOM      9  C   UNL     1       1.958   7.233  20.429  0.00  0.00    +0.000 A 
ATOM     10  C   UNL     1       1.141   8.156  21.092  0.00  0.00    +0.000 A 
ATOM     11  C   UNL     1       0.687   9.298  20.440  0.00  0.00    +0.000 A 
ATOM     12  C   UNL     1      -0.211  10.274  21.145  0.00  0.00    +0.000 C 
ATOM     13  C   UNL     1       1.091   9.508  19.121  0.00  0.00    +0.000 A 
ATOM     14  C   UNL     1       1.896   8.572  18.449  0.00  0.00    +0.000 A 
ENDBRANCH   5   8
BRANCH   1  16
ATOM     15  C   UNL     1       1.554   2.679  21.747  0.00  0.00    +0.000 C 
ATOM     16  C   UNL     1       0.994   3.185  20.426  0.00  0.00    +0.000 C 
ENDBRANCH   1  16
BRANCH   5  17
ATOM     17  O   UNL     1       3.991   7.025  17.442  0.00  0.00    +0.000 OA
ATOM     18  H   UNL     1       4.887   6.638  17.469  0.00  0.00    +0.000 HD
ENDBRANCH   5  17
BRANCH   6  19
ATOM     19  C   UNL     1       5.158   4.570  18.728  0.00  0.00    +0.000 C 
ATOM     20  O   UNL     1       5.761   3.767  19.445  0.00  0.00    +0.000 OA
BRANCH  19  21
ATOM     21  C   UNL     1       5.708   4.733  17.356  0.00  0.00    +0.000 A 
ATOM     22  C   UNL     1       5.154   3.929  16.348  0.00  0.00    +0.000 A 
ATOM     23  C   UNL     1       5.678   3.944  15.054  0.00  0.00    +0.000 A 
ATOM     24  C   UNL     1       6.773   4.757  14.754  0.00  0.00    +0.000 A 
ATOM     25  C   UNL     1       7.336   4.796  13.362  0.00  0.00    +0.000 C 
ATOM     26  C   UNL     1       7.330   5.554  15.763  0.00  0.00    +0.000 A 
ATOM     27  C   UNL     1       6.809   5.538  17.064  0.00  0.00    +0.000 A 
ENDBRANCH  19  21
ENDBRANCH   6  19
TORSDOF 5
ENDMDL
MODEL 3
REMARK VINA RESULT:      -8.4      0.826      1.611
REMARK  Name = 
REMARK  9 active torsions:
REMARK  status: ('A' for Active; 'I' for Inactive)
REMARK    1  A    between atoms: C_1  and  C_2
REMARK    2  A    between atoms: C_2  and  N_3
REMARK    3  A    between atoms: N_3  and  C_4
REMARK    4  A    between atoms: C_7  and  O_8
REMARK    5  A    between atoms: C_7  and  C_9
REMARK    6  A    between atoms: C_12  and  C_13
REMARK    7  A    between atoms: C_16  and  C_17
REMARK    8  A    between atoms: C_17  and  C_19
REMARK    9  A    between atoms: C_22  and  C_23
REMARK                            x       y       z     vdW  Elec       q    Type
REMARK                         _______ _______ _______ _____ _____    ______ ____
ROOT
ATOM      1  N   UNL     1       3.251   3.698  19.595  0.00  0.00    +0.000 N 
ATOM      2  C   UNL     1       3.993   2.422  19.115  0.00  0.00    +0.000 C 
ATOM      3  C   UNL     1       2.213   4.071  18.547  0.00  0.00    +0.000 C 
ATOM      4  C   UNL     1       2.819   4.861  17.395  0.00  0.00    +0.000 C 
ATOM      5  C   UNL     1       3.604   6.100  17.864  0.00  0.00    +0.000 C 
ATOM      6  C   UNL     1       4.800   5.611  18.732  0.00  0.00    +0.000 C 
ATOM      7  C   UNL     1       4.247   4.822  19.937  0.00  0.00    +0.000 C 
ENDROOT
BRANCH   5   8
ATOM      8  C   UNL     1       2.733   7.177  18.571  0.00  0.00    +0.000 A 
ATOM      9  C   UNL     1       2.375   7.052  19.928  0.00  0.00    +0.000 A 
ATOM     10  C   UNL     1       1.530   7.966  20.567  0.00  0.00    +0.000 A 
ATOM     11  C   UNL     1       1.049   9.081  19.888  0.00  0.00    +0.000 A 
ATOM     12  C   UNL     1       0.122  10.049  20.566  0.00  0.00    +0.000 C 
ATOM     13  C   UNL     1       1.456   9.273  18.566  0.00  0.00    +0.000 A 
ATOM     14  C   UNL     1       2.289   8.344  17.919  0.00  0.00    +0.000 A 
ENDBRANCH   5   8
BRANCH   1  16
ATOM     15  C   UNL     1       1.013   3.247  20.857  0.00  0.00    +0.000 C 
ATOM     16  C   UNL     1       2.533   3.216  20.902  0.00  0.00    +0.000 C 
ENDBRANCH   1  16
BRANCH   5  17
ATOM     17  O   UNL     1       4.098   6.741  16.687  0.00  0.00    +0.000 OA
ATOM     18  H   UNL     1       4.088   7.707  16.830  0.00  0.00    +0.000 HD
ENDBRANCH   5  17
BRANCH   6  19
ATOM     19  C   UNL     1       5.942   4.818  18.081  0.00  0.00    +0.000 C 
ATOM     20  O   UNL     1       6.863   4.359  18.761  0.00  0.00    +0.000 OA
BRANCH  19  21
ATOM     21  C   UNL     1       6.112   4.681  16.610  0.00  0.00    +0.000 A 
ATOM     22  C   UNL     1       5.414   3.637  15.982  0.00  0.00    +0.000 A 
ATOM     23  C   UNL     1       5.595   3.375  14.623  0.00  0.00    +0.000 A 
ATOM     24  C   UNL     1       6.485   4.147  13.874  0.00  0.00    +0.000 A 
ATOM     25  C   UNL     1       6.677   3.887  12.408  0.00  0.00    +0.000 C 
ATOM     26  C   UNL     1       7.187   5.184  14.504  0.00  0.00    +0.000 A 
ATOM     27  C   UNL     1       7.011   5.448  15.869  0.00  0.00    +0.000 A 
ENDBRANCH  19  21
ENDBRANCH   6  19
TORSDOF 5
ENDMDL
MODEL 4
REMARK VINA RESULT:      -7.8      1.395      6.238
REMARK  Name = 
REMARK  9 active torsions:
REMARK  status: ('A' for Active; 'I' for Inactive)
REMARK    1  A    between atoms: C_1  and  C_2
REMARK    2  A    between atoms: C_2  and  N_3
REMARK    3  A    between atoms: N_3  and  C_4
REMARK    4  A    between atoms: C_7  and  O_8
REMARK    5  A    between atoms: C_7  and  C_9
REMARK    6  A    between atoms: C_12  and  C_13
REMARK    7  A    between atoms: C_16  and  C_17
REMARK    8  A    between atoms: C_17  and  C_19
REMARK    9  A    between atoms: C_22  and  C_23
REMARK                            x       y       z     vdW  Elec       q    Type
REMARK                         _______ _______ _______ _____ _____    ______ ____
ROOT
ATOM      1  N   UNL     1       3.113   3.482  19.256  0.00  0.00    +0.000 N 
ATOM      2  C   UNL     1       2.514   3.734  20.666  0.00  0.00    +0.000 C 
ATOM      3  C   UNL     1       4.630   3.555  19.361  0.00  0.00    +0.000 C 
ATOM      4  C   UNL     1       5.140   4.989  19.318  0.00  0.00    +0.000 C 
ATOM      5  C   UNL     1       4.629   5.771  18.092  0.00  0.00    +0.000 C 
ATOM      6  C   UNL     1       3.078   5.863  18.193  0.00  0.00    +0.000 C 
ATOM      7  C   UNL     1       2.498   4.434  18.214  0.00  0.00    +0.000 C 
ENDROOT
BRANCH   5   8
ATOM      8  C   UNL     1       5.123   5.211  16.728  0.00  0.00    +0.000 A 
ATOM      9  C   UNL     1       5.183   6.027  15.581  0.00  0.00    +0.000 A 
ATOM     10  C   UNL     1       5.551   5.529  14.326  0.00  0.00    +0.000 A 
ATOM     11  C   UNL     1       5.932   4.200  14.174  0.00  0.00    +0.000 A 
ATOM     12  C   UNL     1       6.302   3.660  12.823  0.00  0.00    +0.000 C 
ATOM     13  C   UNL     1       5.961   3.390  15.311  0.00  0.00    +0.000 A 
ATOM     14  C   UNL     1       5.573   3.885  16.568  0.00  0.00    +0.000 A 
ENDBRANCH   5   8
BRANCH   1  16
ATOM     15  C   UNL     1       3.724   1.152  18.252  0.00  0.00    +0.000 C 
ATOM     16  C   UNL     1       2.676   2.010  18.947  0.00  0.00    +0.000 C 
ENDBRANCH   1  16
BRANCH   5  17
ATOM     17  O   UNL     1       5.193   7.080  18.178  0.00  0.00    +0.000 OA
ATOM     18  H   UNL     1       5.533   7.215  19.083  0.00  0.00    +0.000 HD
ENDBRANCH   5  17
BRANCH   6  19
ATOM     19  C   UNL     1       2.434   6.695  19.311  0.00  0.00    +0.000 C 
ATOM     20  O   UNL     1       2.101   6.172  20.378  0.00  0.00    +0.000 OA
BRANCH  19  21
ATOM     21  C   UNL     1       2.024   8.114  19.145  0.00  0.00    +0.000 A 
ATOM     22  C   UNL     1       1.322   8.704  20.209  0.00  0.00    +0.000 A 
ATOM     23  C   UNL     1       0.812   9.998  20.097  0.00  0.00    +0.000 A 
ATOM     24  C   UNL     1       0.987  10.718  18.914  0.00  0.00    +0.000 A 
ATOM     25  C   UNL     1       0.458  12.118  18.786  0.00  0.00    +0.000 C 
ATOM     26  C   UNL     1       1.681  10.126  17.850  0.00  0.00    +0.000 A 
ATOM     27  C   UNL     1       2.190   8.825  17.957  0.00  0.00    +0.000 A 
ENDBRANCH  19  21
ENDBRANCH   6  19
TORSDOF 5
ENDMDL
MODEL 5
REMARK VINA RESULT:      -7.7      1.464      6.167
REMARK  Name = 
REMARK  9 active torsions:
REMARK  status: ('A' for Active; 'I' for Inactive)
REMARK    1  A    between atoms: C_1  and  C_2
REMARK    2  A    between atoms: C_2  and  N_3
REMARK    3  A    between atoms: N_3  and  C_4
REMARK    4  A    between atoms: C_7  and  O_8
REMARK    5  A    between atoms: C_7  and  C_9
REMARK    6  A    between atoms: C_12  and  C_13
REMARK    7  A    between atoms: C_16  and  C_17
REMARK    8  A    between atoms: C_17  and  C_19
REMARK    9  A    between atoms: C_22  and  C_23
REMARK                            x       y       z     vdW  Elec       q    Type
REMARK                         _______ _______ _______ _____ _____    ______ ____
ROOT
ATOM      1  N   UNL     1       2.797   3.562  19.234  0.00  0.00    +0.000 N 
ATOM      2  C   UNL     1       2.179   3.807  20.636  0.00  0.00    +0.000 C 
ATOM      3  C   UNL     1       4.309   3.488  19.384  0.00  0.00    +0.000 C 
ATOM      4  C   UNL     1       4.951   4.869  19.421  0.00  0.00    +0.000 C 
ATOM      5  C   UNL     1       4.554   5.748  18.219  0.00  0.00    +0.000 C 
ATOM      6  C   UNL     1       3.016   5.980  18.281  0.00  0.00    +0.000 C 
ATOM      7  C   UNL     1       2.305   4.612  18.220  0.00  0.00    +0.000 C 
ENDROOT
BRANCH   5   8
ATOM      8  C   UNL     1       5.037   5.204  16.845  0.00  0.00    +0.000 A 
ATOM      9  C   UNL     1       5.194   6.058  15.735  0.00  0.00    +0.000 A 
ATOM     10  C   UNL     1       5.554   5.583  14.469  0.00  0.00    +0.000 A 
ATOM     11  C   UNL     1       5.829   4.233  14.270  0.00  0.00    +0.000 A 
ATOM     12  C   UNL     1       6.190   3.720  12.906  0.00  0.00    +0.000 C 
ATOM     13  C   UNL     1       5.762   3.378  15.372  0.00  0.00    +0.000 A 
ATOM     14  C   UNL     1       5.382   3.854  16.639  0.00  0.00    +0.000 A 
ENDBRANCH   5   8
BRANCH   1  16
ATOM     15  C   UNL     1       0.722   2.066  18.720  0.00  0.00    +0.000 C 
ATOM     16  C   UNL     1       2.236   2.152  18.844  0.00  0.00    +0.000 C 
ENDBRANCH   1  16
BRANCH   5  17
ATOM     17  O   UNL     1       5.233   6.993  18.381  0.00  0.00    +0.000 OA
ATOM     18  H   UNL     1       4.657   7.708  18.051  0.00  0.00    +0.000 HD
ENDBRANCH   5  17
BRANCH   6  19
ATOM     19  C   UNL     1       2.416   6.819  19.419  0.00  0.00    +0.000 C 
ATOM     20  O   UNL     1       2.219   6.327  20.533  0.00  0.00    +0.000 OA
BRANCH  19  21
ATOM     21  C   UNL     1       1.891   8.198  19.233  0.00  0.00    +0.000 A 
ATOM     22  C   UNL     1       2.254   8.865  18.052  0.00  0.00    +0.000 A 
ATOM     23  C   UNL     1       1.890  10.196  17.843  0.00  0.00    +0.000 A 
ATOM     24  C   UNL     1       1.165  10.883  18.818  0.00  0.00    +0.000 A 
ATOM     25  C   UNL     1       0.751  12.309  18.599  0.00  0.00    +0.000 C 
ATOM     26  C   UNL     1       0.809  10.218  20.000  0.00  0.00    +0.000 A 
ATOM     27  C   UNL     1       1.177   8.884  20.215  0.00  0.00    +0.000 A 
ENDBRANCH  19  21
ENDBRANCH   6  19
TORSDOF 5
ENDMDL
MODEL 6
REMARK VINA RESULT:      -7.6      2.111      3.915
REMARK  Name = 
REMARK  9 active torsions:
REMARK  status: ('A' for Active; 'I' for Inactive)
REMARK    1  A    between atoms: C_1  and  C_2
REMARK    2  A    between atoms: C_2  and  N_3
REMARK    3  A    between atoms: N_3  and  C_4
REMARK    4  A    between atoms: C_7  and  O_8
REMARK    5  A    between atoms: C_7  and  C_9
REMARK    6  A    between atoms: C_12  and  C_13
REMARK    7  A    between atoms: C_16  and  C_17
REMARK    8  A    between atoms: C_17  and  C_19
REMARK    9  A    between atoms: C_22  and  C_23
REMARK                            x       y       z     vdW  Elec       q    Type
REMARK                         _______ _______ _______ _____ _____    ______ ____
ROOT
ATOM      1  N   UNL     1       6.649   5.885  18.221  0.00  0.00    +0.000 N 
ATOM      2  C   UNL     1       7.620   4.733  17.848  0.00  0.00    +0.000 C 
ATOM      3  C   UNL     1       5.842   5.455  19.437  0.00  0.00    +0.000 C 
ATOM      4  C   UNL     1       4.654   4.581  19.059  0.00  0.00    +0.000 C 
ATOM      5  C   UNL     1       3.749   5.226  17.992  0.00  0.00    +0.000 C 
ATOM      6  C   UNL     1       4.590   5.404  16.694  0.00  0.00    +0.000 C 
ATOM      7  C   UNL     1       5.800   6.308  17.007  0.00  0.00    +0.000 C 
ENDROOT
BRANCH   5   8
ATOM      8  C   UNL     1       3.051   6.536  18.456  0.00  0.00    +0.000 A 
ATOM      9  C   UNL     1       2.497   6.651  19.747  0.00  0.00    +0.000 A 
ATOM     10  C   UNL     1       1.798   7.790  20.162  0.00  0.00    +0.000 A 
ATOM     11  C   UNL     1       1.670   8.890  19.320  0.00  0.00    +0.000 A 
ATOM     12  C   UNL     1       0.897  10.101  19.757  0.00  0.00    +0.000 C 
ATOM     13  C   UNL     1       2.280   8.833  18.065  0.00  0.00    +0.000 A 
ATOM     14  C   UNL     1       2.966   7.682  17.642  0.00  0.00    +0.000 A 
ENDBRANCH   5   8
BRANCH   1  16
ATOM     15  C   UNL     1       7.776   8.148  17.574  0.00  0.00    +0.000 C 
ATOM     16  C   UNL     1       7.619   7.049  18.615  0.00  0.00    +0.000 C 
ENDBRANCH   1  16
BRANCH   5  17
ATOM     17  O   UNL     1       2.683   4.307  17.750  0.00  0.00    +0.000 OA
ATOM     18  H   UNL     1       3.032   3.398  17.824  0.00  0.00    +0.000 HD
ENDBRANCH   5  17
BRANCH   6  19
ATOM     19  C   UNL     1       5.061   4.168  15.914  0.00  0.00    +0.000 C 
ATOM     20  O   UNL     1       5.041   3.048  16.429  0.00  0.00    +0.000 OA
BRANCH  19  21
ATOM     21  C   UNL     1       5.711   4.240  14.578  0.00  0.00    +0.000 A 
ATOM     22  C   UNL     1       5.102   3.526  13.533  0.00  0.00    +0.000 A 
ATOM     23  C   UNL     1       5.699   3.456  12.274  0.00  0.00    +0.000 A 
ATOM     24  C   UNL     1       6.922   4.090  12.044  0.00  0.00    +0.000 A 
ATOM     25  C   UNL     1       7.567   4.037  10.690  0.00  0.00    +0.000 C 
ATOM     26  C   UNL     1       7.533   4.795  13.090  0.00  0.00    +0.000 A 
ATOM     27  C   UNL     1       6.938   4.864  14.357  0.00  0.00    +0.000 A 
ENDBRANCH  19  21
ENDBRANCH   6  19
TORSDOF 5
ENDMDL
MODEL 7
REMARK VINA RESULT:      -7.6      1.406      6.311
REMARK  Name = 
REMARK  9 active torsions:
REMARK  status: ('A' for Active; 'I' for Inactive)
REMARK    1  A    between atoms: C_1  and  C_2
REMARK    2  A    between atoms: C_2  and  N_3
REMARK    3  A    between atoms: N_3  and  C_4
REMARK    4  A    between atoms: C_7  and  O_8
REMARK    5  A    between atoms: C_7  and  C_9
REMARK    6  A    between atoms: C_12  and  C_13
REMARK    7  A    between atoms: C_16  and  C_17
REMARK    8  A    between atoms: C_17  and  C_19
REMARK    9  A    between atoms: C_22  and  C_23
REMARK                            x       y       z     vdW  Elec       q    Type
REMARK                         _______ _______ _______ _____ _____    ______ ____
ROOT
ATOM      1  N   UNL     1       2.863   3.613  19.109  0.00  0.00    +0.000 N 
ATOM      2  C   UNL     1       2.284   3.858  20.528  0.00  0.00    +0.000 C 
ATOM      3  C   UNL     1       4.379   3.533  19.218  0.00  0.00    +0.000 C 
ATOM      4  C   UNL     1       5.026   4.911  19.241  0.00  0.00    +0.000 C 
ATOM      5  C   UNL     1       4.601   5.793  18.051  0.00  0.00    +0.000 C 
ATOM      6  C   UNL     1       3.066   6.031  18.155  0.00  0.00    +0.000 C 
ATOM      7  C   UNL     1       2.348   4.666  18.110  0.00  0.00    +0.000 C 
ENDROOT
BRANCH   5   8
ATOM      8  C   UNL     1       5.045   5.249  16.664  0.00  0.00    +0.000 A 
ATOM      9  C   UNL     1       5.321   3.881  16.469  0.00  0.00    +0.000 A 
ATOM     10  C   UNL     1       5.796   3.378  15.252  0.00  0.00    +0.000 A 
ATOM     11  C   UNL     1       5.961   4.218  14.155  0.00  0.00    +0.000 A 
ATOM     12  C   UNL     1       6.495   3.683  12.857  0.00  0.00    +0.000 C 
ATOM     13  C   UNL     1       5.616   5.563  14.297  0.00  0.00    +0.000 A 
ATOM     14  C   UNL     1       5.158   6.071  15.525  0.00  0.00    +0.000 A 
ENDBRANCH   5   8
BRANCH   1  16
ATOM     15  C   UNL     1       0.768   2.115  18.687  0.00  0.00    +0.000 C 
ATOM     16  C   UNL     1       2.286   2.205  18.733  0.00  0.00    +0.000 C 
ENDBRANCH   1  16
BRANCH   5  17
ATOM     17  O   UNL     1       5.289   7.036  18.197  0.00  0.00    +0.000 OA
ATOM     18  H   UNL     1       4.828   7.571  18.871  0.00  0.00    +0.000 HD
ENDBRANCH   5  17
BRANCH   6  19
ATOM     19  C   UNL     1       2.500   6.871  19.309  0.00  0.00    +0.000 C 
ATOM     20  O   UNL     1       2.315   6.373  20.422  0.00  0.00    +0.000 OA
BRANCH  19  21
ATOM     21  C   UNL     1       1.993   8.259  19.142  0.00  0.00    +0.000 A 
ATOM     22  C   UNL     1       1.265   8.805  20.212  0.00  0.00    +0.000 A 
ATOM     23  C   UNL     1       0.668  10.061  20.101  0.00  0.00    +0.000 A 
ATOM     24  C   UNL     1       0.781  10.786  18.913  0.00  0.00    +0.000 A 
ATOM     25  C   UNL     1       0.159  12.146  18.786  0.00  0.00    +0.000 C 
ATOM     26  C   UNL     1       1.502  10.237  17.844  0.00  0.00    +0.000 A 
ATOM     27  C   UNL     1       2.099   8.974  17.950  0.00  0.00    +0.000 A 
ENDBRANCH  19  21
ENDBRANCH   6  19
TORSDOF 5
ENDMDL
MODEL 8
REMARK VINA RESULT:      -7.6      1.411      6.262
REMARK  Name = 
REMARK  9 active torsions:
REMARK  status: ('A' for Active; 'I' for Inactive)
REMARK    1  A    between atoms: C_1  and  C_2
REMARK    2  A    between atoms: C_2  and  N_3
REMARK    3  A    between atoms: N_3  and  C_4
REMARK    4  A    between atoms: C_7  and  O_8
REMARK    5  A    between atoms: C_7  and  C_9
REMARK    6  A    between atoms: C_12  and  C_13
REMARK    7  A    between atoms: C_16  and  C_17
REMARK    8  A    between atoms: C_17  and  C_19
REMARK    9  A    between atoms: C_22  and  C_23
REMARK                            x       y       z     vdW  Elec       q    Type
REMARK                         _______ _______ _______ _____ _____    ______ ____
ROOT
ATOM      1  N   UNL     1       3.028   3.506  19.261  0.00  0.00    +0.000 N 
ATOM      2  C   UNL     1       2.461   3.725  20.689  0.00  0.00    +0.000 C 
ATOM      3  C   UNL     1       4.548   3.550  19.339  0.00  0.00    +0.000 C 
ATOM      4  C   UNL     1       5.082   4.976  19.329  0.00  0.00    +0.000 C 
ATOM      5  C   UNL     1       4.562   5.803  18.138  0.00  0.00    +0.000 C 
ATOM      6  C   UNL     1       3.016   5.919  18.272  0.00  0.00    +0.000 C 
ATOM      7  C   UNL     1       2.410   4.500  18.261  0.00  0.00    +0.000 C 
ENDROOT
BRANCH   5   8
ATOM      8  C   UNL     1       5.021   5.277  16.748  0.00  0.00    +0.000 A 
ATOM      9  C   UNL     1       5.317   3.914  16.544  0.00  0.00    +0.000 A 
ATOM     10  C   UNL     1       5.803   3.429  15.325  0.00  0.00    +0.000 A 
ATOM     11  C   UNL     1       5.963   4.280  14.236  0.00  0.00    +0.000 A 
ATOM     12  C   UNL     1       6.509   3.763  12.936  0.00  0.00    +0.000 C 
ATOM     13  C   UNL     1       5.598   5.619  14.387  0.00  0.00    +0.000 A 
ATOM     14  C   UNL     1       5.127   6.110  15.617  0.00  0.00    +0.000 A 
ENDBRANCH   5   8
BRANCH   1  16
ATOM     15  C   UNL     1       3.639   1.135  18.359  0.00  0.00    +0.000 C 
ATOM     16  C   UNL     1       2.560   2.051  18.915  0.00  0.00    +0.000 C 
ENDBRANCH   1  16
BRANCH   5  17
ATOM     17  O   UNL     1       5.151   7.100  18.253  0.00  0.00    +0.000 OA
ATOM     18  H   UNL     1       6.117   7.015  18.144  0.00  0.00    +0.000 HD
ENDBRANCH   5  17
BRANCH   6  19
ATOM     19  C   UNL     1       2.407   6.727  19.427  0.00  0.00    +0.000 C 
ATOM     20  O   UNL     1       2.214   6.208  20.530  0.00  0.00    +0.000 OA
BRANCH  19  21
ATOM     21  C   UNL     1       1.869   8.104  19.271  0.00  0.00    +0.000 A 
ATOM     22  C   UNL     1       2.182   8.780  18.081  0.00  0.00    +0.000 A 
ATOM     23  C   UNL     1       1.803  10.110  17.895  0.00  0.00    +0.000 A 
ATOM     24  C   UNL     1       1.116  10.789  18.904  0.00  0.00    +0.000 A 
ATOM     25  C   UNL     1       0.689  12.215  18.711  0.00  0.00    +0.000 C 
ATOM     26  C   UNL     1       0.812  10.116  20.095  0.00  0.00    +0.000 A 
ATOM     27  C   UNL     1       1.194   8.781  20.286  0.00  0.00    +0.000 A 
ENDBRANCH  19  21
ENDBRANCH   6  19
TORSDOF 5
ENDMDL
MODEL 9
REMARK VINA RESULT:      -7.2      4.009      9.066
REMARK  Name = 
REMARK  9 active torsions:
REMARK  status: ('A' for Active; 'I' for Inactive)
REMARK    1  A    between atoms: C_1  and  C_2
REMARK    2  A    between atoms: C_2  and  N_3
REMARK    3  A    between atoms: N_3  and  C_4
REMARK    4  A    between atoms: C_7  and  O_8
REMARK    5  A    between atoms: C_7  and  C_9
REMARK    6  A    between atoms: C_12  and  C_13
REMARK    7  A    between atoms: C_16  and  C_17
REMARK    8  A    between atoms: C_17  and  C_19
REMARK    9  A    between atoms: C_22  and  C_23
REMARK                            x       y       z     vdW  Elec       q    Type
REMARK                         _______ _______ _______ _____ _____    ______ ____
ROOT
ATOM      1  N   UNL     1      -0.464  10.953  21.436  0.00  0.00    +0.000 N 
ATOM      2  C   UNL     1      -1.133  12.351  21.496  0.00  0.00    +0.000 C 
ATOM      3  C   UNL     1       1.040  11.148  21.300  0.00  0.00    +0.000 C 
ATOM      4  C   UNL     1       1.457  11.407  19.859  0.00  0.00    +0.000 C 
ATOM      5  C   UNL     1       0.947  10.329  18.883  0.00  0.00    +0.000 C 
ATOM      6  C   UNL     1      -0.610  10.365  18.899  0.00  0.00    +0.000 C 
ATOM      7  C   UNL     1      -1.098  10.082  20.335  0.00  0.00    +0.000 C 
ENDROOT
BRANCH   5   8
ATOM      8  C   UNL     1       1.530   8.910  19.139  0.00  0.00    +0.000 A 
ATOM      9  C   UNL     1       2.224   8.212  18.130  0.00  0.00    +0.000 A 
ATOM     10  C   UNL     1       2.691   6.905  18.309  0.00  0.00    +0.000 A 
ATOM     11  C   UNL     1       2.534   6.258  19.531  0.00  0.00    +0.000 A 
ATOM     12  C   UNL     1       3.014   4.847  19.715  0.00  0.00    +0.000 C 
ATOM     13  C   UNL     1       1.924   6.957  20.574  0.00  0.00    +0.000 A 
ATOM     14  C   UNL     1       1.438   8.263  20.387  0.00  0.00    +0.000 A 
ENDBRANCH   5   8
BRANCH   1  16
ATOM     15  C   UNL     1       0.257   9.397  23.402  0.00  0.00    +0.000 C 
ATOM     16  C   UNL     1      -0.792  10.345  22.842  0.00  0.00    +0.000 C 
ENDBRANCH   1  16
BRANCH   5  17
ATOM     17  O   UNL     1       1.421  10.693  17.587  0.00  0.00    +0.000 OA
ATOM     18  H   UNL     1       0.804  11.343  17.199  0.00  0.00    +0.000 HD
ENDBRANCH   5  17
BRANCH   6  19
ATOM     19  C   UNL     1      -1.350  11.588  18.338  0.00  0.00    +0.000 C 
ATOM     20  O   UNL     1      -0.739  12.617  18.040  0.00  0.00    +0.000 OA
BRANCH  19  21
ATOM     21  C   UNL     1      -2.832  11.686  18.262  0.00  0.00    +0.000 A 
ATOM     22  C   UNL     1      -3.431  11.354  17.036  0.00  0.00    +0.000 A 
ATOM     23  C   UNL     1      -4.804  11.515  16.846  0.00  0.00    +0.000 A 
ATOM     24  C   UNL     1      -5.598  12.021  17.878  0.00  0.00    +0.000 A 
ATOM     25  C   UNL     1      -7.079  12.183  17.693  0.00  0.00    +0.000 C 
ATOM     26  C   UNL     1      -4.997  12.359  19.099  0.00  0.00    +0.000 A 
ATOM     27  C   UNL     1      -3.618  12.203  19.291  0.00  0.00    +0.000 A 
ENDBRANCH  19  21
ENDBRANCH   6  19
TORSDOF 5
ENDMDL
