MODEL 1
REMARK VINA RESULT:      -7.8      0.000      0.000
REMARK  Name = 
REMARK  7 active torsions:
REMARK  status: ('A' for Active; 'I' for Inactive)
REMARK    1  A    between atoms: C_2  and  O_3
REMARK    2  A    between atoms: C_2  and  C_4
REMARK    3  A    between atoms: C_4  and  C_5
REMARK    4  A    between atoms: C_10  and  O_11
REMARK    5  A    between atoms: O_11  and  C_12
REMARK    6  A    between atoms: C_12  and  C_13
REMARK    7  A    between atoms: C_15  and  C_16
REMARK                            x       y       z     vdW  Elec       q    Type
REMARK                         _______ _______ _______ _____ _____    ______ ____
ROOT
ATOM      1  C   UNL     1       4.910   4.859  17.537  0.00  0.00    +0.000 C 
ATOM      2  C   UNL     1       4.625   3.566  18.328  0.00  0.00    +0.000 C 
ATOM      3  O   UNL     1       3.996   3.906  19.585  0.00  0.00    +0.000 OA
ATOM      4  C   UNL     1       3.455   5.141  19.351  0.00  0.00    +0.000 A 
ATOM      5  C   UNL     1       2.583   5.761  20.216  0.00  0.00    +0.000 A 
ATOM      6  C   UNL     1       2.117   7.031  19.881  0.00  0.00    +0.000 A 
ATOM      7  C   UNL     1       2.576   7.661  18.709  0.00  0.00    +0.000 A 
ATOM      8  C   UNL     1       3.468   7.013  17.847  0.00  0.00    +0.000 A 
ATOM      9  C   UNL     1       3.899   5.743  18.184  0.00  0.00    +0.000 A 
ENDROOT
BRANCH   1  10
ATOM     10  C   UNL     1       6.310   5.434  17.759  0.00  0.00    +0.000 C 
BRANCH  10  12
ATOM     11  O   UNL     1       7.460   4.777  15.728  0.00  0.00    +0.000 OA
ATOM     12  C   UNL     1       7.364   4.733  16.943  0.00  0.00    +0.000 C 
BRANCH  12  13
ATOM     13  O   UNL     1       8.222   4.025  17.715  0.00  0.00    +0.000 OA
ATOM     14  H   UNL     1       7.974   3.993  18.659  0.00  0.00    +0.000 HD
ENDBRANCH  12  13
ENDBRANCH  10  12
ENDBRANCH   1  10
BRANCH   6  15
ATOM     15  O   UNL     1       1.222   7.750  20.632  0.00  0.00    +0.000 OA
BRANCH  15  16
ATOM     16  C   UNL     1       1.518   9.150  20.722  0.00  0.00    +0.000 C 
BRANCH  16  17
ATOM     17  C   UNL     1       0.294   9.929  20.363  0.00  0.00    +0.000 A 
ATOM     18  N   UNL     1      -0.411   9.735  19.267  0.00  0.00    +0.000 NA
ATOM     19  C   UNL     1      -1.397  10.701  19.158  0.00  0.00    +0.000 A 
ATOM     20  C   UNL     1      -1.452  11.593  20.210  0.00  0.00    +0.000 A 
ATOM     21  S   UNL     1      -0.208  11.256  21.337  0.00  0.00    +0.000 S 
BRANCH  19  22
ATOM     22  C   UNL     1      -2.294  10.737  18.009  0.00  0.00    +0.000 A 
ATOM     23  C   UNL     1      -3.542  11.363  18.122  0.00  0.00    +0.000 A 
ATOM     24  C   UNL     1      -4.415  11.409  17.032  0.00  0.00    +0.000 A 
ATOM     25  C   UNL     1      -4.051  10.820  15.822  0.00  0.00    +0.000 A 
ATOM     26  C   UNL     1      -2.819  10.180  15.702  0.00  0.00    +0.000 A 
ATOM     27  C   UNL     1      -1.944  10.138  16.790  0.00  0.00    +0.000 A 
ENDBRANCH  19  22
ENDBRANCH  16  17
ENDBRANCH  15  16
ENDBRANCH   6  15
TORSDOF 7
ENDMDL
MODEL 2
REMARK VINA RESULT:      -7.6      2.679      4.196
REMARK  Name = 
REMARK  7 active torsions:
REMARK  status: ('A' for Active; 'I' for Inactive)
REMARK    1  A    between atoms: C_2  and  O_3
REMARK    2  A    between atoms: C_2  and  C_4
REMARK    3  A    between atoms: C_4  and  C_5
REMARK    4  A    between atoms: C_10  and  O_11
REMARK    5  A    between atoms: O_11  and  C_12
REMARK    6  A    between atoms: C_12  and  C_13
REMARK    7  A    between atoms: C_15  and  C_16
REMARK                            x       y       z     vdW  Elec       q    Type
REMARK                         _______ _______ _______ _____ _____    ______ ____
ROOT
ATOM      1  C   UNL     1       5.983   3.990  15.078  0.00  0.00    +0.000 C 
ATOM      2  C   UNL     1       6.927   5.172  15.381  0.00  0.00    +0.000 C 
ATOM      3  O   UNL     1       6.174   6.233  16.012  0.00  0.00    +0.000 OA
ATOM      4  C   UNL     1       5.088   5.588  16.538  0.00  0.00    +0.000 A 
ATOM      5  C   UNL     1       4.203   6.184  17.408  0.00  0.00    +0.000 A 
ATOM      6  C   UNL     1       3.119   5.432  17.859  0.00  0.00    +0.000 A 
ATOM      7  C   UNL     1       2.929   4.120  17.387  0.00  0.00    +0.000 A 
ATOM      8  C   UNL     1       3.840   3.537  16.498  0.00  0.00    +0.000 A 
ATOM      9  C   UNL     1       4.923   4.290  16.083  0.00  0.00    +0.000 A 
ENDROOT
BRANCH   1  10
ATOM     10  C   UNL     1       5.378   4.015  13.673  0.00  0.00    +0.000 C 
BRANCH  10  12
ATOM     11  O   UNL     1       7.196   4.321  12.098  0.00  0.00    +0.000 OA
ATOM     12  C   UNL     1       6.359   3.596  12.610  0.00  0.00    +0.000 C 
BRANCH  12  13
ATOM     13  O   UNL     1       6.216   2.295  12.264  0.00  0.00    +0.000 OA
ATOM     14  H   UNL     1       6.134   2.146  11.303  0.00  0.00    +0.000 HD
ENDBRANCH  12  13
ENDBRANCH  10  12
ENDBRANCH   1  10
BRANCH   6  15
ATOM     15  O   UNL     1       2.179   5.886  18.749  0.00  0.00    +0.000 OA
BRANCH  15  16
ATOM     16  C   UNL     1       2.687   6.805  19.725  0.00  0.00    +0.000 C 
BRANCH  16  17
ATOM     17  C   UNL     1       1.948   8.099  19.605  0.00  0.00    +0.000 A 
ATOM     18  N   UNL     1       1.227   8.631  20.570  0.00  0.00    +0.000 NA
ATOM     19  C   UNL     1       0.562   9.753  20.105  0.00  0.00    +0.000 A 
ATOM     20  C   UNL     1       0.830  10.081  18.791  0.00  0.00    +0.000 A 
ATOM     21  S   UNL     1       1.893   8.932  18.099  0.00  0.00    +0.000 S 
BRANCH  19  22
ATOM     22  C   UNL     1      -0.339  10.508  20.967  0.00  0.00    +0.000 A 
ATOM     23  C   UNL     1      -1.146  11.513  20.419  0.00  0.00    +0.000 A 
ATOM     24  C   UNL     1      -2.016  12.247  21.228  0.00  0.00    +0.000 A 
ATOM     25  C   UNL     1      -2.079  11.989  22.597  0.00  0.00    +0.000 A 
ATOM     26  C   UNL     1      -1.269  11.003  23.158  0.00  0.00    +0.000 A 
ATOM     27  C   UNL     1      -0.402  10.266  22.348  0.00  0.00    +0.000 A 
ENDBRANCH  19  22
ENDBRANCH  16  17
ENDBRANCH  15  16
ENDBRANCH   6  15
TORSDOF 7
ENDMDL
MODEL 3
REMARK VINA RESULT:      -7.5      3.777      9.174
REMARK  Name = 
REMARK  7 active torsions:
REMARK  status: ('A' for Active; 'I' for Inactive)
REMARK    1  A    between atoms: C_2  and  O_3
REMARK    2  A    between atoms: C_2  and  C_4
REMARK    3  A    between atoms: C_4  and  C_5
REMARK    4  A    between atoms: C_10  and  O_11
REMARK    5  A    between atoms: O_11  and  C_12
REMARK    6  A    between atoms: C_12  and  C_13
REMARK    7  A    between atoms: C_15  and  C_16
REMARK                            x       y       z     vdW  Elec       q    Type
REMARK                         _______ _______ _______ _____ _____    ______ ____
ROOT
ATOM      1  C   UNL     1      -0.267  10.835  19.146  0.00  0.00    +0.000 C 
ATOM      2  C   UNL     1      -0.307  10.833  20.688  0.00  0.00    +0.000 C 
ATOM      3  O   UNL     1       0.140   9.546  21.174  0.00  0.00    +0.000 OA
ATOM      4  C   UNL     1       0.882   9.051  20.137  0.00  0.00    +0.000 A 
ATOM      5  C   UNL     1       1.673   7.929  20.241  0.00  0.00    +0.000 A 
ATOM      6  C   UNL     1       2.365   7.506  19.107  0.00  0.00    +0.000 A 
ATOM      7  C   UNL     1       2.206   8.194  17.890  0.00  0.00    +0.000 A 
ATOM      8  C   UNL     1       1.392   9.330  17.807  0.00  0.00    +0.000 A 
ATOM      9  C   UNL     1       0.735   9.748  18.948  0.00  0.00    +0.000 A 
ENDROOT
BRANCH   1  10
ATOM     10  C   UNL     1      -1.588  10.442  18.483  0.00  0.00    +0.000 C 
BRANCH  10  12
ATOM     11  O   UNL     1      -3.259  11.524  17.099  0.00  0.00    +0.000 OA
ATOM     12  C   UNL     1      -2.157  11.540  17.624  0.00  0.00    +0.000 C 
BRANCH  12  13
ATOM     13  O   UNL     1      -1.300  12.578  17.484  0.00  0.00    +0.000 OA
ATOM     14  H   UNL     1      -0.866  12.849  18.316  0.00  0.00    +0.000 HD
ENDBRANCH  12  13
ENDBRANCH  10  12
ENDBRANCH   1  10
BRANCH   6  15
ATOM     15  O   UNL     1       3.211   6.427  19.075  0.00  0.00    +0.000 OA
BRANCH  15  16
ATOM     16  C   UNL     1       4.481   6.690  18.466  0.00  0.00    +0.000 C 
BRANCH  16  17
ATOM     17  C   UNL     1       4.830   5.554  17.559  0.00  0.00    +0.000 A 
ATOM     18  N   UNL     1       5.416   5.695  16.388  0.00  0.00    +0.000 NA
ATOM     19  C   UNL     1       5.477   4.476  15.735  0.00  0.00    +0.000 A 
ATOM     20  C   UNL     1       4.971   3.410  16.452  0.00  0.00    +0.000 A 
ATOM     21  S   UNL     1       4.351   3.948  17.954  0.00  0.00    +0.000 S 
BRANCH  19  22
ATOM     22  C   UNL     1       6.046   4.363  14.398  0.00  0.00    +0.000 A 
ATOM     23  C   UNL     1       5.457   3.504  13.462  0.00  0.00    +0.000 A 
ATOM     24  C   UNL     1       5.987   3.384  12.175  0.00  0.00    +0.000 A 
ATOM     25  C   UNL     1       7.119   4.114  11.816  0.00  0.00    +0.000 A 
ATOM     26  C   UNL     1       7.724   4.961  12.743  0.00  0.00    +0.000 A 
ATOM     27  C   UNL     1       7.192   5.085  14.028  0.00  0.00    +0.000 A 
ENDBRANCH  19  22
ENDBRANCH  16  17
ENDBRANCH  15  16
ENDBRANCH   6  15
TORSDOF 7
ENDMDL
MODEL 4
REMARK VINA RESULT:      -7.5      1.684      2.012
REMARK  Name = 
REMARK  7 active torsions:
REMARK  status: ('A' for Active; 'I' for Inactive)
REMARK    1  A    between atoms: C_2  and  O_3
REMARK    2  A    between atoms: C_2  and  C_4
REMARK    3  A    between atoms: C_4  and  C_5
REMARK    4  A    between atoms: C_10  and  O_11
REMARK    5  A    between atoms: O_11  and  C_12
REMARK    6  A    between atoms: C_12  and  C_13
REMARK    7  A    between atoms: C_15  and  C_16
REMARK                            x       y       z     vdW  Elec       q    Type
REMARK                         _______ _______ _______ _____ _____    ______ ____
ROOT
ATOM      1  C   UNL     1       2.310   3.679  17.635  0.00  0.00    +0.000 C 
ATOM      2  C   UNL     1       1.578   2.825  18.691  0.00  0.00    +0.000 C 
ATOM      3  O   UNL     1       1.647   3.492  19.973  0.00  0.00    +0.000 OA
ATOM      4  C   UNL     1       1.869   4.801  19.643  0.00  0.00    +0.000 A 
ATOM      5  C   UNL     1       1.799   5.832  20.552  0.00  0.00    +0.000 A 
ATOM      6  C   UNL     1       2.070   7.124  20.102  0.00  0.00    +0.000 A 
ATOM      7  C   UNL     1       2.449   7.336  18.764  0.00  0.00    +0.000 A 
ATOM      8  C   UNL     1       2.519   6.271  17.858  0.00  0.00    +0.000 A 
ATOM      9  C   UNL     1       2.221   5.001  18.318  0.00  0.00    +0.000 A 
ENDROOT
BRANCH   1  10
ATOM     10  C   UNL     1       3.779   3.304  17.435  0.00  0.00    +0.000 C 
BRANCH  10  12
ATOM     11  O   UNL     1       5.198   3.862  19.320  0.00  0.00    +0.000 OA
ATOM     12  C   UNL     1       4.499   3.052  18.734  0.00  0.00    +0.000 C 
BRANCH  12  13
ATOM     13  O   UNL     1       4.289   1.800  19.202  0.00  0.00    +0.000 OA
ATOM     14  H   UNL     1       3.385   1.649  19.542  0.00  0.00    +0.000 HD
ENDBRANCH  12  13
ENDBRANCH  10  12
ENDBRANCH   1  10
BRANCH   6  15
ATOM     15  O   UNL     1       2.007   8.246  20.889  0.00  0.00    +0.000 OA
BRANCH  15  16
ATOM     16  C   UNL     1       0.706   8.518  21.425  0.00  0.00    +0.000 C 
BRANCH  16  17
ATOM     17  C   UNL     1       0.074   9.617  20.633  0.00  0.00    +0.000 A 
ATOM     18  N   UNL     1      -0.851   9.428  19.715  0.00  0.00    +0.000 NA
ATOM     19  C   UNL     1      -1.131  10.620  19.069  0.00  0.00    +0.000 A 
ATOM     20  C   UNL     1      -0.437  11.714  19.546  0.00  0.00    +0.000 A 
ATOM     21  S   UNL     1       0.634  11.237  20.794  0.00  0.00    +0.000 S 
BRANCH  19  22
ATOM     22  C   UNL     1      -2.096  10.679  17.977  0.00  0.00    +0.000 A 
ATOM     23  C   UNL     1      -3.244  11.470  18.107  0.00  0.00    +0.000 A 
ATOM     24  C   UNL     1      -4.180  11.540  17.072  0.00  0.00    +0.000 A 
ATOM     25  C   UNL     1      -3.980  10.810  15.901  0.00  0.00    +0.000 A 
ATOM     26  C   UNL     1      -2.848  10.007  15.766  0.00  0.00    +0.000 A 
ATOM     27  C   UNL     1      -1.911   9.940  16.798  0.00  0.00    +0.000 A 
ENDBRANCH  19  22
ENDBRANCH  16  17
ENDBRANCH  15  16
ENDBRANCH   6  15
TORSDOF 7
ENDMDL
MODEL 5
REMARK VINA RESULT:      -7.5      3.594      9.030
REMARK  Name = 
REMARK  7 active torsions:
REMARK  status: ('A' for Active; 'I' for Inactive)
REMARK    1  A    between atoms: C_2  and  O_3
REMARK    2  A    between atoms: C_2  and  C_4
REMARK    3  A    between atoms: C_4  and  C_5
REMARK    4  A    between atoms: C_10  and  O_11
REMARK    5  A    between atoms: O_11  and  C_12
REMARK    6  A    between atoms: C_12  and  C_13
REMARK    7  A    between atoms: C_15  and  C_16
REMARK                            x       y       z     vdW  Elec       q    Type
REMARK                         _______ _______ _______ _____ _____    ______ ____
ROOT
ATOM      1  C   UNL     1       0.546  10.300  19.495  0.00  0.00    +0.000 C 
ATOM      2  C   UNL     1       0.352  10.230  21.023  0.00  0.00    +0.000 C 
ATOM      3  O   UNL     1       0.532   8.864  21.463  0.00  0.00    +0.000 OA
ATOM      4  C   UNL     1       1.282   8.301  20.468  0.00  0.00    +0.000 A 
ATOM      5  C   UNL     1       1.863   7.057  20.570  0.00  0.00    +0.000 A 
ATOM      6  C   UNL     1       2.586   6.578  19.478  0.00  0.00    +0.000 A 
ATOM      7  C   UNL     1       2.664   7.341  18.299  0.00  0.00    +0.000 A 
ATOM      8  C   UNL     1       2.060   8.601  18.216  0.00  0.00    +0.000 A 
ATOM      9  C   UNL     1       1.370   9.070  19.318  0.00  0.00    +0.000 A 
ENDROOT
BRANCH   1  10
ATOM     10  C   UNL     1      -0.749  10.169  18.691  0.00  0.00    +0.000 C 
BRANCH  10  12
ATOM     11  O   UNL     1      -2.524  11.819  18.607  0.00  0.00    +0.000 OA
ATOM     12  C   UNL     1      -1.371  11.502  18.367  0.00  0.00    +0.000 C 
BRANCH  12  13
ATOM     13  O   UNL     1      -0.497  12.340  17.762  0.00  0.00    +0.000 OA
ATOM     14  H   UNL     1      -0.371  12.164  16.810  0.00  0.00    +0.000 HD
ENDBRANCH  12  13
ENDBRANCH  10  12
ENDBRANCH   1  10
BRANCH   6  15
ATOM     15  O   UNL     1       3.242   5.374  19.453  0.00  0.00    +0.000 OA
BRANCH  15  16
ATOM     16  C   UNL     1       3.140   4.672  18.208  0.00  0.00    +0.000 C 
BRANCH  16  17
ATOM     17  C   UNL     1       4.453   4.748  17.499  0.00  0.00    +0.000 A 
ATOM     18  N   UNL     1       4.595   4.648  16.193  0.00  0.00    +0.000 NA
ATOM     19  C   UNL     1       5.939   4.619  15.860  0.00  0.00    +0.000 A 
ATOM     20  C   UNL     1       6.802   4.746  16.930  0.00  0.00    +0.000 A 
ATOM     21  S   UNL     1       5.921   4.846  18.393  0.00  0.00    +0.000 S 
BRANCH  19  22
ATOM     22  C   UNL     1       6.371   4.473  14.475  0.00  0.00    +0.000 A 
ATOM     23  C   UNL     1       7.448   5.231  14.000  0.00  0.00    +0.000 A 
ATOM     24  C   UNL     1       7.877   5.104  12.677  0.00  0.00    +0.000 A 
ATOM     25  C   UNL     1       7.225   4.224  11.813  0.00  0.00    +0.000 A 
ATOM     26  C   UNL     1       6.142   3.476  12.270  0.00  0.00    +0.000 A 
ATOM     27  C   UNL     1       5.715   3.599  13.594  0.00  0.00    +0.000 A 
ENDBRANCH  19  22
ENDBRANCH  16  17
ENDBRANCH  15  16
ENDBRANCH   6  15
TORSDOF 7
ENDMDL
MODEL 6
REMARK VINA RESULT:      -7.4      0.867      1.332
REMARK  Name = 
REMARK  7 active torsions:
REMARK  status: ('A' for Active; 'I' for Inactive)
REMARK    1  A    between atoms: C_2  and  O_3
REMARK    2  A    between atoms: C_2  and  C_4
REMARK    3  A    between atoms: C_4  and  C_5
REMARK    4  A    between atoms: C_10  and  O_11
REMARK    5  A    between atoms: O_11  and  C_12
REMARK    6  A    between atoms: C_12  and  C_13
REMARK    7  A    between atoms: C_15  and  C_16
REMARK                            x       y       z     vdW  Elec       q    Type
REMARK                         _______ _______ _______ _____ _____    ______ ____
ROOT
ATOM      1  C   UNL     1       4.758   4.930  17.082  0.00  0.00    +0.000 C 
ATOM      2  C   UNL     1       4.265   3.534  17.510  0.00  0.00    +0.000 C 
ATOM      3  O   UNL     1       3.559   3.644  18.768  0.00  0.00    +0.000 OA
ATOM      4  C   UNL     1       3.177   4.957  18.809  0.00  0.00    +0.000 A 
ATOM      5  C   UNL     1       2.298   5.460  19.741  0.00  0.00    +0.000 A 
ATOM      6  C   UNL     1       2.003   6.822  19.697  0.00  0.00    +0.000 A 
ATOM      7  C   UNL     1       2.635   7.647  18.749  0.00  0.00    +0.000 A 
ATOM      8  C   UNL     1       3.530   7.114  17.814  0.00  0.00    +0.000 A 
ATOM      9  C   UNL     1       3.790   5.757  17.858  0.00  0.00    +0.000 A 
ENDROOT
BRANCH   1  10
ATOM     10  C   UNL     1       6.184   5.257  17.530  0.00  0.00    +0.000 C 
BRANCH  10  12
ATOM     11  O   UNL     1       7.314   5.633  15.417  0.00  0.00    +0.000 OA
ATOM     12  C   UNL     1       6.949   6.051  16.504  0.00  0.00    +0.000 C 
BRANCH  12  13
ATOM     13  O   UNL     1       7.202   7.315  16.919  0.00  0.00    +0.000 OA
ATOM     14  H   UNL     1       6.472   7.941  16.750  0.00  0.00    +0.000 HD
ENDBRANCH  12  13
ENDBRANCH  10  12
ENDBRANCH   1  10
BRANCH   6  15
ATOM     15  O   UNL     1       1.123   7.450  20.541  0.00  0.00    +0.000 OA
BRANCH  15  16
ATOM     16  C   UNL     1       1.559   8.737  20.998  0.00  0.00    +0.000 C 
BRANCH  16  17
ATOM     17  C   UNL     1       0.642   9.783  20.451  0.00  0.00    +0.000 A 
ATOM     18  N   UNL     1      -0.316   9.543  19.579  0.00  0.00    +0.000 NA
ATOM     19  C   UNL     1      -0.894  10.732  19.167  0.00  0.00    +0.000 A 
ATOM     20  C   UNL     1      -0.389  11.863  19.778  0.00  0.00    +0.000 A 
ATOM     21  S   UNL     1       0.878  11.441  20.849  0.00  0.00    +0.000 S 
BRANCH  19  22
ATOM     22  C   UNL     1      -1.958  10.750  18.171  0.00  0.00    +0.000 A 
ATOM     23  C   UNL     1      -1.860   9.935  17.036  0.00  0.00    +0.000 A 
ATOM     24  C   UNL     1      -2.869   9.937  16.070  0.00  0.00    +0.000 A 
ATOM     25  C   UNL     1      -3.982  10.763  16.226  0.00  0.00    +0.000 A 
ATOM     26  C   UNL     1      -4.084  11.590  17.343  0.00  0.00    +0.000 A 
ATOM     27  C   UNL     1      -3.077  11.585  18.311  0.00  0.00    +0.000 A 
ENDBRANCH  19  22
ENDBRANCH  16  17
ENDBRANCH  15  16
ENDBRANCH   6  15
TORSDOF 7
ENDMDL
MODEL 7
REMARK VINA RESULT:      -7.3      3.519      8.820
REMARK  Name = 
REMARK  7 active torsions:
REMARK  status: ('A' for Active; 'I' for Inactive)
REMARK    1  A    between atoms: C_2  and  O_3
REMARK    2  A    between atoms: C_2  and  C_4
REMARK    3  A    between atoms: C_4  and  C_5
REMARK    4  A    between atoms: C_10  and  O_11
REMARK    5  A    between atoms: O_11  and  C_12
REMARK    6  A    between atoms: C_12  and  C_13
REMARK    7  A    between atoms: C_15  and  C_16
REMARK                            x       y       z     vdW  Elec       q    Type
REMARK                         _______ _______ _______ _____ _____    ______ ____
ROOT
ATOM      1  C   UNL     1       0.701  10.343  19.980  0.00  0.00    +0.000 C 
ATOM      2  C   UNL     1       0.794  10.011  21.483  0.00  0.00    +0.000 C 
ATOM      3  O   UNL     1       0.978   8.586  21.645  0.00  0.00    +0.000 OA
ATOM      4  C   UNL     1       1.496   8.189  20.442  0.00  0.00    +0.000 A 
ATOM      5  C   UNL     1       2.018   6.935  20.220  0.00  0.00    +0.000 A 
ATOM      6  C   UNL     1       2.495   6.639  18.944  0.00  0.00    +0.000 A 
ATOM      7  C   UNL     1       2.392   7.594  17.917  0.00  0.00    +0.000 A 
ATOM      8  C   UNL     1       1.853   8.862  18.165  0.00  0.00    +0.000 A 
ATOM      9  C   UNL     1       1.408   9.145  19.443  0.00  0.00    +0.000 A 
ENDROOT
BRANCH   1  10
ATOM     10  C   UNL     1      -0.728  10.382  19.433  0.00  0.00    +0.000 C 
BRANCH  10  12
ATOM     11  O   UNL     1      -1.972  11.691  17.815  0.00  0.00    +0.000 OA
ATOM     12  C   UNL     1      -0.932  11.473  18.414  0.00  0.00    +0.000 C 
BRANCH  12  13
ATOM     13  O   UNL     1       0.187  12.210  18.222  0.00  0.00    +0.000 OA
ATOM     14  H   UNL     1       0.079  12.935  17.577  0.00  0.00    +0.000 HD
ENDBRANCH  12  13
ENDBRANCH  10  12
ENDBRANCH   1  10
BRANCH   6  15
ATOM     15  O   UNL     1       3.068   5.444  18.591  0.00  0.00    +0.000 OA
BRANCH  15  16
ATOM     16  C   UNL     1       4.399   5.258  19.088  0.00  0.00    +0.000 C 
BRANCH  16  17
ATOM     17  C   UNL     1       5.371   5.508  17.979  0.00  0.00    +0.000 A 
ATOM     18  N   UNL     1       5.238   5.031  16.758  0.00  0.00    +0.000 NA
ATOM     19  C   UNL     1       6.364   5.323  16.008  0.00  0.00    +0.000 A 
ATOM     20  C   UNL     1       7.323   6.064  16.668  0.00  0.00    +0.000 A 
ATOM     21  S   UNL     1       6.836   6.358  18.283  0.00  0.00    +0.000 S 
BRANCH  19  22
ATOM     22  C   UNL     1       6.489   4.872  14.627  0.00  0.00    +0.000 A 
ATOM     23  C   UNL     1       5.519   4.019  14.084  0.00  0.00    +0.000 A 
ATOM     24  C   UNL     1       5.621   3.577  12.763  0.00  0.00    +0.000 A 
ATOM     25  C   UNL     1       6.701   3.976  11.976  0.00  0.00    +0.000 A 
ATOM     26  C   UNL     1       7.681   4.811  12.509  0.00  0.00    +0.000 A 
ATOM     27  C   UNL     1       7.577   5.257  13.828  0.00  0.00    +0.000 A 
ENDBRANCH  19  22
ENDBRANCH  16  17
ENDBRANCH  15  16
ENDBRANCH   6  15
TORSDOF 7
ENDMDL
MODEL 8
REMARK VINA RESULT:      -7.3      2.454      3.882
REMARK  Name = 
REMARK  7 active torsions:
REMARK  status: ('A' for Active; 'I' for Inactive)
REMARK    1  A    between atoms: C_2  and  O_3
REMARK    2  A    between atoms: C_2  and  C_4
REMARK    3  A    between atoms: C_4  and  C_5
REMARK    4  A    between atoms: C_10  and  O_11
REMARK    5  A    between atoms: O_11  and  C_12
REMARK    6  A    between atoms: C_12  and  C_13
REMARK    7  A    between atoms: C_15  and  C_16
REMARK                            x       y       z     vdW  Elec       q    Type
REMARK                         _______ _______ _______ _____ _____    ______ ____
ROOT
ATOM      1  C   UNL     1       4.350   4.462  18.185  0.00  0.00    +0.000 C 
ATOM      2  C   UNL     1       3.891   3.201  18.944  0.00  0.00    +0.000 C 
ATOM      3  O   UNL     1       3.237   3.596  20.172  0.00  0.00    +0.000 OA
ATOM      4  C   UNL     1       2.841   4.882  19.926  0.00  0.00    +0.000 A 
ATOM      5  C   UNL     1       1.995   5.585  20.754  0.00  0.00    +0.000 A 
ATOM      6  C   UNL     1       1.682   6.899  20.411  0.00  0.00    +0.000 A 
ATOM      7  C   UNL     1       2.264   7.485  19.272  0.00  0.00    +0.000 A 
ATOM      8  C   UNL     1       3.126   6.753  18.447  0.00  0.00    +0.000 A 
ATOM      9  C   UNL     1       3.404   5.443  18.791  0.00  0.00    +0.000 A 
ENDROOT
BRANCH   1  10
ATOM     10  C   UNL     1       5.789   4.886  18.483  0.00  0.00    +0.000 C 
BRANCH  10  12
ATOM     11  O   UNL     1       7.978   4.528  17.504  0.00  0.00    +0.000 OA
ATOM     12  C   UNL     1       6.766   4.406  17.442  0.00  0.00    +0.000 C 
BRANCH  12  13
ATOM     13  O   UNL     1       6.147   3.806  16.398  0.00  0.00    +0.000 OA
ATOM     14  H   UNL     1       6.480   2.910  16.201  0.00  0.00    +0.000 HD
ENDBRANCH  12  13
ENDBRANCH  10  12
ENDBRANCH   1  10
BRANCH   6  15
ATOM     15  O   UNL     1       0.830   7.703  21.125  0.00  0.00    +0.000 OA
BRANCH  15  16
ATOM     16  C   UNL     1       1.442   8.885  21.658  0.00  0.00    +0.000 C 
BRANCH  16  17
ATOM     17  C   UNL     1       0.507  10.037  21.480  0.00  0.00    +0.000 A 
ATOM     18  N   UNL     1      -0.003  10.736  22.474  0.00  0.00    +0.000 NA
ATOM     19  C   UNL     1      -0.933  11.641  21.992  0.00  0.00    +0.000 A 
ATOM     20  C   UNL     1      -1.082  11.643  20.620  0.00  0.00    +0.000 A 
ATOM     21  S   UNL     1      -0.078  10.449  19.914  0.00  0.00    +0.000 S 
BRANCH  19  22
ATOM     22  C   UNL     1      -1.675  12.513  22.894  0.00  0.00    +0.000 A 
ATOM     23  C   UNL     1      -2.957  12.144  23.320  0.00  0.00    +0.000 A 
ATOM     24  C   UNL     1      -3.683  12.966  24.185  0.00  0.00    +0.000 A 
ATOM     25  C   UNL     1      -3.137  14.172  24.624  0.00  0.00    +0.000 A 
ATOM     26  C   UNL     1      -1.868  14.558  24.195  0.00  0.00    +0.000 A 
ATOM     27  C   UNL     1      -1.141  13.734  23.334  0.00  0.00    +0.000 A 
ENDBRANCH  19  22
ENDBRANCH  16  17
ENDBRANCH  15  16
ENDBRANCH   6  15
TORSDOF 7
ENDMDL
MODEL 9
REMARK VINA RESULT:      -7.3      3.261      8.825
REMARK  Name = 
REMARK  7 active torsions:
REMARK  status: ('A' for Active; 'I' for Inactive)
REMARK    1  A    between atoms: C_2  and  O_3
REMARK    2  A    between atoms: C_2  and  C_4
REMARK    3  A    between atoms: C_4  and  C_5
REMARK    4  A    between atoms: C_10  and  O_11
REMARK    5  A    between atoms: O_11  and  C_12
REMARK    6  A    between atoms: C_12  and  C_13
REMARK    7  A    between atoms: C_15  and  C_16
REMARK                            x       y       z     vdW  Elec       q    Type
REMARK                         _______ _______ _______ _____ _____    ______ ____
ROOT
ATOM      1  C   UNL     1      -0.707  10.913  18.804  0.00  0.00    +0.000 C 
ATOM      2  C   UNL     1      -0.906  11.260  20.294  0.00  0.00    +0.000 C 
ATOM      3  O   UNL     1      -0.466  10.145  21.104  0.00  0.00    +0.000 OA
ATOM      4  C   UNL     1       0.396   9.471  20.283  0.00  0.00    +0.000 A 
ATOM      5  C   UNL     1       1.211   8.450  20.717  0.00  0.00    +0.000 A 
ATOM      6  C   UNL     1       2.030   7.820  19.781  0.00  0.00    +0.000 A 
ATOM      7  C   UNL     1       1.974   8.203  18.428  0.00  0.00    +0.000 A 
ATOM      8  C   UNL     1       1.133   9.241  18.009  0.00  0.00    +0.000 A 
ATOM      9  C   UNL     1       0.347   9.870  18.957  0.00  0.00    +0.000 A 
ENDROOT
BRANCH   1  10
ATOM     10  C   UNL     1      -1.938  10.303  18.132  0.00  0.00    +0.000 C 
BRANCH  10  12
ATOM     11  O   UNL     1      -2.519  11.069  15.905  0.00  0.00    +0.000 OA
ATOM     12  C   UNL     1      -2.562  11.223  17.115  0.00  0.00    +0.000 C 
BRANCH  12  13
ATOM     13  O   UNL     1      -3.195  12.271  17.692  0.00  0.00    +0.000 OA
ATOM     14  H   UNL     1      -3.175  12.259  18.668  0.00  0.00    +0.000 HD
ENDBRANCH  12  13
ENDBRANCH  10  12
ENDBRANCH   1  10
BRANCH   6  15
ATOM     15  O   UNL     1       2.912   6.813  20.079  0.00  0.00    +0.000 OA
BRANCH  15  16
ATOM     16  C   UNL     1       2.323   5.507  20.124  0.00  0.00    +0.000 C 
BRANCH  16  17
ATOM     17  C   UNL     1       2.908   4.673  19.030  0.00  0.00    +0.000 A 
ATOM     18  N   UNL     1       3.912   5.053  18.266  0.00  0.00    +0.000 NA
ATOM     19  C   UNL     1       4.128   4.122  17.265  0.00  0.00    +0.000 A 
ATOM     20  C   UNL     1       3.304   3.015  17.316  0.00  0.00    +0.000 A 
ATOM     21  S   UNL     1       2.193   3.164  18.610  0.00  0.00    +0.000 S 
BRANCH  19  22
ATOM     22  C   UNL     1       5.160   4.324  16.256  0.00  0.00    +0.000 A 
ATOM     23  C   UNL     1       6.367   4.940  16.610  0.00  0.00    +0.000 A 
ATOM     24  C   UNL     1       7.368   5.142  15.657  0.00  0.00    +0.000 A 
ATOM     25  C   UNL     1       7.167   4.737  14.338  0.00  0.00    +0.000 A 
ATOM     26  C   UNL     1       5.965   4.136  13.969  0.00  0.00    +0.000 A 
ATOM     27  C   UNL     1       4.965   3.931  14.922  0.00  0.00    +0.000 A 
ENDBRANCH  19  22
ENDBRANCH  16  17
ENDBRANCH  15  16
ENDBRANCH   6  15
TORSDOF 7
ENDMDL
