MODEL 1
REMARK VINA RESULT:      -7.8      0.000      0.000
REMARK  Name = 
REMARK  1 active torsions:
REMARK  status: ('A' for Active; 'I' for Inactive)
REMARK    1  A    between atoms: C_1  and  C_2
REMARK                            x       y       z     vdW  Elec       q    Type
REMARK                         _______ _______ _______ _____ _____    ______ ____
ROOT
ATOM      1  C   UNL     1       2.599   4.860  20.246  0.00  0.00    +0.000 C 
ATOM      2  C   UNL     1       2.285   5.062  18.767  0.00  0.00    +0.000 C 
ATOM      3  C   UNL     1       3.555   5.190  17.962  0.00  0.00    +0.000 A 
ATOM      4  C   UNL     1       4.476   6.227  17.991  0.00  0.00    +0.000 A 
ATOM      5  C   UNL     1       5.618   6.135  17.189  0.00  0.00    +0.000 A 
ATOM      6 CL   UNL     1       6.750   7.442  17.261  0.00  0.00    +0.000 Cl
ATOM      7  C   UNL     1       5.823   5.011  16.367  0.00  0.00    +0.000 A 
ATOM      8 CL   UNL     1       7.219   4.847  15.359  0.00  0.00    +0.000 Cl
ATOM      9  C   UNL     1       4.885   3.971  16.344  0.00  0.00    +0.000 A 
ATOM     10  C   UNL     1       3.758   4.075  17.145  0.00  0.00    +0.000 A 
ATOM     11  C   UNL     1       2.642   3.094  17.281  0.00  0.00    +0.000 C 
ATOM     12  C   UNL     1       2.906   1.922  18.212  0.00  0.00    +0.000 C 
ATOM     13  N   UNL     1       1.584   1.599  18.749  0.00  0.00    +0.000 NA
ATOM     14  C   UNL     1       0.827   2.852  18.860  0.00  0.00    +0.000 C 
ATOM     15  C   UNL     1       1.559   3.899  18.025  0.00  0.00    +0.000 C 
ATOM     16  H   UNL     1       1.663   1.139  19.654  0.00  0.00    +0.000 HD
ENDROOT
TORSDOF 0
ENDMDL
MODEL 2
REMARK VINA RESULT:      -6.9      1.534      2.553
REMARK  Name = 
REMARK  1 active torsions:
REMARK  status: ('A' for Active; 'I' for Inactive)
REMARK    1  A    between atoms: C_1  and  C_2
REMARK                            x       y       z     vdW  Elec       q    Type
REMARK                         _______ _______ _______ _____ _____    ______ ____
ROOT
ATOM      1  C   UNL     1       1.323   4.050  17.405  0.00  0.00    +0.000 C 
ATOM      2  C   UNL     1       2.418   3.079  17.836  0.00  0.00    +0.000 C 
ATOM      3  C   UNL     1       3.775   3.734  17.760  0.00  0.00    +0.000 A 
ATOM      4  C   UNL     1       4.462   4.130  16.622  0.00  0.00    +0.000 A 
ATOM      5  C   UNL     1       5.702   4.760  16.769  0.00  0.00    +0.000 A 
ATOM      6 CL   UNL     1       6.524   5.250  15.328  0.00  0.00    +0.000 Cl
ATOM      7  C   UNL     1       6.240   4.984  18.051  0.00  0.00    +0.000 A 
ATOM      8 CL   UNL     1       7.766   5.762  18.288  0.00  0.00    +0.000 Cl
ATOM      9  C   UNL     1       5.538   4.579  19.193  0.00  0.00    +0.000 A 
ATOM     10  C   UNL     1       4.310   3.956  19.031  0.00  0.00    +0.000 A 
ATOM     11  C   UNL     1       3.397   3.450  20.098  0.00  0.00    +0.000 C 
ATOM     12  C   UNL     1       2.514   4.495  20.758  0.00  0.00    +0.000 C 
ATOM     13  N   UNL     1       1.307   3.753  21.122  0.00  0.00    +0.000 NA
ATOM     14  C   UNL     1       1.091   2.721  20.102  0.00  0.00    +0.000 C 
ATOM     15  C   UNL     1       2.392   2.583  19.314  0.00  0.00    +0.000 C 
ATOM     16  H   UNL     1       0.503   4.376  21.186  0.00  0.00    +0.000 HD
ENDROOT
TORSDOF 0
ENDMDL
MODEL 3
REMARK VINA RESULT:      -6.8      3.567      5.352
REMARK  Name = 
REMARK  1 active torsions:
REMARK  status: ('A' for Active; 'I' for Inactive)
REMARK    1  A    between atoms: C_1  and  C_2
REMARK                            x       y       z     vdW  Elec       q    Type
REMARK                         _______ _______ _______ _____ _____    ______ ____
ROOT
ATOM      1  C   UNL     1       5.569   3.773  16.043  0.00  0.00    +0.000 C 
ATOM      2  C   UNL     1       4.693   4.932  16.508  0.00  0.00    +0.000 C 
ATOM      3  C   UNL     1       3.766   4.493  17.614  0.00  0.00    +0.000 A 
ATOM      4  C   UNL     1       2.695   3.615  17.524  0.00  0.00    +0.000 A 
ATOM      5  C   UNL     1       1.979   3.306  18.685  0.00  0.00    +0.000 A 
ATOM      6 CL   UNL     1       0.659   2.198  18.536  0.00  0.00    +0.000 Cl
ATOM      7  C   UNL     1       2.340   3.880  19.919  0.00  0.00    +0.000 A 
ATOM      8 CL   UNL     1       1.489   3.529  21.384  0.00  0.00    +0.000 Cl
ATOM      9  C   UNL     1       3.421   4.767  19.998  0.00  0.00    +0.000 A 
ATOM     10  C   UNL     1       4.123   5.063  18.839  0.00  0.00    +0.000 A 
ATOM     11  C   UNL     1       5.300   5.969  18.691  0.00  0.00    +0.000 C 
ATOM     12  C   UNL     1       6.643   5.368  19.069  0.00  0.00    +0.000 C 
ATOM     13  N   UNL     1       7.591   6.053  18.191  0.00  0.00    +0.000 NA
ATOM     14  C   UNL     1       6.907   6.328  16.922  0.00  0.00    +0.000 C 
ATOM     15  C   UNL     1       5.411   6.150  17.165  0.00  0.00    +0.000 C 
ATOM     16  H   UNL     1       8.423   5.485  18.041  0.00  0.00    +0.000 HD
ENDROOT
TORSDOF 0
ENDMDL
MODEL 4
REMARK VINA RESULT:      -6.8      1.718      1.918
REMARK  Name = 
REMARK  1 active torsions:
REMARK  status: ('A' for Active; 'I' for Inactive)
REMARK    1  A    between atoms: C_1  and  C_2
REMARK                            x       y       z     vdW  Elec       q    Type
REMARK                         _______ _______ _______ _____ _____    ______ ____
ROOT
ATOM      1  C   UNL     1       1.928   5.779  20.652  0.00  0.00    +0.000 C 
ATOM      2  C   UNL     1       1.645   4.821  19.498  0.00  0.00    +0.000 C 
ATOM      3  C   UNL     1       2.813   4.774  18.544  0.00  0.00    +0.000 A 
ATOM      4  C   UNL     1       3.262   5.782  17.703  0.00  0.00    +0.000 A 
ATOM      5  C   UNL     1       4.395   5.549  16.918  0.00  0.00    +0.000 A 
ATOM      6 CL   UNL     1       4.932   6.834  15.891  0.00  0.00    +0.000 Cl
ATOM      7  C   UNL     1       5.063   4.312  16.981  0.00  0.00    +0.000 A 
ATOM      8 CL   UNL     1       6.471   3.974  16.034  0.00  0.00    +0.000 Cl
ATOM      9  C   UNL     1       4.601   3.300  17.831  0.00  0.00    +0.000 A 
ATOM     10  C   UNL     1       3.476   3.546  18.605  0.00  0.00    +0.000 A 
ATOM     11  C   UNL     1       2.817   2.622  19.574  0.00  0.00    +0.000 C 
ATOM     12  C   UNL     1       3.456   2.548  20.951  0.00  0.00    +0.000 C 
ATOM     13  N   UNL     1       2.331   2.268  21.843  0.00  0.00    +0.000 NA
ATOM     14  C   UNL     1       1.147   2.938  21.294  0.00  0.00    +0.000 C 
ATOM     15  C   UNL     1       1.466   3.312  19.849  0.00  0.00    +0.000 C 
ATOM     16  H   UNL     1       2.529   2.593  22.788  0.00  0.00    +0.000 HD
ENDROOT
TORSDOF 0
ENDMDL
MODEL 5
REMARK VINA RESULT:      -6.8      2.689      3.765
REMARK  Name = 
REMARK  1 active torsions:
REMARK  status: ('A' for Active; 'I' for Inactive)
REMARK    1  A    between atoms: C_1  and  C_2
REMARK                            x       y       z     vdW  Elec       q    Type
REMARK                         _______ _______ _______ _____ _____    ______ ____
ROOT
ATOM      1  C   UNL     1       2.607   3.125  21.274  0.00  0.00    +0.000 C 
ATOM      2  C   UNL     1       1.604   3.538  20.201  0.00  0.00    +0.000 C 
ATOM      3  C   UNL     1       1.760   4.999  19.857  0.00  0.00    +0.000 A 
ATOM      4  C   UNL     1       1.474   6.094  20.661  0.00  0.00    +0.000 A 
ATOM      5  C   UNL     1       1.727   7.377  20.166  0.00  0.00    +0.000 A 
ATOM      6 CL   UNL     1       1.368   8.716  21.201  0.00  0.00    +0.000 Cl
ATOM      7  C   UNL     1       2.260   7.550  18.874  0.00  0.00    +0.000 A 
ATOM      8 CL   UNL     1       2.595   9.114  18.216  0.00  0.00    +0.000 Cl
ATOM      9  C   UNL     1       2.544   6.438  18.071  0.00  0.00    +0.000 A 
ATOM     10  C   UNL     1       2.288   5.172  18.576  0.00  0.00    +0.000 A 
ATOM     11  C   UNL     1       2.515   3.859  17.903  0.00  0.00    +0.000 C 
ATOM     12  C   UNL     1       3.940   3.333  17.952  0.00  0.00    +0.000 C 
ATOM     13  N   UNL     1       3.775   1.880  17.959  0.00  0.00    +0.000 NA
ATOM     14  C   UNL     1       2.540   1.573  18.690  0.00  0.00    +0.000 C 
ATOM     15  C   UNL     1       1.743   2.871  18.799  0.00  0.00    +0.000 C 
ATOM     16  H   UNL     1       4.577   1.426  18.393  0.00  0.00    +0.000 HD
ENDROOT
TORSDOF 0
ENDMDL
MODEL 6
REMARK VINA RESULT:      -6.7      3.324      4.860
REMARK  Name = 
REMARK  1 active torsions:
REMARK  status: ('A' for Active; 'I' for Inactive)
REMARK    1  A    between atoms: C_1  and  C_2
REMARK                            x       y       z     vdW  Elec       q    Type
REMARK                         _______ _______ _______ _____ _____    ______ ____
ROOT
ATOM      1  C   UNL     1       6.037   6.951  17.249  0.00  0.00    +0.000 C 
ATOM      2  C   UNL     1       6.210   5.511  17.723  0.00  0.00    +0.000 C 
ATOM      3  C   UNL     1       4.883   4.917  18.127  0.00  0.00    +0.000 A 
ATOM      4  C   UNL     1       4.095   5.265  19.214  0.00  0.00    +0.000 A 
ATOM      5  C   UNL     1       2.869   4.615  19.393  0.00  0.00    +0.000 A 
ATOM      6 CL   UNL     1       1.908   5.085  20.753  0.00  0.00    +0.000 Cl
ATOM      7  C   UNL     1       2.450   3.624  18.485  0.00  0.00    +0.000 A 
ATOM      8 CL   UNL     1       0.943   2.793  18.658  0.00  0.00    +0.000 Cl
ATOM      9  C   UNL     1       3.255   3.280  17.392  0.00  0.00    +0.000 A 
ATOM     10  C   UNL     1       4.467   3.933  17.228  0.00  0.00    +0.000 A 
ATOM     11  C   UNL     1       5.472   3.731  16.143  0.00  0.00    +0.000 C 
ATOM     12  C   UNL     1       5.179   4.444  14.834  0.00  0.00    +0.000 C 
ATOM     13  N   UNL     1       6.506   4.732  14.290  0.00  0.00    +0.000 NA
ATOM     14  C   UNL     1       7.408   4.985  15.419  0.00  0.00    +0.000 C 
ATOM     15  C   UNL     1       6.714   4.470  16.677  0.00  0.00    +0.000 C 
ATOM     16  H   UNL     1       6.474   5.534  13.662  0.00  0.00    +0.000 HD
ENDROOT
TORSDOF 0
ENDMDL
MODEL 7
REMARK VINA RESULT:      -6.6      3.037      4.490
REMARK  Name = 
REMARK  1 active torsions:
REMARK  status: ('A' for Active; 'I' for Inactive)
REMARK    1  A    between atoms: C_1  and  C_2
REMARK                            x       y       z     vdW  Elec       q    Type
REMARK                         _______ _______ _______ _____ _____    ______ ____
ROOT
ATOM      1  C   UNL     1       2.241   4.095  17.369  0.00  0.00    +0.000 C 
ATOM      2  C   UNL     1       3.161   4.709  18.421  0.00  0.00    +0.000 C 
ATOM      3  C   UNL     1       2.640   6.052  18.868  0.00  0.00    +0.000 A 
ATOM      4  C   UNL     1       2.572   7.224  18.128  0.00  0.00    +0.000 A 
ATOM      5  C   UNL     1       2.015   8.363  18.720  0.00  0.00    +0.000 A 
ATOM      6 CL   UNL     1       1.935   9.801  17.762  0.00  0.00    +0.000 Cl
ATOM      7  C   UNL     1       1.537   8.316  20.043  0.00  0.00    +0.000 A 
ATOM      8 CL   UNL     1       0.837   9.694  20.820  0.00  0.00    +0.000 Cl
ATOM      9  C   UNL     1       1.613   7.129  20.782  0.00  0.00    +0.000 A 
ATOM     10  C   UNL     1       2.167   6.008  20.181  0.00  0.00    +0.000 A 
ATOM     11  C   UNL     1       2.343   4.649  20.774  0.00  0.00    +0.000 C 
ATOM     12  C   UNL     1       1.111   3.759  20.756  0.00  0.00    +0.000 C 
ATOM     13  N   UNL     1       1.660   2.408  20.643  0.00  0.00    +0.000 NA
ATOM     14  C   UNL     1       2.884   2.487  19.837  0.00  0.00    +0.000 C 
ATOM     15  C   UNL     1       3.294   3.956  19.780  0.00  0.00    +0.000 C 
ATOM     16  H   UNL     1       0.983   1.776  20.217  0.00  0.00    +0.000 HD
ENDROOT
TORSDOF 0
ENDMDL
MODEL 8
REMARK VINA RESULT:      -6.6      1.478      1.565
REMARK  Name = 
REMARK  1 active torsions:
REMARK  status: ('A' for Active; 'I' for Inactive)
REMARK    1  A    between atoms: C_1  and  C_2
REMARK                            x       y       z     vdW  Elec       q    Type
REMARK                         _______ _______ _______ _____ _____    ______ ____
ROOT
ATOM      1  C   UNL     1       1.884   6.122  20.291  0.00  0.00    +0.000 C 
ATOM      2  C   UNL     1       2.025   5.337  18.990  0.00  0.00    +0.000 C 
ATOM      3  C   UNL     1       3.466   5.287  18.548  0.00  0.00    +0.000 A 
ATOM      4  C   UNL     1       4.250   6.338  18.093  0.00  0.00    +0.000 A 
ATOM      5  C   UNL     1       5.587   6.088  17.767  0.00  0.00    +0.000 A 
ATOM      6 CL   UNL     1       6.536   7.425  17.215  0.00  0.00    +0.000 Cl
ATOM      7  C   UNL     1       6.122   4.792  17.896  0.00  0.00    +0.000 A 
ATOM      8 CL   UNL     1       7.769   4.431  17.509  0.00  0.00    +0.000 Cl
ATOM      9  C   UNL     1       5.321   3.739  18.354  0.00  0.00    +0.000 A 
ATOM     10  C   UNL     1       3.998   4.002  18.675  0.00  0.00    +0.000 A 
ATOM     11  C   UNL     1       2.974   3.041  19.181  0.00  0.00    +0.000 C 
ATOM     12  C   UNL     1       3.029   2.745  20.671  0.00  0.00    +0.000 C 
ATOM     13  N   UNL     1       1.636   2.474  21.024  0.00  0.00    +0.000 NA
ATOM     14  C   UNL     1       0.787   3.316  20.174  0.00  0.00    +0.000 C 
ATOM     15  C   UNL     1       1.655   3.823  19.026  0.00  0.00    +0.000 C 
ATOM     16  H   UNL     1       1.469   2.666  22.011  0.00  0.00    +0.000 HD
ENDROOT
TORSDOF 0
ENDMDL
MODEL 9
REMARK VINA RESULT:      -6.6      1.978      3.303
REMARK  Name = 
REMARK  1 active torsions:
REMARK  status: ('A' for Active; 'I' for Inactive)
REMARK    1  A    between atoms: C_1  and  C_2
REMARK                            x       y       z     vdW  Elec       q    Type
REMARK                         _______ _______ _______ _____ _____    ______ ____
ROOT
ATOM      1  C   UNL     1       3.255   2.015  18.558  0.00  0.00    +0.000 C 
ATOM      2  C   UNL     1       3.866   3.071  19.474  0.00  0.00    +0.000 C 
ATOM      3  C   UNL     1       3.760   4.443  18.855  0.00  0.00    +0.000 A 
ATOM      4  C   UNL     1       4.421   4.919  17.731  0.00  0.00    +0.000 A 
ATOM      5  C   UNL     1       4.153   6.220  17.293  0.00  0.00    +0.000 A 
ATOM      6 CL   UNL     1       4.986   6.773  15.881  0.00  0.00    +0.000 Cl
ATOM      7  C   UNL     1       3.231   7.028  17.984  0.00  0.00    +0.000 A 
ATOM      8 CL   UNL     1       2.861   8.642  17.483  0.00  0.00    +0.000 Cl
ATOM      9  C   UNL     1       2.572   6.538  19.119  0.00  0.00    +0.000 A 
ATOM     10  C   UNL     1       2.847   5.246  19.541  0.00  0.00    +0.000 A 
ATOM     11  C   UNL     1       2.263   4.525  20.710  0.00  0.00    +0.000 C 
ATOM     12  C   UNL     1       0.894   3.907  20.484  0.00  0.00    +0.000 C 
ATOM     13  N   UNL     1       0.894   2.731  21.354  0.00  0.00    +0.000 NA
ATOM     14  C   UNL     1       2.264   2.208  21.400  0.00  0.00    +0.000 C 
ATOM     15  C   UNL     1       3.184   3.298  20.857  0.00  0.00    +0.000 C 
ATOM     16  H   UNL     1       0.245   2.025  21.010  0.00  0.00    +0.000 HD
ENDROOT
TORSDOF 0
ENDMDL
