MODEL 1
REMARK VINA RESULT:      -8.7      0.000      0.000
REMARK  Name = 
REMARK  6 active torsions:
REMARK  status: ('A' for Active; 'I' for Inactive)
REMARK    1  A    between atoms: C_2  and  C_3
REMARK    2  A    between atoms: C_3  and  C_4
REMARK    3  A    between atoms: C_4  and  C_5
REMARK    4  A    between atoms: N_15  and  N_16
REMARK    5  A    between atoms: C_17  and  C_18
REMARK    6  A    between atoms: C_21  and  N_22
REMARK                            x       y       z     vdW  Elec       q    Type
REMARK                         _______ _______ _______ _____ _____    ______ ____
ROOT
ATOM      1  O   UNL     1       7.952   5.394  19.412  0.00  0.00    +0.000 OA
ATOM      2  C   UNL     1       7.410   5.814  18.395  0.00  0.00    +0.000 C 
ATOM      3  N   UNL     1       7.634   7.068  17.828  0.00  0.00    +0.000 N 
ATOM      4  H   UNL     1       7.169   7.328  16.965  0.00  0.00    +0.000 HD
ENDROOT
BRANCH   3   5
ATOM      5  N   UNL     1       8.476   7.961  18.439  0.00  0.00    +0.000 NA
ATOM      6  C   UNL     1       8.313   9.208  18.130  0.00  0.00    +0.000 C 
BRANCH   6   7
ATOM      7  C   UNL     1       9.129  10.228  18.731  0.00  0.00    +0.000 A 
ATOM      8  C   UNL     1       9.426  10.521  20.052  0.00  0.00    +0.000 A 
ATOM      9  C   UNL     1      10.274  11.658  20.048  0.00  0.00    +0.000 A 
ATOM     10  C   UNL     1      10.438  11.983  18.724  0.00  0.00    +0.000 A 
ATOM     11  O   UNL     1       9.757  11.130  17.908  0.00  0.00    +0.000 OA
BRANCH  10  12
ATOM     12  N   UNL     1      11.174  13.032  18.088  0.00  0.00    +0.000 N 
ATOM     13  O   UNL     1      11.913  13.704  18.822  0.00  0.00    +0.000 OA
ATOM     14  O   UNL     1      11.020  13.189  16.873  0.00  0.00    +0.000 OA
ENDBRANCH  10  12
ENDBRANCH   6   7
ENDBRANCH   3   5
BRANCH   2  15
ATOM     15  C   UNL     1       6.411   5.000  17.580  0.00  0.00    +0.000 C 
BRANCH  15  16
ATOM     16  C   UNL     1       4.934   5.393  17.745  0.00  0.00    +0.000 C 
BRANCH  16  17
ATOM     17  C   UNL     1       4.205   4.777  18.964  0.00  0.00    +0.000 C 
ATOM     18  C   UNL     1       2.799   5.372  19.232  0.00  0.00    +0.000 C 
ATOM     19  C   UNL     1       1.816   4.967  18.118  0.00  0.00    +0.000 C 
ATOM     20  C   UNL     1       1.686   3.436  18.051  0.00  0.00    +0.000 C 
ATOM     21  C   UNL     1       1.170   2.916  19.404  0.00  0.00    +0.000 C 
ATOM     22  C   UNL     1       2.158   3.294  20.520  0.00  0.00    +0.000 C 
ATOM     23  C   UNL     1       2.282   4.825  20.578  0.00  0.00    +0.000 C 
ATOM     24  C   UNL     1       3.541   2.689  20.212  0.00  0.00    +0.000 C 
ATOM     25  C   UNL     1       4.068   3.227  18.862  0.00  0.00    +0.000 C 
ATOM     26  C   UNL     1       3.064   2.813  17.768  0.00  0.00    +0.000 C 
ENDBRANCH  16  17
ENDBRANCH  15  16
ENDBRANCH   2  15
TORSDOF 6
ENDMDL
MODEL 2
REMARK VINA RESULT:      -8.7      0.858      1.529
REMARK  Name = 
REMARK  6 active torsions:
REMARK  status: ('A' for Active; 'I' for Inactive)
REMARK    1  A    between atoms: C_2  and  C_3
REMARK    2  A    between atoms: C_3  and  C_4
REMARK    3  A    between atoms: C_4  and  C_5
REMARK    4  A    between atoms: N_15  and  N_16
REMARK    5  A    between atoms: C_17  and  C_18
REMARK    6  A    between atoms: C_21  and  N_22
REMARK                            x       y       z     vdW  Elec       q    Type
REMARK                         _______ _______ _______ _____ _____    ______ ____
ROOT
ATOM      1  O   UNL     1       7.465   5.683  18.474  0.00  0.00    +0.000 OA
ATOM      2  C   UNL     1       7.005   6.315  17.530  0.00  0.00    +0.000 C 
ATOM      3  N   UNL     1       7.351   7.626  17.200  0.00  0.00    +0.000 N 
ATOM      4  H   UNL     1       6.948   8.069  16.382  0.00  0.00    +0.000 HD
ENDROOT
BRANCH   3   5
ATOM      5  N   UNL     1       8.230   8.326  17.986  0.00  0.00    +0.000 NA
ATOM      6  C   UNL     1       8.274   9.606  17.797  0.00  0.00    +0.000 C 
BRANCH   6   7
ATOM      7  C   UNL     1       9.145  10.437  18.584  0.00  0.00    +0.000 A 
ATOM      8  C   UNL     1       9.365  10.521  19.949  0.00  0.00    +0.000 A 
ATOM      9  C   UNL     1      10.329  11.540  20.156  0.00  0.00    +0.000 A 
ATOM     10  C   UNL     1      10.634  12.010  18.902  0.00  0.00    +0.000 A 
ATOM     11  O   UNL     1       9.932  11.355  17.934  0.00  0.00    +0.000 OA
BRANCH  10  12
ATOM     12  N   UNL     1      11.530  13.037  18.464  0.00  0.00    +0.000 N 
ATOM     13  O   UNL     1      12.127  12.824  17.399  0.00  0.00    +0.000 OA
ATOM     14  O   UNL     1      11.640  14.043  19.171  0.00  0.00    +0.000 OA
ENDBRANCH  10  12
ENDBRANCH   6   7
ENDBRANCH   3   5
BRANCH   2  15
ATOM     15  C   UNL     1       5.986   5.742  16.552  0.00  0.00    +0.000 C 
BRANCH  15  16
ATOM     16  C   UNL     1       4.555   5.583  17.091  0.00  0.00    +0.000 C 
BRANCH  16  17
ATOM     17  C   UNL     1       4.211   4.199  17.693  0.00  0.00    +0.000 C 
ATOM     18  C   UNL     1       4.279   4.143  19.241  0.00  0.00    +0.000 C 
ATOM     19  C   UNL     1       3.145   4.979  19.865  0.00  0.00    +0.000 C 
ATOM     20  C   UNL     1       1.776   4.436  19.422  0.00  0.00    +0.000 C 
ATOM     21  C   UNL     1       1.646   2.973  19.879  0.00  0.00    +0.000 C 
ATOM     22  C   UNL     1       2.758   2.124  19.241  0.00  0.00    +0.000 C 
ATOM     23  C   UNL     1       4.122   2.675  19.688  0.00  0.00    +0.000 C 
ATOM     24  C   UNL     1       2.659   2.213  17.706  0.00  0.00    +0.000 C 
ATOM     25  C   UNL     1       2.810   3.680  17.246  0.00  0.00    +0.000 C 
ATOM     26  C   UNL     1       1.669   4.493  17.889  0.00  0.00    +0.000 C 
ENDBRANCH  16  17
ENDBRANCH  15  16
ENDBRANCH   2  15
TORSDOF 6
ENDMDL
MODEL 3
REMARK VINA RESULT:      -8.6      1.007      1.137
REMARK  Name = 
REMARK  6 active torsions:
REMARK  status: ('A' for Active; 'I' for Inactive)
REMARK    1  A    between atoms: C_2  and  C_3
REMARK    2  A    between atoms: C_3  and  C_4
REMARK    3  A    between atoms: C_4  and  C_5
REMARK    4  A    between atoms: N_15  and  N_16
REMARK    5  A    between atoms: C_17  and  C_18
REMARK    6  A    between atoms: C_21  and  N_22
REMARK                            x       y       z     vdW  Elec       q    Type
REMARK                         _______ _______ _______ _____ _____    ______ ____
ROOT
ATOM      1  O   UNL     1       6.797   5.953  18.850  0.00  0.00    +0.000 OA
ATOM      2  C   UNL     1       6.344   6.214  17.741  0.00  0.00    +0.000 C 
ATOM      3  N   UNL     1       6.845   7.192  16.882  0.00  0.00    +0.000 N 
ATOM      4  H   UNL     1       6.434   7.325  15.965  0.00  0.00    +0.000 HD
ENDROOT
BRANCH   3   5
ATOM      5  N   UNL     1       7.891   7.986  17.276  0.00  0.00    +0.000 NA
ATOM      6  C   UNL     1       7.579   9.130  17.796  0.00  0.00    +0.000 C 
BRANCH   6   7
ATOM      7  C   UNL     1       8.600  10.029  18.264  0.00  0.00    +0.000 A 
ATOM      8  C   UNL     1       9.471   9.967  19.339  0.00  0.00    +0.000 A 
ATOM      9  C   UNL     1      10.247  11.154  19.319  0.00  0.00    +0.000 A 
ATOM     10  C   UNL     1       9.797  11.861  18.230  0.00  0.00    +0.000 A 
ATOM     11  O   UNL     1       8.803  11.199  17.575  0.00  0.00    +0.000 OA
BRANCH  10  12
ATOM     12  N   UNL     1      10.185  13.131  17.698  0.00  0.00    +0.000 N 
ATOM     13  O   UNL     1      11.083  13.115  16.843  0.00  0.00    +0.000 OA
ATOM     14  O   UNL     1       9.606  14.135  18.124  0.00  0.00    +0.000 OA
ENDBRANCH  10  12
ENDBRANCH   6   7
ENDBRANCH   3   5
BRANCH   2  15
ATOM     15  C   UNL     1       5.159   5.479  17.124  0.00  0.00    +0.000 C 
BRANCH  15  16
ATOM     16  C   UNL     1       4.832   4.105  17.730  0.00  0.00    +0.000 C 
BRANCH  16  17
ATOM     17  C   UNL     1       3.944   4.121  18.998  0.00  0.00    +0.000 C 
ATOM     18  C   UNL     1       2.624   4.919  18.840  0.00  0.00    +0.000 C 
ATOM     19  C   UNL     1       1.668   4.199  17.870  0.00  0.00    +0.000 C 
ATOM     20  C   UNL     1       1.324   2.797  18.402  0.00  0.00    +0.000 C 
ATOM     21  C   UNL     1       0.651   2.934  19.778  0.00  0.00    +0.000 C 
ATOM     22  C   UNL     1       1.608   3.629  20.761  0.00  0.00    +0.000 C 
ATOM     23  C   UNL     1       1.946   5.027  20.221  0.00  0.00    +0.000 C 
ATOM     24  C   UNL     1       2.907   2.810  20.884  0.00  0.00    +0.000 C 
ATOM     25  C   UNL     1       3.593   2.689  19.505  0.00  0.00    +0.000 C 
ATOM     26  C   UNL     1       2.614   1.973  18.554  0.00  0.00    +0.000 C 
ENDBRANCH  16  17
ENDBRANCH  15  16
ENDBRANCH   2  15
TORSDOF 6
ENDMDL
MODEL 4
REMARK VINA RESULT:      -8.5      3.033     10.206
REMARK  Name = 
REMARK  6 active torsions:
REMARK  status: ('A' for Active; 'I' for Inactive)
REMARK    1  A    between atoms: C_2  and  C_3
REMARK    2  A    between atoms: C_3  and  C_4
REMARK    3  A    between atoms: C_4  and  C_5
REMARK    4  A    between atoms: N_15  and  N_16
REMARK    5  A    between atoms: C_17  and  C_18
REMARK    6  A    between atoms: C_21  and  N_22
REMARK                            x       y       z     vdW  Elec       q    Type
REMARK                         _______ _______ _______ _____ _____    ______ ____
ROOT
ATOM      1  O   UNL     1       8.208   7.027  18.688  0.00  0.00    +0.000 OA
ATOM      2  C   UNL     1       7.718   7.813  17.884  0.00  0.00    +0.000 C 
ATOM      3  N   UNL     1       6.540   7.595  17.169  0.00  0.00    +0.000 N 
ATOM      4  H   UNL     1       6.183   8.311  16.545  0.00  0.00    +0.000 HD
ENDROOT
BRANCH   3   5
ATOM      5  N   UNL     1       5.864   6.411  17.297  0.00  0.00    +0.000 NA
ATOM      6  C   UNL     1       4.703   6.472  17.869  0.00  0.00    +0.000 C 
BRANCH   6   7
ATOM      7  C   UNL     1       3.900   5.289  18.033  0.00  0.00    +0.000 A 
ATOM      8  C   UNL     1       2.570   5.024  17.751  0.00  0.00    +0.000 A 
ATOM      9  C   UNL     1       2.319   3.684  18.142  0.00  0.00    +0.000 A 
ATOM     10  C   UNL     1       3.515   3.221  18.636  0.00  0.00    +0.000 A 
ATOM     11  O   UNL     1       4.487   4.174  18.578  0.00  0.00    +0.000 OA
BRANCH  10  12
ATOM     12  N   UNL     1       3.887   1.953  19.185  0.00  0.00    +0.000 N 
ATOM     13  O   UNL     1       4.300   1.964  20.354  0.00  0.00    +0.000 OA
ATOM     14  O   UNL     1       3.773   0.958  18.464  0.00  0.00    +0.000 OA
ENDBRANCH  10  12
ENDBRANCH   6   7
ENDBRANCH   3   5
BRANCH   2  15
ATOM     15  C   UNL     1       8.328   9.172  17.561  0.00  0.00    +0.000 C 
BRANCH  15  16
ATOM     16  C   UNL     1       8.994   9.905  18.736  0.00  0.00    +0.000 C 
BRANCH  16  17
ATOM     17  C   UNL     1       9.269  11.413  18.523  0.00  0.00    +0.000 C 
ATOM     18  C   UNL     1       9.279  12.250  19.827  0.00  0.00    +0.000 C 
ATOM     19  C   UNL     1      10.501  11.890  20.693  0.00  0.00    +0.000 C 
ATOM     20  C   UNL     1      11.803  12.179  19.925  0.00  0.00    +0.000 C 
ATOM     21  C   UNL     1      11.851  13.674  19.564  0.00  0.00    +0.000 C 
ATOM     22  C   UNL     1      10.648  14.037  18.678  0.00  0.00    +0.000 C 
ATOM     23  C   UNL     1       9.353  13.744  19.453  0.00  0.00    +0.000 C 
ATOM     24  C   UNL     1      10.672  13.180  17.398  0.00  0.00    +0.000 C 
ATOM     25  C   UNL     1      10.602  11.680  17.760  0.00  0.00    +0.000 C 
ATOM     26  C   UNL     1      11.832  11.350  18.630  0.00  0.00    +0.000 C 
ENDBRANCH  16  17
ENDBRANCH  15  16
ENDBRANCH   2  15
TORSDOF 6
ENDMDL
MODEL 5
REMARK VINA RESULT:      -8.5      3.063     10.318
REMARK  Name = 
REMARK  6 active torsions:
REMARK  status: ('A' for Active; 'I' for Inactive)
REMARK    1  A    between atoms: C_2  and  C_3
REMARK    2  A    between atoms: C_3  and  C_4
REMARK    3  A    between atoms: C_4  and  C_5
REMARK    4  A    between atoms: N_15  and  N_16
REMARK    5  A    between atoms: C_17  and  C_18
REMARK    6  A    between atoms: C_21  and  N_22
REMARK                            x       y       z     vdW  Elec       q    Type
REMARK                         _______ _______ _______ _____ _____    ______ ____
ROOT
ATOM      1  O   UNL     1       8.153   7.012  18.676  0.00  0.00    +0.000 OA
ATOM      2  C   UNL     1       7.632   7.770  17.865  0.00  0.00    +0.000 C 
ATOM      3  N   UNL     1       6.485   7.484  17.124  0.00  0.00    +0.000 N 
ATOM      4  H   UNL     1       6.097   8.179  16.496  0.00  0.00    +0.000 HD
ENDROOT
BRANCH   3   5
ATOM      5  N   UNL     1       5.881   6.259  17.234  0.00  0.00    +0.000 NA
ATOM      6  C   UNL     1       4.654   6.259  17.649  0.00  0.00    +0.000 C 
BRANCH   6   7
ATOM      7  C   UNL     1       3.920   5.028  17.778  0.00  0.00    +0.000 A 
ATOM      8  C   UNL     1       3.883   3.883  16.999  0.00  0.00    +0.000 A 
ATOM      9  C   UNL     1       2.959   2.995  17.605  0.00  0.00    +0.000 A 
ATOM     10  C   UNL     1       2.494   3.658  18.715  0.00  0.00    +0.000 A 
ATOM     11  O   UNL     1       3.064   4.889  18.842  0.00  0.00    +0.000 OA
BRANCH  10  12
ATOM     12  N   UNL     1       1.543   3.282  19.716  0.00  0.00    +0.000 N 
ATOM     13  O   UNL     1       1.537   2.086  20.042  0.00  0.00    +0.000 OA
ATOM     14  O   UNL     1       0.809   4.163  20.173  0.00  0.00    +0.000 OA
ENDBRANCH  10  12
ENDBRANCH   6   7
ENDBRANCH   3   5
BRANCH   2  15
ATOM     15  C   UNL     1       8.162   9.167  17.560  0.00  0.00    +0.000 C 
BRANCH  15  16
ATOM     16  C   UNL     1       8.964   9.840  18.686  0.00  0.00    +0.000 C 
BRANCH  16  17
ATOM     17  C   UNL     1       9.271  11.344  18.488  0.00  0.00    +0.000 C 
ATOM     18  C   UNL     1       9.205  12.184  19.790  0.00  0.00    +0.000 C 
ATOM     19  C   UNL     1      10.363  11.811  20.735  0.00  0.00    +0.000 C 
ATOM     20  C   UNL     1      11.716  12.081  20.054  0.00  0.00    +0.000 C 
ATOM     21  C   UNL     1      11.807  13.575  19.695  0.00  0.00    +0.000 C 
ATOM     22  C   UNL     1      10.670  13.951  18.731  0.00  0.00    +0.000 C 
ATOM     23  C   UNL     1       9.323  13.676  19.419  0.00  0.00    +0.000 C 
ATOM     24  C   UNL     1      10.768  13.091  17.457  0.00  0.00    +0.000 C 
ATOM     25  C   UNL     1      10.656  11.592  17.815  0.00  0.00    +0.000 C 
ATOM     26  C   UNL     1      11.820  11.249  18.765  0.00  0.00    +0.000 C 
ENDBRANCH  16  17
ENDBRANCH  15  16
ENDBRANCH   2  15
TORSDOF 6
ENDMDL
MODEL 6
REMARK VINA RESULT:      -8.4      0.867      1.918
REMARK  Name = 
REMARK  6 active torsions:
REMARK  status: ('A' for Active; 'I' for Inactive)
REMARK    1  A    between atoms: C_2  and  C_3
REMARK    2  A    between atoms: C_3  and  C_4
REMARK    3  A    between atoms: C_4  and  C_5
REMARK    4  A    between atoms: N_15  and  N_16
REMARK    5  A    between atoms: C_17  and  C_18
REMARK    6  A    between atoms: C_21  and  N_22
REMARK                            x       y       z     vdW  Elec       q    Type
REMARK                         _______ _______ _______ _____ _____    ______ ____
ROOT
ATOM      1  O   UNL     1       7.359   5.807  18.855  0.00  0.00    +0.000 OA
ATOM      2  C   UNL     1       6.994   6.331  17.809  0.00  0.00    +0.000 C 
ATOM      3  N   UNL     1       7.401   7.588  17.359  0.00  0.00    +0.000 N 
ATOM      4  H   UNL     1       7.078   7.938  16.463  0.00  0.00    +0.000 HD
ENDROOT
BRANCH   3   5
ATOM      5  N   UNL     1       8.232   8.360  18.128  0.00  0.00    +0.000 NA
ATOM      6  C   UNL     1       8.321   9.609  17.799  0.00  0.00    +0.000 C 
BRANCH   6   7
ATOM      7  C   UNL     1       9.148  10.512  18.555  0.00  0.00    +0.000 A 
ATOM      8  C   UNL     1       9.481  10.562  19.898  0.00  0.00    +0.000 A 
ATOM      9  C   UNL     1      10.321  11.690  20.080  0.00  0.00    +0.000 A 
ATOM     10  C   UNL     1      10.445  12.253  18.833  0.00  0.00    +0.000 A 
ATOM     11  O   UNL     1       9.746  11.556  17.893  0.00  0.00    +0.000 OA
BRANCH  10  12
ATOM     12  N   UNL     1      11.156  13.409  18.380  0.00  0.00    +0.000 N 
ATOM     13  O   UNL     1      10.520  14.473  18.371  0.00  0.00    +0.000 OA
ATOM     14  O   UNL     1      12.333  13.263  18.036  0.00  0.00    +0.000 OA
ENDBRANCH  10  12
ENDBRANCH   6   7
ENDBRANCH   3   5
BRANCH   2  15
ATOM     15  C   UNL     1       6.042   5.664  16.822  0.00  0.00    +0.000 C 
BRANCH  15  16
ATOM     16  C   UNL     1       5.626   4.224  17.162  0.00  0.00    +0.000 C 
BRANCH  16  17
ATOM     17  C   UNL     1       4.102   3.968  17.265  0.00  0.00    +0.000 C 
ATOM     18  C   UNL     1       3.727   2.617  17.924  0.00  0.00    +0.000 C 
ATOM     19  C   UNL     1       4.083   2.626  19.423  0.00  0.00    +0.000 C 
ATOM     20  C   UNL     1       3.316   3.746  20.147  0.00  0.00    +0.000 C 
ATOM     21  C   UNL     1       1.805   3.508  19.980  0.00  0.00    +0.000 C 
ATOM     22  C   UNL     1       1.435   3.522  18.488  0.00  0.00    +0.000 C 
ATOM     23  C   UNL     1       2.207   2.401  17.774  0.00  0.00    +0.000 C 
ATOM     24  C   UNL     1       1.830   4.877  17.871  0.00  0.00    +0.000 C 
ATOM     25  C   UNL     1       3.351   5.107  18.020  0.00  0.00    +0.000 C 
ATOM     26  C   UNL     1       3.680   5.106  19.526  0.00  0.00    +0.000 C 
ENDBRANCH  16  17
ENDBRANCH  15  16
ENDBRANCH   2  15
TORSDOF 6
ENDMDL
MODEL 7
REMARK VINA RESULT:      -8.4      1.477      2.023
REMARK  Name = 
REMARK  6 active torsions:
REMARK  status: ('A' for Active; 'I' for Inactive)
REMARK    1  A    between atoms: C_2  and  C_3
REMARK    2  A    between atoms: C_3  and  C_4
REMARK    3  A    between atoms: C_4  and  C_5
REMARK    4  A    between atoms: N_15  and  N_16
REMARK    5  A    between atoms: C_17  and  C_18
REMARK    6  A    between atoms: C_21  and  N_22
REMARK                            x       y       z     vdW  Elec       q    Type
REMARK                         _______ _______ _______ _____ _____    ______ ____
ROOT
ATOM      1  O   UNL     1       5.159   7.218  17.371  0.00  0.00    +0.000 OA
ATOM      2  C   UNL     1       6.134   6.487  17.233  0.00  0.00    +0.000 C 
ATOM      3  N   UNL     1       7.457   6.923  17.155  0.00  0.00    +0.000 N 
ATOM      4  H   UNL     1       8.211   6.251  17.073  0.00  0.00    +0.000 HD
ENDROOT
BRANCH   3   5
ATOM      5  N   UNL     1       7.744   8.263  17.179  0.00  0.00    +0.000 NA
ATOM      6  C   UNL     1       8.387   8.693  18.217  0.00  0.00    +0.000 C 
BRANCH   6   7
ATOM      7  C   UNL     1       8.758  10.079  18.332  0.00  0.00    +0.000 A 
ATOM      8  C   UNL     1       8.267  11.224  17.727  0.00  0.00    +0.000 A 
ATOM      9  C   UNL     1       9.035  12.314  18.209  0.00  0.00    +0.000 A 
ATOM     10  C   UNL     1       9.944  11.760  19.078  0.00  0.00    +0.000 A 
ATOM     11  O   UNL     1       9.794  10.409  19.170  0.00  0.00    +0.000 OA
BRANCH  10  12
ATOM     12  N   UNL     1      10.985  12.347  19.865  0.00  0.00    +0.000 N 
ATOM     13  O   UNL     1      11.828  11.565  20.327  0.00  0.00    +0.000 OA
ATOM     14  O   UNL     1      10.966  13.572  20.023  0.00  0.00    +0.000 OA
ENDBRANCH  10  12
ENDBRANCH   6   7
ENDBRANCH   3   5
BRANCH   2  15
ATOM     15  C   UNL     1       6.038   4.968  17.145  0.00  0.00    +0.000 C 
BRANCH  15  16
ATOM     16  C   UNL     1       4.677   4.406  16.705  0.00  0.00    +0.000 C 
BRANCH  16  17
ATOM     17  C   UNL     1       3.993   3.439  17.701  0.00  0.00    +0.000 C 
ATOM     18  C   UNL     1       4.212   3.801  19.192  0.00  0.00    +0.000 C 
ATOM     19  C   UNL     1       3.467   5.101  19.550  0.00  0.00    +0.000 C 
ATOM     20  C   UNL     1       1.956   4.934  19.310  0.00  0.00    +0.000 C 
ATOM     21  C   UNL     1       1.433   3.785  20.189  0.00  0.00    +0.000 C 
ATOM     22  C   UNL     1       2.153   2.477  19.822  0.00  0.00    +0.000 C 
ATOM     23  C   UNL     1       3.660   2.654  20.064  0.00  0.00    +0.000 C 
ATOM     24  C   UNL     1       1.916   2.157  18.334  0.00  0.00    +0.000 C 
ATOM     25  C   UNL     1       2.460   3.302  17.450  0.00  0.00    +0.000 C 
ATOM     26  C   UNL     1       1.703   4.590  17.833  0.00  0.00    +0.000 C 
ENDBRANCH  16  17
ENDBRANCH  15  16
ENDBRANCH   2  15
TORSDOF 6
ENDMDL
MODEL 8
REMARK VINA RESULT:      -8.2      1.603      2.141
REMARK  Name = 
REMARK  6 active torsions:
REMARK  status: ('A' for Active; 'I' for Inactive)
REMARK    1  A    between atoms: C_2  and  C_3
REMARK    2  A    between atoms: C_3  and  C_4
REMARK    3  A    between atoms: C_4  and  C_5
REMARK    4  A    between atoms: N_15  and  N_16
REMARK    5  A    between atoms: C_17  and  C_18
REMARK    6  A    between atoms: C_21  and  N_22
REMARK                            x       y       z     vdW  Elec       q    Type
REMARK                         _______ _______ _______ _____ _____    ______ ____
ROOT
ATOM      1  O   UNL     1       7.757   4.864  15.699  0.00  0.00    +0.000 OA
ATOM      2  C   UNL     1       6.628   5.315  15.858  0.00  0.00    +0.000 C 
ATOM      3  N   UNL     1       6.336   6.591  16.341  0.00  0.00    +0.000 N 
ATOM      4  H   UNL     1       5.374   6.902  16.412  0.00  0.00    +0.000 HD
ENDROOT
BRANCH   3   5
ATOM      5  N   UNL     1       7.349   7.429  16.732  0.00  0.00    +0.000 NA
ATOM      6  C   UNL     1       7.028   8.366  17.565  0.00  0.00    +0.000 C 
BRANCH   6   7
ATOM      7  C   UNL     1       8.020   9.286  18.056  0.00  0.00    +0.000 A 
ATOM      8  C   UNL     1       8.989   9.168  19.039  0.00  0.00    +0.000 A 
ATOM      9  C   UNL     1       9.671  10.410  19.104  0.00  0.00    +0.000 A 
ATOM     10  C   UNL     1       9.073  11.202  18.155  0.00  0.00    +0.000 A 
ATOM     11  O   UNL     1       8.073  10.542  17.506  0.00  0.00    +0.000 OA
BRANCH  10  12
ATOM     12  N   UNL     1       9.316  12.555  17.758  0.00  0.00    +0.000 N 
ATOM     13  O   UNL     1      10.503  12.912  17.735  0.00  0.00    +0.000 OA
ATOM     14  O   UNL     1       8.341  13.255  17.472  0.00  0.00    +0.000 OA
ENDBRANCH  10  12
ENDBRANCH   6   7
ENDBRANCH   3   5
BRANCH   2  15
ATOM     15  C   UNL     1       5.358   4.539  15.523  0.00  0.00    +0.000 C 
BRANCH  15  16
ATOM     16  C   UNL     1       4.836   3.602  16.623  0.00  0.00    +0.000 C 
BRANCH  16  17
ATOM     17  C   UNL     1       3.755   4.195  17.558  0.00  0.00    +0.000 C 
ATOM     18  C   UNL     1       2.344   3.580  17.370  0.00  0.00    +0.000 C 
ATOM     19  C   UNL     1       2.321   2.118  17.854  0.00  0.00    +0.000 C 
ATOM     20  C   UNL     1       2.686   2.043  19.347  0.00  0.00    +0.000 C 
ATOM     21  C   UNL     1       1.667   2.866  20.153  0.00  0.00    +0.000 C 
ATOM     22  C   UNL     1       1.700   4.334  19.695  0.00  0.00    +0.000 C 
ATOM     23  C   UNL     1       1.336   4.398  18.204  0.00  0.00    +0.000 C 
ATOM     24  C   UNL     1       3.117   4.903  19.892  0.00  0.00    +0.000 C 
ATOM     25  C   UNL     1       4.138   4.089  19.066  0.00  0.00    +0.000 C 
ATOM     26  C   UNL     1       4.090   2.632  19.565  0.00  0.00    +0.000 C 
ENDBRANCH  16  17
ENDBRANCH  15  16
ENDBRANCH   2  15
TORSDOF 6
ENDMDL
MODEL 9
REMARK VINA RESULT:      -8.1      1.534      2.124
REMARK  Name = 
REMARK  6 active torsions:
REMARK  status: ('A' for Active; 'I' for Inactive)
REMARK    1  A    between atoms: C_2  and  C_3
REMARK    2  A    between atoms: C_3  and  C_4
REMARK    3  A    between atoms: C_4  and  C_5
REMARK    4  A    between atoms: N_15  and  N_16
REMARK    5  A    between atoms: C_17  and  C_18
REMARK    6  A    between atoms: C_21  and  N_22
REMARK                            x       y       z     vdW  Elec       q    Type
REMARK                         _______ _______ _______ _____ _____    ______ ____
ROOT
ATOM      1  O   UNL     1       6.032   6.737  15.878  0.00  0.00    +0.000 OA
ATOM      2  C   UNL     1       6.622   6.043  16.698  0.00  0.00    +0.000 C 
ATOM      3  N   UNL     1       7.481   6.526  17.685  0.00  0.00    +0.000 N 
ATOM      4  H   UNL     1       7.906   5.887  18.349  0.00  0.00    +0.000 HD
ENDROOT
BRANCH   3   5
ATOM      5  N   UNL     1       7.763   7.865  17.759  0.00  0.00    +0.000 NA
ATOM      6  C   UNL     1       8.537   8.236  18.728  0.00  0.00    +0.000 C 
BRANCH   6   7
ATOM      7  C   UNL     1       8.915   9.615  18.883  0.00  0.00    +0.000 A 
ATOM      8  C   UNL     1       9.614  10.281  19.877  0.00  0.00    +0.000 A 
ATOM      9  C   UNL     1       9.670  11.648  19.506  0.00  0.00    +0.000 A 
ATOM     10  C   UNL     1       9.001  11.725  18.308  0.00  0.00    +0.000 A 
ATOM     11  O   UNL     1       8.538  10.507  17.910  0.00  0.00    +0.000 OA
BRANCH  10  12
ATOM     12  N   UNL     1       8.719  12.834  17.449  0.00  0.00    +0.000 N 
ATOM     13  O   UNL     1       7.596  12.847  16.924  0.00  0.00    +0.000 OA
ATOM     14  O   UNL     1       9.603  13.682  17.294  0.00  0.00    +0.000 OA
ENDBRANCH  10  12
ENDBRANCH   6   7
ENDBRANCH   3   5
BRANCH   2  15
ATOM     15  C   UNL     1       6.481   4.526  16.771  0.00  0.00    +0.000 C 
BRANCH  15  16
ATOM     16  C   UNL     1       5.089   3.965  16.440  0.00  0.00    +0.000 C 
BRANCH  16  17
ATOM     17  C   UNL     1       3.939   4.424  17.369  0.00  0.00    +0.000 C 
ATOM     18  C   UNL     1       2.619   3.632  17.187  0.00  0.00    +0.000 C 
ATOM     19  C   UNL     1       2.783   2.183  17.685  0.00  0.00    +0.000 C 
ATOM     20  C   UNL     1       3.152   2.170  19.178  0.00  0.00    +0.000 C 
ATOM     21  C   UNL     1       2.035   2.864  19.977  0.00  0.00    +0.000 C 
ATOM     22  C   UNL     1       1.881   4.319  19.505  0.00  0.00    +0.000 C 
ATOM     23  C   UNL     1       1.513   4.322  18.013  0.00  0.00    +0.000 C 
ATOM     24  C   UNL     1       3.214   5.068  19.696  0.00  0.00    +0.000 C 
ATOM     25  C   UNL     1       4.331   4.383  18.877  0.00  0.00    +0.000 C 
ATOM     26  C   UNL     1       4.469   2.936  19.391  0.00  0.00    +0.000 C 
ENDBRANCH  16  17
ENDBRANCH  15  16
ENDBRANCH   2  15
TORSDOF 6
ENDMDL
