MODEL 1
REMARK VINA RESULT:      -8.1      0.000      0.000
REMARK  Name = 
REMARK  7 active torsions:
REMARK  status: ('A' for Active; 'I' for Inactive)
REMARK    1  A    between atoms: C_2  and  C_3
REMARK    2  A    between atoms: C_3  and  N_4
REMARK    3  A    between atoms: N_4  and  S_5
REMARK    4  A    between atoms: S_5  and  C_8
REMARK    5  A    between atoms: C_12  and  C_13
REMARK    6  A    between atoms: C_18  and  C_19
REMARK    7  A    between atoms: C_20  and  C_21
REMARK                            x       y       z     vdW  Elec       q    Type
REMARK                         _______ _______ _______ _____ _____    ______ ____
ROOT
ATOM      1  C   UNL     1       5.007   4.817  16.667  0.00  0.00    +0.000 A 
ATOM      2  C   UNL     1       4.372   3.609  16.984  0.00  0.00    +0.000 A 
ATOM      3  C   UNL     1       3.242   3.631  17.793  0.00  0.00    +0.000 A 
ATOM      4  C   UNL     1       2.753   4.846  18.271  0.00  0.00    +0.000 A 
ATOM      5  C   UNL     1       3.375   6.072  17.952  0.00  0.00    +0.000 A 
ATOM      6  C   UNL     1       4.521   6.047  17.146  0.00  0.00    +0.000 A 
ENDROOT
BRANCH   5   7
ATOM      7  C   UNL     1       2.749   7.313  18.518  0.00  0.00    +0.000 C 
ATOM      8  O   UNL     1       2.993   8.364  17.924  0.00  0.00    +0.000 OA
ATOM      9  N   UNL     1       1.992   7.205  19.668  0.00  0.00    +0.000 N 
ATOM     10  C   UNL     1       1.352   8.266  20.279  0.00  0.00    +0.000 A 
ATOM     11  N   UNL     1       0.945   8.221  21.528  0.00  0.00    +0.000 NA
ATOM     12  C   UNL     1       0.395   9.450  21.890  0.00  0.00    +0.000 A 
ATOM     13  C   UNL     1      -0.024   9.676  23.298  0.00  0.00    +0.000 C 
ATOM     14  C   UNL     1       0.305  10.370  20.861  0.00  0.00    +0.000 A 
ATOM     15  C   UNL     1      -0.233  11.755  20.851  0.00  0.00    +0.000 C 
ATOM     16  S   UNL     1       0.960   9.696  19.434  0.00  0.00    +0.000 S 
ATOM     17  H   UNL     1       2.028   6.383  20.249  0.00  0.00    +0.000 HD
ENDBRANCH   5   7
BRANCH   1  18
ATOM     18  S   UNL     1       6.373   4.781  15.517  0.00  0.00    +0.000 S 
ATOM     19  O   UNL     1       7.570   4.521  16.285  0.00  0.00    +0.000 OA
ATOM     20  O   UNL     1       6.228   5.952  14.687  0.00  0.00    +0.000 OA
BRANCH  18  21
ATOM     21  N   UNL     1       6.051   3.420  14.549  0.00  0.00    +0.000 NA
ATOM     22  H   UNL     1       6.451   2.563  14.927  0.00  0.00    +0.000 HD
BRANCH  21  23
ATOM     23  C   UNL     1       6.379   3.620  13.144  0.00  0.00    +0.000 C 
BRANCH  23  25
ATOM     24  C   UNL     1       4.157   3.319  11.426  0.00  0.00    +0.000 C 
ATOM     25  C   UNL     1       5.183   3.458  12.219  0.00  0.00    +0.000 C 
ENDBRANCH  23  25
ENDBRANCH  21  23
ENDBRANCH  18  21
ENDBRANCH   1  18
TORSDOF 5
ENDMDL
MODEL 2
REMARK VINA RESULT:      -8.1      1.485      1.855
REMARK  Name = 
REMARK  7 active torsions:
REMARK  status: ('A' for Active; 'I' for Inactive)
REMARK    1  A    between atoms: C_2  and  C_3
REMARK    2  A    between atoms: C_3  and  N_4
REMARK    3  A    between atoms: N_4  and  S_5
REMARK    4  A    between atoms: S_5  and  C_8
REMARK    5  A    between atoms: C_12  and  C_13
REMARK    6  A    between atoms: C_18  and  C_19
REMARK    7  A    between atoms: C_20  and  C_21
REMARK                            x       y       z     vdW  Elec       q    Type
REMARK                         _______ _______ _______ _____ _____    ______ ____
ROOT
ATOM      1  C   UNL     1       5.129   5.265  17.208  0.00  0.00    +0.000 A 
ATOM      2  C   UNL     1       4.575   4.047  16.792  0.00  0.00    +0.000 A 
ATOM      3  C   UNL     1       3.315   3.684  17.255  0.00  0.00    +0.000 A 
ATOM      4  C   UNL     1       2.620   4.532  18.115  0.00  0.00    +0.000 A 
ATOM      5  C   UNL     1       3.160   5.767  18.535  0.00  0.00    +0.000 A 
ATOM      6  C   UNL     1       4.435   6.127  18.077  0.00  0.00    +0.000 A 
ENDROOT
BRANCH   5   7
ATOM      7  C   UNL     1       2.311   6.597  19.453  0.00  0.00    +0.000 C 
ATOM      8  O   UNL     1       1.809   6.007  20.411  0.00  0.00    +0.000 OA
ATOM      9  N   UNL     1       2.115   7.929  19.147  0.00  0.00    +0.000 N 
ATOM     10  C   UNL     1       1.369   8.802  19.916  0.00  0.00    +0.000 A 
ATOM     11  N   UNL     1       0.907   9.939  19.446  0.00  0.00    +0.000 NA
ATOM     12  C   UNL     1       0.142  10.577  20.421  0.00  0.00    +0.000 A 
ATOM     13  C   UNL     1      -0.587  11.825  20.078  0.00  0.00    +0.000 C 
ATOM     14  C   UNL     1       0.131   9.946  21.653  0.00  0.00    +0.000 A 
ATOM     15  C   UNL     1      -0.540  10.326  22.923  0.00  0.00    +0.000 C 
ATOM     16  S   UNL     1       1.058   8.514  21.569  0.00  0.00    +0.000 S 
ATOM     17  H   UNL     1       2.333   8.299  18.235  0.00  0.00    +0.000 HD
ENDBRANCH   5   7
BRANCH   1  18
ATOM     18  S   UNL     1       6.685   5.776  16.496  0.00  0.00    +0.000 S 
ATOM     19  O   UNL     1       7.676   4.800  16.894  0.00  0.00    +0.000 OA
ATOM     20  O   UNL     1       6.821   7.180  16.796  0.00  0.00    +0.000 OA
BRANCH  18  21
ATOM     21  N   UNL     1       6.431   5.629  14.820  0.00  0.00    +0.000 NA
ATOM     22  H   UNL     1       5.446   5.680  14.564  0.00  0.00    +0.000 HD
BRANCH  21  23
ATOM     23  C   UNL     1       7.105   4.479  14.233  0.00  0.00    +0.000 C 
BRANCH  23  25
ATOM     24  C   UNL     1       5.627   3.257  12.159  0.00  0.00    +0.000 C 
ATOM     25  C   UNL     1       6.309   3.822  13.117  0.00  0.00    +0.000 C 
ENDBRANCH  23  25
ENDBRANCH  21  23
ENDBRANCH  18  21
ENDBRANCH   1  18
TORSDOF 5
ENDMDL
MODEL 3
REMARK VINA RESULT:      -8.0      2.469      3.349
REMARK  Name = 
REMARK  7 active torsions:
REMARK  status: ('A' for Active; 'I' for Inactive)
REMARK    1  A    between atoms: C_2  and  C_3
REMARK    2  A    between atoms: C_3  and  N_4
REMARK    3  A    between atoms: N_4  and  S_5
REMARK    4  A    between atoms: S_5  and  C_8
REMARK    5  A    between atoms: C_12  and  C_13
REMARK    6  A    between atoms: C_18  and  C_19
REMARK    7  A    between atoms: C_20  and  C_21
REMARK                            x       y       z     vdW  Elec       q    Type
REMARK                         _______ _______ _______ _____ _____    ______ ____
ROOT
ATOM      1  C   UNL     1       4.727   5.176  17.069  0.00  0.00    +0.000 A 
ATOM      2  C   UNL     1       4.755   3.825  17.439  0.00  0.00    +0.000 A 
ATOM      3  C   UNL     1       4.004   3.406  18.531  0.00  0.00    +0.000 A 
ATOM      4  C   UNL     1       3.232   4.328  19.237  0.00  0.00    +0.000 A 
ATOM      5  C   UNL     1       3.185   5.690  18.871  0.00  0.00    +0.000 A 
ATOM      6  C   UNL     1       3.951   6.113  17.776  0.00  0.00    +0.000 A 
ENDROOT
BRANCH   5   7
ATOM      7  C   UNL     1       2.309   6.582  19.702  0.00  0.00    +0.000 C 
ATOM      8  O   UNL     1       1.807   6.070  20.704  0.00  0.00    +0.000 OA
ATOM      9  N   UNL     1       2.091   7.877  19.275  0.00  0.00    +0.000 N 
ATOM     10  C   UNL     1       1.319   8.799  19.954  0.00  0.00    +0.000 A 
ATOM     11  N   UNL     1       0.840   9.879  19.379  0.00  0.00    +0.000 NA
ATOM     12  C   UNL     1       0.050  10.587  20.285  0.00  0.00    +0.000 A 
ATOM     13  C   UNL     1      -0.698  11.784  19.823  0.00  0.00    +0.000 C 
ATOM     14  C   UNL     1       0.037  10.069  21.568  0.00  0.00    +0.000 A 
ATOM     15  C   UNL     1      -0.656  10.547  22.792  0.00  0.00    +0.000 C 
ATOM     16  S   UNL     1       0.994   8.655  21.623  0.00  0.00    +0.000 S 
ATOM     17  H   UNL     1       2.313   8.168  18.336  0.00  0.00    +0.000 HD
ENDBRANCH   5   7
BRANCH   1  18
ATOM     18  S   UNL     1       5.587   5.666  15.583  0.00  0.00    +0.000 S 
ATOM     19  O   UNL     1       5.092   6.975  15.216  0.00  0.00    +0.000 OA
ATOM     20  O   UNL     1       5.517   4.537  14.688  0.00  0.00    +0.000 OA
BRANCH  18  21
ATOM     21  N   UNL     1       7.204   5.827  16.085  0.00  0.00    +0.000 NA
ATOM     22  H   UNL     1       7.777   5.022  15.836  0.00  0.00    +0.000 HD
BRANCH  21  23
ATOM     23  C   UNL     1       7.340   6.200  17.486  0.00  0.00    +0.000 C 
BRANCH  23  25
ATOM     24  C   UNL     1       8.080   8.901  17.854  0.00  0.00    +0.000 C 
ATOM     25  C   UNL     1       7.738   7.654  17.685  0.00  0.00    +0.000 C 
ENDBRANCH  23  25
ENDBRANCH  21  23
ENDBRANCH  18  21
ENDBRANCH   1  18
TORSDOF 5
ENDMDL
MODEL 4
REMARK VINA RESULT:      -7.9      0.909      1.000
REMARK  Name = 
REMARK  7 active torsions:
REMARK  status: ('A' for Active; 'I' for Inactive)
REMARK    1  A    between atoms: C_2  and  C_3
REMARK    2  A    between atoms: C_3  and  N_4
REMARK    3  A    between atoms: N_4  and  S_5
REMARK    4  A    between atoms: S_5  and  C_8
REMARK    5  A    between atoms: C_12  and  C_13
REMARK    6  A    between atoms: C_18  and  C_19
REMARK    7  A    between atoms: C_20  and  C_21
REMARK                            x       y       z     vdW  Elec       q    Type
REMARK                         _______ _______ _______ _____ _____    ______ ____
ROOT
ATOM      1  C   UNL     1       5.088   5.140  17.375  0.00  0.00    +0.000 A 
ATOM      2  C   UNL     1       4.283   4.006  17.206  0.00  0.00    +0.000 A 
ATOM      3  C   UNL     1       2.930   4.084  17.513  0.00  0.00    +0.000 A 
ATOM      4  C   UNL     1       2.391   5.283  17.976  0.00  0.00    +0.000 A 
ATOM      5  C   UNL     1       3.185   6.438  18.142  0.00  0.00    +0.000 A 
ATOM      6  C   UNL     1       4.552   6.355  17.843  0.00  0.00    +0.000 A 
ENDROOT
BRANCH   5   7
ATOM      7  C   UNL     1       2.487   7.671  18.636  0.00  0.00    +0.000 C 
ATOM      8  O   UNL     1       2.676   8.700  17.986  0.00  0.00    +0.000 OA
ATOM      9  N   UNL     1       1.730   7.585  19.788  0.00  0.00    +0.000 N 
ATOM     10  C   UNL     1       1.029   8.640  20.338  0.00  0.00    +0.000 A 
ATOM     11  N   UNL     1       0.617   8.641  21.586  0.00  0.00    +0.000 NA
ATOM     12  C   UNL     1      -0.002   9.855  21.879  0.00  0.00    +0.000 A 
ATOM     13  C   UNL     1      -0.442  10.135  23.270  0.00  0.00    +0.000 C 
ATOM     14  C   UNL     1      -0.137  10.711  20.800  0.00  0.00    +0.000 A 
ATOM     15  C   UNL     1      -0.751  12.061  20.712  0.00  0.00    +0.000 C 
ATOM     16  S   UNL     1       0.563   9.998  19.415  0.00  0.00    +0.000 S 
ATOM     17  H   UNL     1       1.809   6.799  20.414  0.00  0.00    +0.000 HD
ENDBRANCH   5   7
BRANCH   1  18
ATOM     18  S   UNL     1       6.791   5.059  16.846  0.00  0.00    +0.000 S 
ATOM     19  O   UNL     1       7.538   4.423  17.910  0.00  0.00    +0.000 OA
ATOM     20  O   UNL     1       7.121   6.374  16.353  0.00  0.00    +0.000 OA
BRANCH  18  21
ATOM     21  N   UNL     1       6.752   4.003  15.513  0.00  0.00    +0.000 NA
ATOM     22  H   UNL     1       7.443   3.258  15.580  0.00  0.00    +0.000 HD
BRANCH  21  23
ATOM     23  C   UNL     1       6.789   4.691  14.230  0.00  0.00    +0.000 C 
BRANCH  23  25
ATOM     24  C   UNL     1       5.761   3.143  12.103  0.00  0.00    +0.000 C 
ATOM     25  C   UNL     1       6.236   3.857  13.085  0.00  0.00    +0.000 C 
ENDBRANCH  23  25
ENDBRANCH  21  23
ENDBRANCH  18  21
ENDBRANCH   1  18
TORSDOF 5
ENDMDL
MODEL 5
REMARK VINA RESULT:      -7.9      2.349      3.701
REMARK  Name = 
REMARK  7 active torsions:
REMARK  status: ('A' for Active; 'I' for Inactive)
REMARK    1  A    between atoms: C_2  and  C_3
REMARK    2  A    between atoms: C_3  and  N_4
REMARK    3  A    between atoms: N_4  and  S_5
REMARK    4  A    between atoms: S_5  and  C_8
REMARK    5  A    between atoms: C_12  and  C_13
REMARK    6  A    between atoms: C_18  and  C_19
REMARK    7  A    between atoms: C_20  and  C_21
REMARK                            x       y       z     vdW  Elec       q    Type
REMARK                         _______ _______ _______ _____ _____    ______ ____
ROOT
ATOM      1  C   UNL     1       5.263   4.886  17.163  0.00  0.00    +0.000 A 
ATOM      2  C   UNL     1       4.632   3.732  16.682  0.00  0.00    +0.000 A 
ATOM      3  C   UNL     1       3.322   3.467  17.063  0.00  0.00    +0.000 A 
ATOM      4  C   UNL     1       2.652   4.351  17.907  0.00  0.00    +0.000 A 
ATOM      5  C   UNL     1       3.269   5.524  18.392  0.00  0.00    +0.000 A 
ATOM      6  C   UNL     1       4.595   5.784  18.016  0.00  0.00    +0.000 A 
ENDROOT
BRANCH   5   7
ATOM      7  C   UNL     1       2.442   6.402  19.285  0.00  0.00    +0.000 C 
ATOM      8  O   UNL     1       1.966   5.864  20.286  0.00  0.00    +0.000 OA
ATOM      9  N   UNL     1       2.235   7.715  18.912  0.00  0.00    +0.000 N 
ATOM     10  C   UNL     1       1.507   8.627  19.651  0.00  0.00    +0.000 A 
ATOM     11  N   UNL     1       1.029   9.736  19.133  0.00  0.00    +0.000 NA
ATOM     12  C   UNL     1       0.287  10.425  20.091  0.00  0.00    +0.000 A 
ATOM     13  C   UNL     1      -0.453  11.652  19.699  0.00  0.00    +0.000 C 
ATOM     14  C   UNL     1       0.310   9.863  21.355  0.00  0.00    +0.000 A 
ATOM     15  C   UNL     1      -0.329  10.310  22.619  0.00  0.00    +0.000 C 
ATOM     16  S   UNL     1       1.239   8.429  21.325  0.00  0.00    +0.000 S 
ATOM     17  H   UNL     1       2.429   8.035  17.977  0.00  0.00    +0.000 HD
ENDBRANCH   5   7
BRANCH   1  18
ATOM     18  S   UNL     1       6.895   5.279  16.553  0.00  0.00    +0.000 S 
ATOM     19  O   UNL     1       6.871   5.087  15.119  0.00  0.00    +0.000 OA
ATOM     20  O   UNL     1       7.821   4.579  17.410  0.00  0.00    +0.000 OA
BRANCH  18  21
ATOM     21  N   UNL     1       7.056   6.942  16.869  0.00  0.00    +0.000 NA
ATOM     22  H   UNL     1       7.374   7.468  16.057  0.00  0.00    +0.000 HD
BRANCH  21  23
ATOM     23  C   UNL     1       7.836   7.230  18.065  0.00  0.00    +0.000 C 
BRANCH  23  25
ATOM     24  C   UNL     1       8.693   9.917  18.219  0.00  0.00    +0.000 C 
ATOM     25  C   UNL     1       8.297   8.676  18.148  0.00  0.00    +0.000 C 
ENDBRANCH  23  25
ENDBRANCH  21  23
ENDBRANCH  18  21
ENDBRANCH   1  18
TORSDOF 5
ENDMDL
MODEL 6
REMARK VINA RESULT:      -7.7      2.053      2.819
REMARK  Name = 
REMARK  7 active torsions:
REMARK  status: ('A' for Active; 'I' for Inactive)
REMARK    1  A    between atoms: C_2  and  C_3
REMARK    2  A    between atoms: C_3  and  N_4
REMARK    3  A    between atoms: N_4  and  S_5
REMARK    4  A    between atoms: S_5  and  C_8
REMARK    5  A    between atoms: C_12  and  C_13
REMARK    6  A    between atoms: C_18  and  C_19
REMARK    7  A    between atoms: C_20  and  C_21
REMARK                            x       y       z     vdW  Elec       q    Type
REMARK                         _______ _______ _______ _____ _____    ______ ____
ROOT
ATOM      1  C   UNL     1       4.886   4.878  17.063  0.00  0.00    +0.000 A 
ATOM      2  C   UNL     1       4.364   3.684  17.578  0.00  0.00    +0.000 A 
ATOM      3  C   UNL     1       3.280   3.739  18.447  0.00  0.00    +0.000 A 
ATOM      4  C   UNL     1       2.725   4.972  18.787  0.00  0.00    +0.000 A 
ATOM      5  C   UNL     1       3.232   6.182  18.268  0.00  0.00    +0.000 A 
ATOM      6  C   UNL     1       4.332   6.126  17.402  0.00  0.00    +0.000 A 
ENDROOT
BRANCH   5   7
ATOM      7  C   UNL     1       2.542   7.443  18.700  0.00  0.00    +0.000 C 
ATOM      8  O   UNL     1       2.756   8.443  18.013  0.00  0.00    +0.000 OA
ATOM      9  N   UNL     1       1.764   7.412  19.840  0.00  0.00    +0.000 N 
ATOM     10  C   UNL     1       1.067   8.497  20.334  0.00  0.00    +0.000 A 
ATOM     11  N   UNL     1       0.633   8.554  21.574  0.00  0.00    +0.000 NA
ATOM     12  C   UNL     1       0.024   9.786  21.807  0.00  0.00    +0.000 A 
ATOM     13  C   UNL     1      -0.437  10.126  23.177  0.00  0.00    +0.000 C 
ATOM     14  C   UNL     1      -0.080  10.600  20.692  0.00  0.00    +0.000 A 
ATOM     15  C   UNL     1      -0.674  11.952  20.540  0.00  0.00    +0.000 C 
ATOM     16  S   UNL     1       0.635   9.823  19.350  0.00  0.00    +0.000 S 
ATOM     17  H   UNL     1       1.820   6.651  20.498  0.00  0.00    +0.000 HD
ENDBRANCH   5   7
BRANCH   1  18
ATOM     18  S   UNL     1       6.188   4.778  15.844  0.00  0.00    +0.000 S 
ATOM     19  O   UNL     1       6.172   6.019  15.101  0.00  0.00    +0.000 OA
ATOM     20  O   UNL     1       6.039   3.493  15.203  0.00  0.00    +0.000 OA
BRANCH  18  21
ATOM     21  N   UNL     1       7.611   4.728  16.774  0.00  0.00    +0.000 NA
ATOM     22  H   UNL     1       7.972   3.783  16.892  0.00  0.00    +0.000 HD
BRANCH  21  23
ATOM     23  C   UNL     1       7.503   5.451  18.034  0.00  0.00    +0.000 C 
BRANCH  23  25
ATOM     24  C   UNL     1       7.951   8.227  17.769  0.00  0.00    +0.000 C 
ATOM     25  C   UNL     1       7.744   6.945  17.892  0.00  0.00    +0.000 C 
ENDBRANCH  23  25
ENDBRANCH  21  23
ENDBRANCH  18  21
ENDBRANCH   1  18
TORSDOF 5
ENDMDL
MODEL 7
REMARK VINA RESULT:      -7.4      3.360      8.447
REMARK  Name = 
REMARK  7 active torsions:
REMARK  status: ('A' for Active; 'I' for Inactive)
REMARK    1  A    between atoms: C_2  and  C_3
REMARK    2  A    between atoms: C_3  and  N_4
REMARK    3  A    between atoms: N_4  and  S_5
REMARK    4  A    between atoms: S_5  and  C_8
REMARK    5  A    between atoms: C_12  and  C_13
REMARK    6  A    between atoms: C_18  and  C_19
REMARK    7  A    between atoms: C_20  and  C_21
REMARK                            x       y       z     vdW  Elec       q    Type
REMARK                         _______ _______ _______ _____ _____    ______ ____
ROOT
ATOM      1  C   UNL     1       0.003  11.251  19.417  0.00  0.00    +0.000 A 
ATOM      2  C   UNL     1      -0.257  10.929  20.756  0.00  0.00    +0.000 A 
ATOM      3  C   UNL     1       0.257   9.749  21.281  0.00  0.00    +0.000 A 
ATOM      4  C   UNL     1       1.026   8.908  20.477  0.00  0.00    +0.000 A 
ATOM      5  C   UNL     1       1.306   9.223  19.129  0.00  0.00    +0.000 A 
ATOM      6  C   UNL     1       0.777  10.407  18.598  0.00  0.00    +0.000 A 
ENDROOT
BRANCH   5   7
ATOM      7  C   UNL     1       2.153   8.244  18.370  0.00  0.00    +0.000 C 
ATOM      8  O   UNL     1       2.629   8.647  17.308  0.00  0.00    +0.000 OA
ATOM      9  N   UNL     1       2.305   6.969  18.878  0.00  0.00    +0.000 N 
ATOM     10  C   UNL     1       3.068   5.983  18.285  0.00  0.00    +0.000 A 
ATOM     11  N   UNL     1       2.924   4.709  18.574  0.00  0.00    +0.000 NA
ATOM     12  C   UNL     1       3.778   3.944  17.780  0.00  0.00    +0.000 A 
ATOM     13  C   UNL     1       3.704   2.462  17.844  0.00  0.00    +0.000 C 
ATOM     14  C   UNL     1       4.631   4.678  16.975  0.00  0.00    +0.000 A 
ATOM     15  C   UNL     1       5.681   4.230  16.024  0.00  0.00    +0.000 C 
ATOM     16  S   UNL     1       4.324   6.345  17.188  0.00  0.00    +0.000 S 
ATOM     17  H   UNL     1       1.703   6.615  19.605  0.00  0.00    +0.000 HD
ENDBRANCH   5   7
BRANCH   1  18
ATOM     18  S   UNL     1      -0.549  12.834  18.802  0.00  0.00    +0.000 S 
ATOM     19  O   UNL     1       0.633  13.626  18.545  0.00  0.00    +0.000 OA
ATOM     20  O   UNL     1      -1.590  13.271  19.700  0.00  0.00    +0.000 OA
BRANCH  18  21
ATOM     21  N   UNL     1      -1.278  12.458  17.312  0.00  0.00    +0.000 NA
ATOM     22  H   UNL     1      -1.499  13.286  16.761  0.00  0.00    +0.000 HD
BRANCH  21  23
ATOM     23  C   UNL     1      -2.407  11.546  17.435  0.00  0.00    +0.000 C 
BRANCH  23  25
ATOM     24  C   UNL     1      -2.931  10.095  15.069  0.00  0.00    +0.000 C 
ATOM     25  C   UNL     1      -2.690  10.765  16.161  0.00  0.00    +0.000 C 
ENDBRANCH  23  25
ENDBRANCH  21  23
ENDBRANCH  18  21
ENDBRANCH   1  18
TORSDOF 5
ENDMDL
MODEL 8
REMARK VINA RESULT:      -7.2      2.863      3.553
REMARK  Name = 
REMARK  7 active torsions:
REMARK  status: ('A' for Active; 'I' for Inactive)
REMARK    1  A    between atoms: C_2  and  C_3
REMARK    2  A    between atoms: C_3  and  N_4
REMARK    3  A    between atoms: N_4  and  S_5
REMARK    4  A    between atoms: S_5  and  C_8
REMARK    5  A    between atoms: C_12  and  C_13
REMARK    6  A    between atoms: C_18  and  C_19
REMARK    7  A    between atoms: C_20  and  C_21
REMARK                            x       y       z     vdW  Elec       q    Type
REMARK                         _______ _______ _______ _____ _____    ______ ____
ROOT
ATOM      1  C   UNL     1       3.570   4.910  18.887  0.00  0.00    +0.000 A 
ATOM      2  C   UNL     1       3.021   4.211  19.970  0.00  0.00    +0.000 A 
ATOM      3  C   UNL     1       2.130   4.862  20.815  0.00  0.00    +0.000 A 
ATOM      4  C   UNL     1       1.789   6.192  20.573  0.00  0.00    +0.000 A 
ATOM      5  C   UNL     1       2.325   6.908  19.480  0.00  0.00    +0.000 A 
ATOM      6  C   UNL     1       3.232   6.253  18.636  0.00  0.00    +0.000 A 
ENDROOT
BRANCH   5   7
ATOM      7  C   UNL     1       1.873   8.329  19.319  0.00  0.00    +0.000 C 
ATOM      8  O   UNL     1       2.231   8.900  18.288  0.00  0.00    +0.000 OA
ATOM      9  N   UNL     1       1.138   8.908  20.335  0.00  0.00    +0.000 N 
ATOM     10  C   UNL     1       0.651  10.201  20.303  0.00  0.00    +0.000 A 
ATOM     11  N   UNL     1       0.274  10.840  21.387  0.00  0.00    +0.000 NA
ATOM     12  C   UNL     1      -0.109  12.140  21.060  0.00  0.00    +0.000 A 
ATOM     13  C   UNL     1      -0.461  13.093  22.144  0.00  0.00    +0.000 C 
ATOM     14  C   UNL     1      -0.109  12.420  19.705  0.00  0.00    +0.000 A 
ATOM     15  C   UNL     1      -0.470  13.664  18.979  0.00  0.00    +0.000 C 
ATOM     16  S   UNL     1       0.420  11.046  18.839  0.00  0.00    +0.000 S 
ATOM     17  H   UNL     1       1.086   8.493  21.252  0.00  0.00    +0.000 HD
ENDBRANCH   5   7
BRANCH   1  18
ATOM     18  S   UNL     1       4.603   4.018  17.736  0.00  0.00    +0.000 S 
ATOM     19  O   UNL     1       4.637   4.785  16.510  0.00  0.00    +0.000 OA
ATOM     20  O   UNL     1       4.154   2.647  17.775  0.00  0.00    +0.000 OA
BRANCH  18  21
ATOM     21  N   UNL     1       6.146   4.076  18.448  0.00  0.00    +0.000 NA
ATOM     22  H   UNL     1       6.147   4.546  19.352  0.00  0.00    +0.000 HD
BRANCH  21  23
ATOM     23  C   UNL     1       7.177   4.581  17.551  0.00  0.00    +0.000 C 
BRANCH  23  25
ATOM     24  C   UNL     1       7.576   7.369  17.765  0.00  0.00    +0.000 C 
ATOM     25  C   UNL     1       7.392   6.081  17.667  0.00  0.00    +0.000 C 
ENDBRANCH  23  25
ENDBRANCH  21  23
ENDBRANCH  18  21
ENDBRANCH   1  18
TORSDOF 5
ENDMDL
MODEL 9
REMARK VINA RESULT:      -7.2      3.080      3.997
REMARK  Name = 
REMARK  7 active torsions:
REMARK  status: ('A' for Active; 'I' for Inactive)
REMARK    1  A    between atoms: C_2  and  C_3
REMARK    2  A    between atoms: C_3  and  N_4
REMARK    3  A    between atoms: N_4  and  S_5
REMARK    4  A    between atoms: S_5  and  C_8
REMARK    5  A    between atoms: C_12  and  C_13
REMARK    6  A    between atoms: C_18  and  C_19
REMARK    7  A    between atoms: C_20  and  C_21
REMARK                            x       y       z     vdW  Elec       q    Type
REMARK                         _______ _______ _______ _____ _____    ______ ____
ROOT
ATOM      1  C   UNL     1       4.012   5.360  18.552  0.00  0.00    +0.000 A 
ATOM      2  C   UNL     1       4.395   5.961  17.346  0.00  0.00    +0.000 A 
ATOM      3  C   UNL     1       3.880   7.209  17.017  0.00  0.00    +0.000 A 
ATOM      4  C   UNL     1       2.999   7.848  17.889  0.00  0.00    +0.000 A 
ATOM      5  C   UNL     1       2.611   7.261  19.113  0.00  0.00    +0.000 A 
ATOM      6  C   UNL     1       3.123   5.997  19.437  0.00  0.00    +0.000 A 
ENDROOT
BRANCH   5   7
ATOM      7  C   UNL     1       1.666   8.051  19.970  0.00  0.00    +0.000 C 
ATOM      8  O   UNL     1       1.327   7.526  21.032  0.00  0.00    +0.000 OA
ATOM      9  N   UNL     1       1.213   9.269  19.504  0.00  0.00    +0.000 N 
ATOM     10  C   UNL     1       0.355  10.098  20.201  0.00  0.00    +0.000 A 
ATOM     11  N   UNL     1      -0.331  11.055  19.619  0.00  0.00    +0.000 NA
ATOM     12  C   UNL     1      -1.155  11.681  20.552  0.00  0.00    +0.000 A 
ATOM     13  C   UNL     1      -2.117  12.719  20.098  0.00  0.00    +0.000 C 
ATOM     14  C   UNL     1      -0.992  11.243  21.854  0.00  0.00    +0.000 A 
ATOM     15  C   UNL     1      -1.662  11.677  23.107  0.00  0.00    +0.000 C 
ATOM     16  S   UNL     1       0.180  10.001  21.896  0.00  0.00    +0.000 S 
ATOM     17  H   UNL     1       1.317   9.537  18.538  0.00  0.00    +0.000 HD
ENDBRANCH   5   7
BRANCH   1  18
ATOM     18  S   UNL     1       4.790   3.822  19.018  0.00  0.00    +0.000 S 
ATOM     19  O   UNL     1       4.167   3.385  20.248  0.00  0.00    +0.000 OA
ATOM     20  O   UNL     1       6.212   4.043  18.910  0.00  0.00    +0.000 OA
BRANCH  18  21
ATOM     21  N   UNL     1       4.340   2.747  17.779  0.00  0.00    +0.000 NA
ATOM     22  H   UNL     1       3.984   3.225  16.952  0.00  0.00    +0.000 HD
BRANCH  21  23
ATOM     23  C   UNL     1       3.461   1.678  18.232  0.00  0.00    +0.000 C 
BRANCH  23  25
ATOM     24  C   UNL     1       0.811   2.536  18.702  0.00  0.00    +0.000 C 
ATOM     25  C   UNL     1       2.034   2.140  18.485  0.00  0.00    +0.000 C 
ENDBRANCH  23  25
ENDBRANCH  21  23
ENDBRANCH  18  21
ENDBRANCH   1  18
TORSDOF 5
ENDMDL
