MODEL 1
REMARK VINA RESULT:      -8.1      0.000      0.000
REMARK  Name = 
REMARK  5 active torsions:
REMARK  status: ('A' for Active; 'I' for Inactive)
REMARK    1  A    between atoms: C_1  and  C_2
REMARK    2  A    between atoms: C_3  and  C_4
REMARK    3  A    between atoms: C_6  and  C_7
REMARK    4  A    between atoms: C_12  and  C_13
REMARK    5  A    between atoms: N_24  and  C_25
REMARK                            x       y       z     vdW  Elec       q    Type
REMARK                         _______ _______ _______ _____ _____    ______ ____
ROOT
ATOM      1  C   UNL     1       1.510   8.736  18.759  0.00  0.00    +0.000 A 
ATOM      2  C   UNL     1       2.362   8.418  17.726  0.00  0.00    +0.000 A 
ATOM      3  C   UNL     1       3.190   7.376  18.218  0.00  0.00    +0.000 A 
ATOM      4  N   UNL     1       2.851   7.060  19.480  0.00  0.00    +0.000 NA
ATOM      5  N   UNL     1       1.840   7.888  19.771  0.00  0.00    +0.000 N 
ATOM      6  H   UNL     1       1.429   7.807  20.690  0.00  0.00    +0.000 HD
ENDROOT
BRANCH   1   9
ATOM      7  C   UNL     1       1.055  11.356  20.796  0.00  0.00    +0.000 C 
ATOM      8  C   UNL     1       0.298  10.849  19.623  0.00  0.00    +0.000 A 
ATOM      9  C   UNL     1       0.463   9.784  18.756  0.00  0.00    +0.000 A 
ATOM     10  C   UNL     1      -0.581   9.914  17.814  0.00  0.00    +0.000 A 
ATOM     11  N   UNL     1      -1.372  10.954  18.070  0.00  0.00    +0.000 NA
ATOM     12  N   UNL     1      -0.823  11.508  19.164  0.00  0.00    +0.000 N 
ATOM     13  C   UNL     1      -1.410  12.714  19.703  0.00  0.00    +0.000 C 
ENDBRANCH   1   9
BRANCH   3  14
ATOM     14  C   UNL     1       4.311   6.731  17.514  0.00  0.00    +0.000 C 
ATOM     15  O   UNL     1       5.068   7.363  16.783  0.00  0.00    +0.000 OA
ATOM     16  N   UNL     1       4.450   5.373  17.743  0.00  0.00    +0.000 N 
ATOM     17  C   UNL     1       5.504   4.527  17.205  0.00  0.00    +0.000 C 
ATOM     18  C   UNL     1       4.421   3.562  16.735  0.00  0.00    +0.000 C 
ATOM     19  C   UNL     1       3.377   4.388  17.503  0.00  0.00    +0.000 C 
BRANCH  19  20
ATOM     20  C   UNL     1       2.690   3.771  18.795  0.00  0.00    +0.000 A 
ATOM     21  C   UNL     1       3.447   3.251  19.867  0.00  0.00    +0.000 A 
ATOM     22  C   UNL     1       2.850   2.802  21.046  0.00  0.00    +0.000 A 
ATOM     23  C   UNL     1       1.471   2.853  21.173  0.00  0.00    +0.000 A 
ATOM     24  F   UNL     1       0.898   2.454  22.315  0.00  0.00    +0.000 F 
ATOM     25  C   UNL     1       0.680   3.325  20.137  0.00  0.00    +0.000 A 
ATOM     26  C   UNL     1       1.287   3.775  18.960  0.00  0.00    +0.000 A 
ENDBRANCH  19  20
ENDBRANCH   3  14
TORSDOF 3
ENDMDL
MODEL 2
REMARK VINA RESULT:      -8.1      0.783      1.273
REMARK  Name = 
REMARK  5 active torsions:
REMARK  status: ('A' for Active; 'I' for Inactive)
REMARK    1  A    between atoms: C_1  and  C_2
REMARK    2  A    between atoms: C_3  and  C_4
REMARK    3  A    between atoms: C_6  and  C_7
REMARK    4  A    between atoms: C_12  and  C_13
REMARK    5  A    between atoms: N_24  and  C_25
REMARK                            x       y       z     vdW  Elec       q    Type
REMARK                         _______ _______ _______ _____ _____    ______ ____
ROOT
ATOM      1  C   UNL     1       1.650   8.923  18.772  0.00  0.00    +0.000 A 
ATOM      2  C   UNL     1       2.453   8.566  17.712  0.00  0.00    +0.000 A 
ATOM      3  C   UNL     1       3.147   7.402  18.131  0.00  0.00    +0.000 A 
ATOM      4  N   UNL     1       2.776   7.055  19.376  0.00  0.00    +0.000 NA
ATOM      5  N   UNL     1       1.877   7.981  19.728  0.00  0.00    +0.000 N 
ATOM      6  H   UNL     1       1.463   7.896  20.644  0.00  0.00    +0.000 HD
ENDROOT
BRANCH   1   9
ATOM      7  C   UNL     1       2.267  12.185  18.321  0.00  0.00    +0.000 C 
ATOM      8  C   UNL     1       1.034  11.431  18.662  0.00  0.00    +0.000 A 
ATOM      9  C   UNL     1       0.741  10.090  18.843  0.00  0.00    +0.000 A 
ATOM     10  C   UNL     1      -0.649  10.049  19.086  0.00  0.00    +0.000 A 
ATOM     11  N   UNL     1      -1.202  11.261  19.095  0.00  0.00    +0.000 NA
ATOM     12  N   UNL     1      -0.171  12.081  18.834  0.00  0.00    +0.000 N 
ATOM     13  C   UNL     1      -0.421  13.500  18.719  0.00  0.00    +0.000 C 
ENDBRANCH   1   9
BRANCH   3  14
ATOM     14  C   UNL     1       4.177   6.668  17.378  0.00  0.00    +0.000 C 
ATOM     15  O   UNL     1       4.893   7.221  16.549  0.00  0.00    +0.000 OA
ATOM     16  N   UNL     1       4.281   5.321  17.677  0.00  0.00    +0.000 N 
ATOM     17  C   UNL     1       5.250   4.398  17.106  0.00  0.00    +0.000 C 
ATOM     18  C   UNL     1       4.093   3.457  16.788  0.00  0.00    +0.000 C 
ATOM     19  C   UNL     1       3.152   4.372  17.588  0.00  0.00    +0.000 C 
BRANCH  19  20
ATOM     20  C   UNL     1       2.555   3.862  18.967  0.00  0.00    +0.000 A 
ATOM     21  C   UNL     1       1.166   3.835  19.216  0.00  0.00    +0.000 A 
ATOM     22  C   UNL     1       0.633   3.293  20.386  0.00  0.00    +0.000 A 
ATOM     23  C   UNL     1       1.486   2.772  21.345  0.00  0.00    +0.000 A 
ATOM     24  F   UNL     1       0.977   2.221  22.454  0.00  0.00    +0.000 F 
ATOM     25  C   UNL     1       2.860   2.803  21.165  0.00  0.00    +0.000 A 
ATOM     26  C   UNL     1       3.386   3.347  19.988  0.00  0.00    +0.000 A 
ENDBRANCH  19  20
ENDBRANCH   3  14
TORSDOF 3
ENDMDL
MODEL 3
REMARK VINA RESULT:      -8.1      0.492      1.265
REMARK  Name = 
REMARK  5 active torsions:
REMARK  status: ('A' for Active; 'I' for Inactive)
REMARK    1  A    between atoms: C_1  and  C_2
REMARK    2  A    between atoms: C_3  and  C_4
REMARK    3  A    between atoms: C_6  and  C_7
REMARK    4  A    between atoms: C_12  and  C_13
REMARK    5  A    between atoms: N_24  and  C_25
REMARK                            x       y       z     vdW  Elec       q    Type
REMARK                         _______ _______ _______ _____ _____    ______ ____
ROOT
ATOM      1  C   UNL     1       1.631   8.767  18.982  0.00  0.00    +0.000 A 
ATOM      2  C   UNL     1       2.434   8.497  17.896  0.00  0.00    +0.000 A 
ATOM      3  C   UNL     1       3.133   7.307  18.223  0.00  0.00    +0.000 A 
ATOM      4  N   UNL     1       2.766   6.862  19.437  0.00  0.00    +0.000 NA
ATOM      5  N   UNL     1       1.863   7.755  19.862  0.00  0.00    +0.000 N 
ATOM      6  H   UNL     1       1.451   7.597  20.769  0.00  0.00    +0.000 HD
ENDROOT
BRANCH   1   9
ATOM      7  C   UNL     1      -1.145   9.593  17.299  0.00  0.00    +0.000 C 
ATOM      8  C   UNL     1      -0.418  10.239  18.421  0.00  0.00    +0.000 A 
ATOM      9  C   UNL     1       0.718   9.922  19.145  0.00  0.00    +0.000 A 
ATOM     10  C   UNL     1       0.821  10.933  20.125  0.00  0.00    +0.000 A 
ATOM     11  N   UNL     1      -0.145  11.844  20.023  0.00  0.00    +0.000 NA
ATOM     12  N   UNL     1      -0.885  11.406  18.991  0.00  0.00    +0.000 N 
ATOM     13  C   UNL     1      -2.072  12.143  18.621  0.00  0.00    +0.000 C 
ENDBRANCH   1   9
BRANCH   3  14
ATOM     14  C   UNL     1       4.165   6.638  17.414  0.00  0.00    +0.000 C 
ATOM     15  O   UNL     1       4.875   7.256  16.626  0.00  0.00    +0.000 OA
ATOM     16  N   UNL     1       4.277   5.272  17.610  0.00  0.00    +0.000 N 
ATOM     17  C   UNL     1       5.250   4.401  16.968  0.00  0.00    +0.000 C 
ATOM     18  C   UNL     1       4.097   3.480  16.583  0.00  0.00    +0.000 C 
ATOM     19  C   UNL     1       3.154   4.326  17.453  0.00  0.00    +0.000 C 
BRANCH  19  20
ATOM     20  C   UNL     1       2.564   3.710  18.792  0.00  0.00    +0.000 A 
ATOM     21  C   UNL     1       3.399   3.229  19.824  0.00  0.00    +0.000 A 
ATOM     22  C   UNL     1       2.887   2.781  21.042  0.00  0.00    +0.000 A 
ATOM     23  C   UNL     1       1.517   2.796  21.252  0.00  0.00    +0.000 A 
ATOM     24  F   UNL     1       1.025   2.398  22.433  0.00  0.00    +0.000 F 
ATOM     25  C   UNL     1       0.652   3.229  20.259  0.00  0.00    +0.000 A 
ATOM     26  C   UNL     1       1.174   3.678  19.042  0.00  0.00    +0.000 A 
ENDBRANCH  19  20
ENDBRANCH   3  14
TORSDOF 3
ENDMDL
MODEL 4
REMARK VINA RESULT:      -8.0      3.113      4.486
REMARK  Name = 
REMARK  5 active torsions:
REMARK  status: ('A' for Active; 'I' for Inactive)
REMARK    1  A    between atoms: C_1  and  C_2
REMARK    2  A    between atoms: C_3  and  C_4
REMARK    3  A    between atoms: C_6  and  C_7
REMARK    4  A    between atoms: C_12  and  C_13
REMARK    5  A    between atoms: N_24  and  C_25
REMARK                            x       y       z     vdW  Elec       q    Type
REMARK                         _______ _______ _______ _____ _____    ______ ____
ROOT
ATOM      1  C   UNL     1       1.633   7.512  20.204  0.00  0.00    +0.000 A 
ATOM      2  C   UNL     1       1.402   6.203  20.567  0.00  0.00    +0.000 A 
ATOM      3  C   UNL     1       1.982   5.413  19.543  0.00  0.00    +0.000 A 
ATOM      4  N   UNL     1       2.554   6.194  18.610  0.00  0.00    +0.000 NA
ATOM      5  N   UNL     1       2.332   7.443  19.038  0.00  0.00    +0.000 N 
ATOM      6  H   UNL     1       2.695   8.195  18.471  0.00  0.00    +0.000 HD
ENDROOT
BRANCH   1   9
ATOM      7  C   UNL     1       0.168  10.312  19.092  0.00  0.00    +0.000 C 
ATOM      8  C   UNL     1       0.609   9.873  20.440  0.00  0.00    +0.000 A 
ATOM      9  C   UNL     1       1.203   8.725  20.936  0.00  0.00    +0.000 A 
ATOM     10  C   UNL     1       1.293   8.932  22.329  0.00  0.00    +0.000 A 
ATOM     11  N   UNL     1       0.827  10.124  22.700  0.00  0.00    +0.000 NA
ATOM     12  N   UNL     1       0.416  10.676  21.546  0.00  0.00    +0.000 N 
ATOM     13  C   UNL     1      -0.202  11.982  21.579  0.00  0.00    +0.000 C 
ENDBRANCH   1   9
BRANCH   3  14
ATOM     14  C   UNL     1       1.948   3.945  19.433  0.00  0.00    +0.000 C 
ATOM     15  O   UNL     1       0.954   3.294  19.742  0.00  0.00    +0.000 OA
ATOM     16  N   UNL     1       3.107   3.360  18.953  0.00  0.00    +0.000 N 
ATOM     17  C   UNL     1       3.301   1.939  18.709  0.00  0.00    +0.000 C 
ATOM     18  C   UNL     1       4.589   2.026  19.520  0.00  0.00    +0.000 C 
ATOM     19  C   UNL     1       4.437   3.555  19.564  0.00  0.00    +0.000 C 
BRANCH  19  20
ATOM     20  C   UNL     1       5.455   4.464  18.753  0.00  0.00    +0.000 A 
ATOM     21  C   UNL     1       5.375   4.608  17.352  0.00  0.00    +0.000 A 
ATOM     22  C   UNL     1       6.202   5.484  16.648  0.00  0.00    +0.000 A 
ATOM     23  C   UNL     1       7.143   6.233  17.337  0.00  0.00    +0.000 A 
ATOM     24  F   UNL     1       7.915   7.099  16.669  0.00  0.00    +0.000 F 
ATOM     25  C   UNL     1       7.284   6.106  18.710  0.00  0.00    +0.000 A 
ATOM     26  C   UNL     1       6.448   5.227  19.407  0.00  0.00    +0.000 A 
ENDBRANCH  19  20
ENDBRANCH   3  14
TORSDOF 3
ENDMDL
MODEL 5
REMARK VINA RESULT:      -7.8      0.454      1.060
REMARK  Name = 
REMARK  5 active torsions:
REMARK  status: ('A' for Active; 'I' for Inactive)
REMARK    1  A    between atoms: C_1  and  C_2
REMARK    2  A    between atoms: C_3  and  C_4
REMARK    3  A    between atoms: C_6  and  C_7
REMARK    4  A    between atoms: C_12  and  C_13
REMARK    5  A    between atoms: N_24  and  C_25
REMARK                            x       y       z     vdW  Elec       q    Type
REMARK                         _______ _______ _______ _____ _____    ______ ____
ROOT
ATOM      1  C   UNL     1       1.379   8.816  18.954  0.00  0.00    +0.000 A 
ATOM      2  C   UNL     1       2.114   8.450  17.848  0.00  0.00    +0.000 A 
ATOM      3  C   UNL     1       2.998   7.435  18.295  0.00  0.00    +0.000 A 
ATOM      4  N   UNL     1       2.804   7.180  19.600  0.00  0.00    +0.000 NA
ATOM      5  N   UNL     1       1.826   8.019  19.963  0.00  0.00    +0.000 N 
ATOM      6  H   UNL     1       1.520   7.982  20.924  0.00  0.00    +0.000 HD
ENDROOT
BRANCH   1   9
ATOM      7  C   UNL     1       0.311  10.666  21.535  0.00  0.00    +0.000 C 
ATOM      8  C   UNL     1      -0.093  10.600  20.108  0.00  0.00    +0.000 A 
ATOM      9  C   UNL     1       0.332   9.862  19.018  0.00  0.00    +0.000 A 
ATOM     10  C   UNL     1      -0.434  10.339  17.932  0.00  0.00    +0.000 A 
ATOM     11  N   UNL     1      -1.303  11.281  18.295  0.00  0.00    +0.000 NA
ATOM     12  N   UNL     1      -1.080  11.427  19.611  0.00  0.00    +0.000 N 
ATOM     13  C   UNL     1      -1.831  12.425  20.339  0.00  0.00    +0.000 C 
ENDBRANCH   1   9
BRANCH   3  14
ATOM     14  C   UNL     1       4.038   6.758  17.502  0.00  0.00    +0.000 C 
ATOM     15  O   UNL     1       4.715   7.358  16.673  0.00  0.00    +0.000 OA
ATOM     16  N   UNL     1       4.199   5.409  17.766  0.00  0.00    +0.000 N 
ATOM     17  C   UNL     1       5.189   4.538  17.153  0.00  0.00    +0.000 C 
ATOM     18  C   UNL     1       4.062   3.561  16.835  0.00  0.00    +0.000 C 
ATOM     19  C   UNL     1       3.105   4.421  17.677  0.00  0.00    +0.000 C 
BRANCH  19  20
ATOM     20  C   UNL     1       2.557   3.856  19.056  0.00  0.00    +0.000 A 
ATOM     21  C   UNL     1       1.184   3.879  19.379  0.00  0.00    +0.000 A 
ATOM     22  C   UNL     1       0.687   3.292  20.544  0.00  0.00    +0.000 A 
ATOM     23  C   UNL     1       1.563   2.673  21.422  0.00  0.00    +0.000 A 
ATOM     24  F   UNL     1       1.086   2.080  22.523  0.00  0.00    +0.000 F 
ATOM     25  C   UNL     1       2.925   2.651  21.166  0.00  0.00    +0.000 A 
ATOM     26  C   UNL     1       3.414   3.240  19.995  0.00  0.00    +0.000 A 
ENDBRANCH  19  20
ENDBRANCH   3  14
TORSDOF 3
ENDMDL
MODEL 6
REMARK VINA RESULT:      -7.7      3.165      4.456
REMARK  Name = 
REMARK  5 active torsions:
REMARK  status: ('A' for Active; 'I' for Inactive)
REMARK    1  A    between atoms: C_1  and  C_2
REMARK    2  A    between atoms: C_3  and  C_4
REMARK    3  A    between atoms: C_6  and  C_7
REMARK    4  A    between atoms: C_12  and  C_13
REMARK    5  A    between atoms: N_24  and  C_25
REMARK                            x       y       z     vdW  Elec       q    Type
REMARK                         _______ _______ _______ _____ _____    ______ ____
ROOT
ATOM      1  C   UNL     1       1.484   7.529  20.487  0.00  0.00    +0.000 A 
ATOM      2  C   UNL     1       1.247   6.220  20.843  0.00  0.00    +0.000 A 
ATOM      3  C   UNL     1       1.881   5.431  19.849  0.00  0.00    +0.000 A 
ATOM      4  N   UNL     1       2.488   6.215  18.941  0.00  0.00    +0.000 NA
ATOM      5  N   UNL     1       2.237   7.463  19.355  0.00  0.00    +0.000 N 
ATOM      6  H   UNL     1       2.618   8.217  18.803  0.00  0.00    +0.000 HD
ENDROOT
BRANCH   1   9
ATOM      7  C   UNL     1      -0.137  10.223  19.331  0.00  0.00    +0.000 C 
ATOM      8  C   UNL     1       0.352   9.845  20.681  0.00  0.00    +0.000 A 
ATOM      9  C   UNL     1       1.010   8.741  21.195  0.00  0.00    +0.000 A 
ATOM     10  C   UNL     1       1.118   8.991  22.580  0.00  0.00    +0.000 A 
ATOM     11  N   UNL     1       0.603  10.170  22.927  0.00  0.00    +0.000 NA
ATOM     12  N   UNL     1       0.143  10.668  21.768  0.00  0.00    +0.000 N 
ATOM     13  C   UNL     1      -0.537  11.944  21.779  0.00  0.00    +0.000 C 
ENDBRANCH   1   9
BRANCH   3  14
ATOM     14  C   UNL     1       1.864   3.963  19.742  0.00  0.00    +0.000 C 
ATOM     15  O   UNL     1       0.913   3.295  20.137  0.00  0.00    +0.000 OA
ATOM     16  N   UNL     1       2.987   3.400  19.163  0.00  0.00    +0.000 N 
ATOM     17  C   UNL     1       3.186   1.982  18.903  0.00  0.00    +0.000 C 
ATOM     18  C   UNL     1       4.537   2.093  19.599  0.00  0.00    +0.000 C 
ATOM     19  C   UNL     1       4.362   3.619  19.656  0.00  0.00    +0.000 C 
BRANCH  19  20
ATOM     20  C   UNL     1       5.288   4.546  18.760  0.00  0.00    +0.000 A 
ATOM     21  C   UNL     1       6.331   5.319  19.313  0.00  0.00    +0.000 A 
ATOM     22  C   UNL     1       7.211   6.054  18.518  0.00  0.00    +0.000 A 
ATOM     23  C   UNL     1       7.058   6.039  17.141  0.00  0.00    +0.000 A 
ATOM     24  F   UNL     1       7.921   6.717  16.373  0.00  0.00    +0.000 F 
ATOM     25  C   UNL     1       6.031   5.321  16.549  0.00  0.00    +0.000 A 
ATOM     26  C   UNL     1       5.155   4.585  17.353  0.00  0.00    +0.000 A 
ENDBRANCH  19  20
ENDBRANCH   3  14
TORSDOF 3
ENDMDL
MODEL 7
REMARK VINA RESULT:      -7.7      3.040      4.283
REMARK  Name = 
REMARK  5 active torsions:
REMARK  status: ('A' for Active; 'I' for Inactive)
REMARK    1  A    between atoms: C_1  and  C_2
REMARK    2  A    between atoms: C_3  and  C_4
REMARK    3  A    between atoms: C_6  and  C_7
REMARK    4  A    between atoms: C_12  and  C_13
REMARK    5  A    between atoms: N_24  and  C_25
REMARK                            x       y       z     vdW  Elec       q    Type
REMARK                         _______ _______ _______ _____ _____    ______ ____
ROOT
ATOM      1  C   UNL     1       1.799   7.075  19.589  0.00  0.00    +0.000 A 
ATOM      2  C   UNL     1       1.779   5.906  18.862  0.00  0.00    +0.000 A 
ATOM      3  C   UNL     1       1.852   4.859  19.817  0.00  0.00    +0.000 A 
ATOM      4  N   UNL     1       1.898   5.360  21.063  0.00  0.00    +0.000 NA
ATOM      5  N   UNL     1       1.859   6.688  20.892  0.00  0.00    +0.000 N 
ATOM      6  H   UNL     1       1.878   7.260  21.723  0.00  0.00    +0.000 HD
ENDROOT
BRANCH   1   9
ATOM      7  C   UNL     1       0.357   9.845  20.803  0.00  0.00    +0.000 C 
ATOM      8  C   UNL     1       1.149   9.577  19.575  0.00  0.00    +0.000 A 
ATOM      9  C   UNL     1       1.767   8.455  19.051  0.00  0.00    +0.000 A 
ATOM     10  C   UNL     1       2.410   8.906  17.878  0.00  0.00    +0.000 A 
ATOM     11  N   UNL     1       2.199  10.201  17.646  0.00  0.00    +0.000 NA
ATOM     12  N   UNL     1       1.438  10.589  18.683  0.00  0.00    +0.000 N 
ATOM     13  C   UNL     1       1.051  11.978  18.782  0.00  0.00    +0.000 C 
ENDBRANCH   1   9
BRANCH   3  14
ATOM     14  C   UNL     1       1.926   3.415  19.541  0.00  0.00    +0.000 C 
ATOM     15  O   UNL     1       1.014   2.650  19.839  0.00  0.00    +0.000 OA
ATOM     16  N   UNL     1       3.087   2.990  18.919  0.00  0.00    +0.000 N 
ATOM     17  C   UNL     1       3.374   1.627  18.500  0.00  0.00    +0.000 C 
ATOM     18  C   UNL     1       4.710   1.736  19.227  0.00  0.00    +0.000 C 
ATOM     19  C   UNL     1       4.441   3.232  19.458  0.00  0.00    +0.000 C 
BRANCH  19  20
ATOM     20  C   UNL     1       5.318   4.310  18.690  0.00  0.00    +0.000 A 
ATOM     21  C   UNL     1       6.329   5.050  19.339  0.00  0.00    +0.000 A 
ATOM     22  C   UNL     1       7.169   5.923  18.647  0.00  0.00    +0.000 A 
ATOM     23  C   UNL     1       7.007   6.083  17.280  0.00  0.00    +0.000 A 
ATOM     24  F   UNL     1       7.833   6.895  16.607  0.00  0.00    +0.000 F 
ATOM     25  C   UNL     1       6.008   5.404  16.600  0.00  0.00    +0.000 A 
ATOM     26  C   UNL     1       5.172   4.529  17.302  0.00  0.00    +0.000 A 
ENDBRANCH  19  20
ENDBRANCH   3  14
TORSDOF 3
ENDMDL
MODEL 8
REMARK VINA RESULT:      -7.6      3.176      4.744
REMARK  Name = 
REMARK  5 active torsions:
REMARK  status: ('A' for Active; 'I' for Inactive)
REMARK    1  A    between atoms: C_1  and  C_2
REMARK    2  A    between atoms: C_3  and  C_4
REMARK    3  A    between atoms: C_6  and  C_7
REMARK    4  A    between atoms: C_12  and  C_13
REMARK    5  A    between atoms: N_24  and  C_25
REMARK                            x       y       z     vdW  Elec       q    Type
REMARK                         _______ _______ _______ _____ _____    ______ ____
ROOT
ATOM      1  C   UNL     1       2.321   6.821  19.640  0.00  0.00    +0.000 A 
ATOM      2  C   UNL     1       2.330   6.393  18.331  0.00  0.00    +0.000 A 
ATOM      3  C   UNL     1       3.024   5.156  18.336  0.00  0.00    +0.000 A 
ATOM      4  N   UNL     1       3.404   4.834  19.585  0.00  0.00    +0.000 NA
ATOM      5  N   UNL     1       2.963   5.847  20.341  0.00  0.00    +0.000 N 
ATOM      6  H   UNL     1       3.145   5.794  21.332  0.00  0.00    +0.000 HD
ENDROOT
BRANCH   1   9
ATOM      7  C   UNL     1       1.339   9.586  18.025  0.00  0.00    +0.000 C 
ATOM      8  C   UNL     1       1.350   9.209  19.461  0.00  0.00    +0.000 A 
ATOM      9  C   UNL     1       1.734   8.078  20.159  0.00  0.00    +0.000 A 
ATOM     10  C   UNL     1       1.417   8.354  21.506  0.00  0.00    +0.000 A 
ATOM     11  N   UNL     1       0.903   9.572  21.671  0.00  0.00    +0.000 NA
ATOM     12  N   UNL     1       0.868  10.071  20.424  0.00  0.00    +0.000 N 
ATOM     13  C   UNL     1       0.310  11.389  20.217  0.00  0.00    +0.000 C 
ENDBRANCH   1   9
BRANCH   3  14
ATOM     14  C   UNL     1       3.358   4.325  17.168  0.00  0.00    +0.000 C 
ATOM     15  O   UNL     1       2.582   3.482  16.727  0.00  0.00    +0.000 OA
ATOM     16  N   UNL     1       4.599   4.568  16.604  0.00  0.00    +0.000 N 
ATOM     17  C   UNL     1       5.134   3.915  15.420  0.00  0.00    +0.000 C 
ATOM     18  C   UNL     1       6.401   3.621  16.214  0.00  0.00    +0.000 C 
ATOM     19  C   UNL     1       5.868   4.501  17.356  0.00  0.00    +0.000 C 
BRANCH  19  20
ATOM     20  C   UNL     1       6.573   5.889  17.666  0.00  0.00    +0.000 A 
ATOM     21  C   UNL     1       7.652   5.993  18.571  0.00  0.00    +0.000 A 
ATOM     22  C   UNL     1       8.339   7.191  18.769  0.00  0.00    +0.000 A 
ATOM     23  C   UNL     1       7.952   8.322  18.068  0.00  0.00    +0.000 A 
ATOM     24  F   UNL     1       8.631   9.465  18.231  0.00  0.00    +0.000 F 
ATOM     25  C   UNL     1       6.879   8.281  17.192  0.00  0.00    +0.000 A 
ATOM     26  C   UNL     1       6.197   7.075  16.998  0.00  0.00    +0.000 A 
ENDBRANCH  19  20
ENDBRANCH   3  14
TORSDOF 3
ENDMDL
MODEL 9
REMARK VINA RESULT:      -7.6      4.653      6.544
REMARK  Name = 
REMARK  5 active torsions:
REMARK  status: ('A' for Active; 'I' for Inactive)
REMARK    1  A    between atoms: C_1  and  C_2
REMARK    2  A    between atoms: C_3  and  C_4
REMARK    3  A    between atoms: C_6  and  C_7
REMARK    4  A    between atoms: C_12  and  C_13
REMARK    5  A    between atoms: N_24  and  C_25
REMARK                            x       y       z     vdW  Elec       q    Type
REMARK                         _______ _______ _______ _____ _____    ______ ____
ROOT
ATOM      1  C   UNL     1       8.094   8.792  18.102  0.00  0.00    +0.000 A 
ATOM      2  C   UNL     1       8.202   7.528  18.637  0.00  0.00    +0.000 A 
ATOM      3  C   UNL     1       7.361   6.703  17.847  0.00  0.00    +0.000 A 
ATOM      4  N   UNL     1       6.782   7.421  16.869  0.00  0.00    +0.000 NA
ATOM      5  N   UNL     1       7.245   8.664  17.046  0.00  0.00    +0.000 N 
ATOM      6  H   UNL     1       6.929   9.369  16.397  0.00  0.00    +0.000 HD
ENDROOT
BRANCH   1   9
ATOM      7  C   UNL     1       7.810  11.968  17.074  0.00  0.00    +0.000 C 
ATOM      8  C   UNL     1       8.631  11.320  18.128  0.00  0.00    +0.000 A 
ATOM      9  C   UNL     1       8.764  10.021  18.586  0.00  0.00    +0.000 A 
ATOM     10  C   UNL     1       9.670  10.105  19.665  0.00  0.00    +0.000 A 
ATOM     11  N   UNL     1      10.112  11.345  19.866  0.00  0.00    +0.000 NA
ATOM     12  N   UNL     1       9.470  12.065  18.931  0.00  0.00    +0.000 N 
ATOM     13  C   UNL     1       9.679  13.495  18.887  0.00  0.00    +0.000 C 
ENDBRANCH   1   9
BRANCH   3  14
ATOM     14  C   UNL     1       7.080   5.273  18.053  0.00  0.00    +0.000 C 
ATOM     15  O   UNL     1       7.956   4.419  17.955  0.00  0.00    +0.000 OA
ATOM     16  N   UNL     1       5.767   4.967  18.369  0.00  0.00    +0.000 N 
ATOM     17  C   UNL     1       5.254   3.639  18.665  0.00  0.00    +0.000 C 
ATOM     18  C   UNL     1       4.148   3.892  17.647  0.00  0.00    +0.000 C 
ATOM     19  C   UNL     1       4.612   5.353  17.533  0.00  0.00    +0.000 C 
BRANCH  19  20
ATOM     20  C   UNL     1       3.689   6.511  18.105  0.00  0.00    +0.000 A 
ATOM     21  C   UNL     1       3.403   7.674  17.359  0.00  0.00    +0.000 A 
ATOM     22  C   UNL     1       2.511   8.646  17.816  0.00  0.00    +0.000 A 
ATOM     23  C   UNL     1       1.891   8.479  19.044  0.00  0.00    +0.000 A 
ATOM     24  F   UNL     1       1.011   9.393  19.470  0.00  0.00    +0.000 F 
ATOM     25  C   UNL     1       2.163   7.369  19.830  0.00  0.00    +0.000 A 
ATOM     26  C   UNL     1       3.056   6.399  19.363  0.00  0.00    +0.000 A 
ENDBRANCH  19  20
ENDBRANCH   3  14
TORSDOF 3
ENDMDL
