MODEL 1
REMARK VINA RESULT:      -9.8      0.000      0.000
REMARK  Name = 
REMARK  4 active torsions:
REMARK  status: ('A' for Active; 'I' for Inactive)
REMARK    1  A    between atoms: C_1  and  C_2
REMARK    2  A    between atoms: C_8  and  N_9
REMARK    3  A    between atoms: N_9  and  C_10
REMARK    4  A    between atoms: C_13  and  C_14
REMARK                            x       y       z     vdW  Elec       q    Type
REMARK                         _______ _______ _______ _____ _____    ______ ____
ROOT
ATOM      1  C   UNL     1       3.411   5.693  19.320  0.00  0.00    +0.000 A 
ATOM      2  N   UNL     1       4.609   5.973  18.762  0.00  0.00    +0.000 NA
ATOM      3  C   UNL     1       5.103   5.224  17.750  0.00  0.00    +0.000 A 
ATOM      4  C   UNL     1       6.328   5.579  17.143  0.00  0.00    +0.000 A 
ATOM      5  C   UNL     1       6.845   4.827  16.074  0.00  0.00    +0.000 A 
ATOM      6  C   UNL     1       6.166   3.717  15.602  0.00  0.00    +0.000 A 
ATOM      7  C   UNL     1       4.963   3.354  16.197  0.00  0.00    +0.000 A 
ATOM      8  C   UNL     1       4.402   4.096  17.269  0.00  0.00    +0.000 A 
ATOM      9  C   UNL     1       3.149   3.773  17.886  0.00  0.00    +0.000 A 
ATOM     10  C   UNL     1       2.341   2.676  17.529  0.00  0.00    +0.000 A 
ATOM     11  N   UNL     1       1.146   2.354  18.081  0.00  0.00    +0.000 NA
ATOM     12  C   UNL     1       0.705   3.152  19.064  0.00  0.00    +0.000 A 
ATOM     13  C   UNL     1       1.404   4.256  19.514  0.00  0.00    +0.000 A 
ATOM     14  C   UNL     1       2.641   4.588  18.919  0.00  0.00    +0.000 A 
ENDROOT
BRANCH   4  15
ATOM     15  C   UNL     1       7.101   6.747  17.585  0.00  0.00    +0.000 A 
ATOM     16  N   UNL     1       8.016   6.802  18.539  0.00  0.00    +0.000 NA
ATOM     17  N   UNL     1       8.487   8.094  18.620  0.00  0.00    +0.000 NA
ATOM     18  C   UNL     1       7.853   8.804  17.719  0.00  0.00    +0.000 A 
ATOM     19  N   UNL     1       6.988   8.005  17.047  0.00  0.00    +0.000 N 
ATOM     20  H   UNL     1       6.363   8.246  16.288  0.00  0.00    +0.000 HD
ENDBRANCH   4  15
BRANCH   1  21
ATOM     21  N   UNL     1       2.905   6.583  20.306  0.00  0.00    +0.000 N 
ATOM     22  H   UNL     1       2.717   6.058  21.153  0.00  0.00    +0.000 HD
BRANCH  21  30
ATOM     23  C   UNL     1       2.885   8.073  17.730  0.00  0.00    +0.000 C 
ATOM     24  C   UNL     1       1.956   8.367  18.878  0.00  0.00    +0.000 A 
ATOM     25  C   UNL     1       1.036   9.424  18.723  0.00  0.00    +0.000 A 
ATOM     26  C   UNL     1       0.163   9.769  19.753  0.00  0.00    +0.000 A 
ATOM     27  C   UNL     1       0.209   9.061  20.942  0.00  0.00    +0.000 A 
ATOM     28  F   UNL     1      -0.629   9.386  21.934  0.00  0.00    +0.000 F 
ATOM     29  C   UNL     1       1.113   8.021  21.122  0.00  0.00    +0.000 A 
ATOM     30  C   UNL     1       2.014   7.665  20.106  0.00  0.00    +0.000 A 
ENDBRANCH  21  30
ENDBRANCH   1  21
TORSDOF 3
ENDMDL
MODEL 2
REMARK VINA RESULT:      -9.4      1.149      1.704
REMARK  Name = 
REMARK  4 active torsions:
REMARK  status: ('A' for Active; 'I' for Inactive)
REMARK    1  A    between atoms: C_1  and  C_2
REMARK    2  A    between atoms: C_8  and  N_9
REMARK    3  A    between atoms: N_9  and  C_10
REMARK    4  A    between atoms: C_13  and  C_14
REMARK                            x       y       z     vdW  Elec       q    Type
REMARK                         _______ _______ _______ _____ _____    ______ ____
ROOT
ATOM      1  C   UNL     1       3.399   5.773  19.130  0.00  0.00    +0.000 A 
ATOM      2  N   UNL     1       4.621   6.062  18.634  0.00  0.00    +0.000 NA
ATOM      3  C   UNL     1       5.200   5.280  17.695  0.00  0.00    +0.000 A 
ATOM      4  C   UNL     1       6.451   5.643  17.148  0.00  0.00    +0.000 A 
ATOM      5  C   UNL     1       7.056   4.857  16.153  0.00  0.00    +0.000 A 
ATOM      6  C   UNL     1       6.440   3.704  15.696  0.00  0.00    +0.000 A 
ATOM      7  C   UNL     1       5.212   3.333  16.233  0.00  0.00    +0.000 A 
ATOM      8  C   UNL     1       4.563   4.109  17.229  0.00  0.00    +0.000 A 
ATOM      9  C   UNL     1       3.283   3.778  17.782  0.00  0.00    +0.000 A 
ATOM     10  C   UNL     1       2.530   2.640  17.431  0.00  0.00    +0.000 A 
ATOM     11  N   UNL     1       1.312   2.308  17.923  0.00  0.00    +0.000 NA
ATOM     12  C   UNL     1       0.786   3.138  18.835  0.00  0.00    +0.000 A 
ATOM     13  C   UNL     1       1.424   4.284  19.271  0.00  0.00    +0.000 A 
ATOM     14  C   UNL     1       2.687   4.625  18.739  0.00  0.00    +0.000 A 
ENDROOT
BRANCH   4  15
ATOM     15  C   UNL     1       7.161   6.855  17.578  0.00  0.00    +0.000 A 
ATOM     16  N   UNL     1       8.089   6.964  18.513  0.00  0.00    +0.000 NA
ATOM     17  N   UNL     1       8.484   8.282  18.588  0.00  0.00    +0.000 NA
ATOM     18  C   UNL     1       7.790   8.953  17.701  0.00  0.00    +0.000 A 
ATOM     19  N   UNL     1       6.961   8.104  17.045  0.00  0.00    +0.000 N 
ATOM     20  H   UNL     1       6.309   8.308  16.298  0.00  0.00    +0.000 HD
ENDBRANCH   4  15
BRANCH   1  21
ATOM     21  N   UNL     1       2.806   6.693  20.036  0.00  0.00    +0.000 N 
ATOM     22  H   UNL     1       2.394   6.176  20.805  0.00  0.00    +0.000 HD
BRANCH  21  30
ATOM     23  C   UNL     1       0.747   7.783  21.888  0.00  0.00    +0.000 C 
ATOM     24  C   UNL     1       1.142   8.439  20.592  0.00  0.00    +0.000 A 
ATOM     25  C   UNL     1       0.479   9.630  20.231  0.00  0.00    +0.000 A 
ATOM     26  C   UNL     1       0.774  10.278  19.034  0.00  0.00    +0.000 A 
ATOM     27  C   UNL     1       1.730   9.735  18.191  0.00  0.00    +0.000 A 
ATOM     28  F   UNL     1       2.020  10.355  17.040  0.00  0.00    +0.000 F 
ATOM     29  C   UNL     1       2.390   8.557  18.520  0.00  0.00    +0.000 A 
ATOM     30  C   UNL     1       2.098   7.877  19.713  0.00  0.00    +0.000 A 
ENDBRANCH  21  30
ENDBRANCH   1  21
TORSDOF 3
ENDMDL
MODEL 3
REMARK VINA RESULT:      -9.1      6.273     10.592
REMARK  Name = 
REMARK  4 active torsions:
REMARK  status: ('A' for Active; 'I' for Inactive)
REMARK    1  A    between atoms: C_1  and  C_2
REMARK    2  A    between atoms: C_8  and  N_9
REMARK    3  A    between atoms: N_9  and  C_10
REMARK    4  A    between atoms: C_13  and  C_14
REMARK                            x       y       z     vdW  Elec       q    Type
REMARK                         _______ _______ _______ _____ _____    ______ ____
ROOT
ATOM      1  C   UNL     1      -2.302  11.869  19.356  0.00  0.00    +0.000 A 
ATOM      2  N   UNL     1      -3.064  12.305  20.382  0.00  0.00    +0.000 NA
ATOM      3  C   UNL     1      -4.408  12.399  20.268  0.00  0.00    +0.000 A 
ATOM      4  C   UNL     1      -5.185  12.797  21.378  0.00  0.00    +0.000 A 
ATOM      5  C   UNL     1      -6.585  12.875  21.284  0.00  0.00    +0.000 A 
ATOM      6  C   UNL     1      -7.229  12.573  20.097  0.00  0.00    +0.000 A 
ATOM      7  C   UNL     1      -6.473  12.187  18.995  0.00  0.00    +0.000 A 
ATOM      8  C   UNL     1      -5.059  12.082  19.054  0.00  0.00    +0.000 A 
ATOM      9  C   UNL     1      -4.249  11.657  17.951  0.00  0.00    +0.000 A 
ATOM     10  C   UNL     1      -4.746  11.320  16.677  0.00  0.00    +0.000 A 
ATOM     11  N   UNL     1      -4.010  10.899  15.620  0.00  0.00    +0.000 NA
ATOM     12  C   UNL     1      -2.686  10.808  15.809  0.00  0.00    +0.000 A 
ATOM     13  C   UNL     1      -2.070  11.115  17.008  0.00  0.00    +0.000 A 
ATOM     14  C   UNL     1      -2.852  11.539  18.105  0.00  0.00    +0.000 A 
ENDROOT
BRANCH   4  15
ATOM     15  C   UNL     1      -4.573  13.126  22.672  0.00  0.00    +0.000 A 
ATOM     16  N   UNL     1      -4.621  12.427  23.794  0.00  0.00    +0.000 NA
ATOM     17  N   UNL     1      -3.911  13.103  24.762  0.00  0.00    +0.000 NA
ATOM     18  C   UNL     1      -3.445  14.201  24.216  0.00  0.00    +0.000 A 
ATOM     19  N   UNL     1      -3.826  14.251  22.916  0.00  0.00    +0.000 N 
ATOM     20  H   UNL     1      -3.619  14.960  22.223  0.00  0.00    +0.000 HD
ENDBRANCH   4  15
BRANCH   1  21
ATOM     21  N   UNL     1      -0.909  11.695  19.580  0.00  0.00    +0.000 N 
ATOM     22  H   UNL     1      -0.410  11.932  18.729  0.00  0.00    +0.000 HD
BRANCH  21  30
ATOM     23  C   UNL     1       0.899   9.734  18.259  0.00  0.00    +0.000 C 
ATOM     24  C   UNL     1       0.610   9.748  19.737  0.00  0.00    +0.000 A 
ATOM     25  C   UNL     1       1.221   8.758  20.534  0.00  0.00    +0.000 A 
ATOM     26  C   UNL     1       0.980   8.694  21.905  0.00  0.00    +0.000 A 
ATOM     27  C   UNL     1       0.123   9.616  22.483  0.00  0.00    +0.000 A 
ATOM     28  F   UNL     1      -0.111   9.561  23.800  0.00  0.00    +0.000 F 
ATOM     29  C   UNL     1      -0.499  10.595  21.717  0.00  0.00    +0.000 A 
ATOM     30  C   UNL     1      -0.284  10.670  20.331  0.00  0.00    +0.000 A 
ENDBRANCH  21  30
ENDBRANCH   1  21
TORSDOF 3
ENDMDL
MODEL 4
REMARK VINA RESULT:      -8.8      6.485     10.866
REMARK  Name = 
REMARK  4 active torsions:
REMARK  status: ('A' for Active; 'I' for Inactive)
REMARK    1  A    between atoms: C_1  and  C_2
REMARK    2  A    between atoms: C_8  and  N_9
REMARK    3  A    between atoms: N_9  and  C_10
REMARK    4  A    between atoms: C_13  and  C_14
REMARK                            x       y       z     vdW  Elec       q    Type
REMARK                         _______ _______ _______ _____ _____    ______ ____
ROOT
ATOM      1  C   UNL     1      -2.413  12.032  19.472  0.00  0.00    +0.000 A 
ATOM      2  N   UNL     1      -3.258  12.445  20.441  0.00  0.00    +0.000 NA
ATOM      3  C   UNL     1      -4.598  12.429  20.257  0.00  0.00    +0.000 A 
ATOM      4  C   UNL     1      -5.459  12.806  21.310  0.00  0.00    +0.000 A 
ATOM      5  C   UNL     1      -6.854  12.772  21.145  0.00  0.00    +0.000 A 
ATOM      6  C   UNL     1      -7.411  12.376  19.942  0.00  0.00    +0.000 A 
ATOM      7  C   UNL     1      -6.572  12.010  18.894  0.00  0.00    +0.000 A 
ATOM      8  C   UNL     1      -5.159  12.018  19.027  0.00  0.00    +0.000 A 
ATOM      9  C   UNL     1      -4.262  11.617  17.983  0.00  0.00    +0.000 A 
ATOM     10  C   UNL     1      -4.666  11.196  16.701  0.00  0.00    +0.000 A 
ATOM     11  N   UNL     1      -3.846  10.795  15.699  0.00  0.00    +0.000 NA
ATOM     12  C   UNL     1      -2.531  10.815  15.957  0.00  0.00    +0.000 A 
ATOM     13  C   UNL     1      -2.003  11.213  17.170  0.00  0.00    +0.000 A 
ATOM     14  C   UNL     1      -2.871  11.615  18.210  0.00  0.00    +0.000 A 
ENDROOT
BRANCH   4  15
ATOM     15  C   UNL     1      -4.943  13.230  22.619  0.00  0.00    +0.000 A 
ATOM     16  N   UNL     1      -4.857  14.460  23.097  0.00  0.00    +0.000 NA
ATOM     17  N   UNL     1      -4.312  14.400  24.362  0.00  0.00    +0.000 NA
ATOM     18  C   UNL     1      -4.074  13.139  24.631  0.00  0.00    +0.000 A 
ATOM     19  N   UNL     1      -4.459  12.377  23.578  0.00  0.00    +0.000 N 
ATOM     20  H   UNL     1      -4.418  11.370  23.478  0.00  0.00    +0.000 HD
ENDBRANCH   4  15
BRANCH   1  21
ATOM     21  N   UNL     1      -1.024  11.976  19.770  0.00  0.00    +0.000 N 
ATOM     22  H   UNL     1      -0.507  12.362  18.988  0.00  0.00    +0.000 HD
BRANCH  21  30
ATOM     23  C   UNL     1      -1.044  11.822  22.742  0.00  0.00    +0.000 C 
ATOM     24  C   UNL     1      -0.359  10.818  21.853  0.00  0.00    +0.000 A 
ATOM     25  C   UNL     1       0.328   9.754  22.472  0.00  0.00    +0.000 A 
ATOM     26  C   UNL     1       1.006   8.802  21.714  0.00  0.00    +0.000 A 
ATOM     27  C   UNL     1       1.003   8.913  20.334  0.00  0.00    +0.000 A 
ATOM     28  F   UNL     1       1.650   8.000  19.599  0.00  0.00    +0.000 F 
ATOM     29  C   UNL     1       0.341   9.958  19.700  0.00  0.00    +0.000 A 
ATOM     30  C   UNL     1      -0.335  10.938  20.443  0.00  0.00    +0.000 A 
ENDBRANCH  21  30
ENDBRANCH   1  21
TORSDOF 3
ENDMDL
MODEL 5
REMARK VINA RESULT:      -8.7      6.942     10.837
REMARK  Name = 
REMARK  4 active torsions:
REMARK  status: ('A' for Active; 'I' for Inactive)
REMARK    1  A    between atoms: C_1  and  C_2
REMARK    2  A    between atoms: C_8  and  N_9
REMARK    3  A    between atoms: N_9  and  C_10
REMARK    4  A    between atoms: C_13  and  C_14
REMARK                            x       y       z     vdW  Elec       q    Type
REMARK                         _______ _______ _______ _____ _____    ______ ____
ROOT
ATOM      1  C   UNL     1      -2.885  12.589  20.835  0.00  0.00    +0.000 A 
ATOM      2  N   UNL     1      -3.338  12.093  19.664  0.00  0.00    +0.000 NA
ATOM      3  C   UNL     1      -4.633  12.234  19.297  0.00  0.00    +0.000 A 
ATOM      4  C   UNL     1      -5.065  11.762  18.038  0.00  0.00    +0.000 A 
ATOM      5  C   UNL     1      -6.399  11.921  17.629  0.00  0.00    +0.000 A 
ATOM      6  C   UNL     1      -7.320  12.537  18.459  0.00  0.00    +0.000 A 
ATOM      7  C   UNL     1      -6.908  12.999  19.704  0.00  0.00    +0.000 A 
ATOM      8  C   UNL     1      -5.566  12.869  20.147  0.00  0.00    +0.000 A 
ATOM      9  C   UNL     1      -5.095  13.361  21.408  0.00  0.00    +0.000 A 
ATOM     10  C   UNL     1      -5.903  14.004  22.367  0.00  0.00    +0.000 A 
ATOM     11  N   UNL     1      -5.486  14.494  23.559  0.00  0.00    +0.000 NA
ATOM     12  C   UNL     1      -4.187  14.340  23.850  0.00  0.00    +0.000 A 
ATOM     13  C   UNL     1      -3.289  13.723  23.000  0.00  0.00    +0.000 A 
ATOM     14  C   UNL     1      -3.735  13.229  21.754  0.00  0.00    +0.000 A 
ENDROOT
BRANCH   4  15
ATOM     15  C   UNL     1      -4.144  11.104  17.101  0.00  0.00    +0.000 A 
ATOM     16  N   UNL     1      -3.559   9.925  17.230  0.00  0.00    +0.000 NA
ATOM     17  N   UNL     1      -2.777   9.700  16.118  0.00  0.00    +0.000 NA
ATOM     18  C   UNL     1      -2.896  10.743  15.332  0.00  0.00    +0.000 A 
ATOM     19  N   UNL     1      -3.743  11.637  15.901  0.00  0.00    +0.000 N 
ATOM     20  H   UNL     1      -4.050  12.533  15.543  0.00  0.00    +0.000 HD
ENDBRANCH   4  15
BRANCH   1  21
ATOM     21  N   UNL     1      -1.493  12.499  21.109  0.00  0.00    +0.000 N 
ATOM     22  H   UNL     1      -1.003  13.174  20.534  0.00  0.00    +0.000 HD
BRANCH  21  30
ATOM     23  C   UNL     1      -0.052  11.123  18.899  0.00  0.00    +0.000 C 
ATOM     24  C   UNL     1      -0.018  10.669  20.334  0.00  0.00    +0.000 A 
ATOM     25  C   UNL     1       0.727   9.512  20.639  0.00  0.00    +0.000 A 
ATOM     26  C   UNL     1       0.783   9.019  21.941  0.00  0.00    +0.000 A 
ATOM     27  C   UNL     1       0.090   9.679  22.941  0.00  0.00    +0.000 A 
ATOM     28  F   UNL     1       0.141   9.212  24.195  0.00  0.00    +0.000 F 
ATOM     29  C   UNL     1      -0.660  10.816  22.665  0.00  0.00    +0.000 A 
ATOM     30  C   UNL     1      -0.745  11.322  21.358  0.00  0.00    +0.000 A 
ENDBRANCH  21  30
ENDBRANCH   1  21
TORSDOF 3
ENDMDL
MODEL 6
REMARK VINA RESULT:      -8.6      7.432     12.458
REMARK  Name = 
REMARK  4 active torsions:
REMARK  status: ('A' for Active; 'I' for Inactive)
REMARK    1  A    between atoms: C_1  and  C_2
REMARK    2  A    between atoms: C_8  and  N_9
REMARK    3  A    between atoms: N_9  and  C_10
REMARK    4  A    between atoms: C_13  and  C_14
REMARK                            x       y       z     vdW  Elec       q    Type
REMARK                         _______ _______ _______ _____ _____    ______ ____
ROOT
ATOM      1  C   UNL     1      -3.018  13.087  22.113  0.00  0.00    +0.000 A 
ATOM      2  N   UNL     1      -4.228  12.606  21.754  0.00  0.00    +0.000 NA
ATOM      3  C   UNL     1      -5.358  13.016  22.375  0.00  0.00    +0.000 A 
ATOM      4  C   UNL     1      -6.615  12.544  21.936  0.00  0.00    +0.000 A 
ATOM      5  C   UNL     1      -7.801  12.978  22.552  0.00  0.00    +0.000 A 
ATOM      6  C   UNL     1      -7.759  13.870  23.609  0.00  0.00    +0.000 A 
ATOM      7  C   UNL     1      -6.526  14.335  24.055  0.00  0.00    +0.000 A 
ATOM      8  C   UNL     1      -5.308  13.931  23.450  0.00  0.00    +0.000 A 
ATOM      9  C   UNL     1      -4.021  14.413  23.859  0.00  0.00    +0.000 A 
ATOM     10  C   UNL     1      -3.805  15.316  24.918  0.00  0.00    +0.000 A 
ATOM     11  N   UNL     1      -2.606  15.802  25.318  0.00  0.00    +0.000 NA
ATOM     12  C   UNL     1      -1.529  15.372  24.646  0.00  0.00    +0.000 A 
ATOM     13  C   UNL     1      -1.602  14.482  23.591  0.00  0.00    +0.000 A 
ATOM     14  C   UNL     1      -2.861  13.994  23.176  0.00  0.00    +0.000 A 
ENDROOT
BRANCH   4  15
ATOM     15  C   UNL     1      -6.740  11.602  20.815  0.00  0.00    +0.000 A 
ATOM     16  N   UNL     1      -7.248  10.381  20.834  0.00  0.00    +0.000 NA
ATOM     17  N   UNL     1      -7.167   9.854  19.564  0.00  0.00    +0.000 NA
ATOM     18  C   UNL     1      -6.610  10.758  18.795  0.00  0.00    +0.000 A 
ATOM     19  N   UNL     1      -6.336  11.863  19.530  0.00  0.00    +0.000 N 
ATOM     20  H   UNL     1      -5.919  12.735  19.229  0.00  0.00    +0.000 HD
ENDBRANCH   4  15
BRANCH   1  21
ATOM     21  N   UNL     1      -1.886  12.694  21.350  0.00  0.00    +0.000 N 
ATOM     22  H   UNL     1      -2.003  13.023  20.399  0.00  0.00    +0.000 HD
BRANCH  21  30
ATOM     23  C   UNL     1      -0.990  11.280  18.890  0.00  0.00    +0.000 C 
ATOM     24  C   UNL     1      -0.706  10.796  20.287  0.00  0.00    +0.000 A 
ATOM     25  C   UNL     1       0.012   9.591  20.432  0.00  0.00    +0.000 A 
ATOM     26  C   UNL     1       0.290   9.070  21.693  0.00  0.00    +0.000 A 
ATOM     27  C   UNL     1      -0.153   9.750  22.816  0.00  0.00    +0.000 A 
ATOM     28  F   UNL     1       0.112   9.256  24.031  0.00  0.00    +0.000 F 
ATOM     29  C   UNL     1      -0.871  10.934  22.700  0.00  0.00    +0.000 A 
ATOM     30  C   UNL     1      -1.177  11.471  21.439  0.00  0.00    +0.000 A 
ENDBRANCH  21  30
ENDBRANCH   1  21
TORSDOF 3
ENDMDL
MODEL 7
REMARK VINA RESULT:      -8.6      6.416     10.677
REMARK  Name = 
REMARK  4 active torsions:
REMARK  status: ('A' for Active; 'I' for Inactive)
REMARK    1  A    between atoms: C_1  and  C_2
REMARK    2  A    between atoms: C_8  and  N_9
REMARK    3  A    between atoms: N_9  and  C_10
REMARK    4  A    between atoms: C_13  and  C_14
REMARK                            x       y       z     vdW  Elec       q    Type
REMARK                         _______ _______ _______ _____ _____    ______ ____
ROOT
ATOM      1  C   UNL     1      -2.532  12.341  20.700  0.00  0.00    +0.000 A 
ATOM      2  N   UNL     1      -3.055  11.918  19.528  0.00  0.00    +0.000 NA
ATOM      3  C   UNL     1      -4.364  12.098  19.238  0.00  0.00    +0.000 A 
ATOM      4  C   UNL     1      -4.868  11.703  17.980  0.00  0.00    +0.000 A 
ATOM      5  C   UNL     1      -6.219  11.905  17.651  0.00  0.00    +0.000 A 
ATOM      6  C   UNL     1      -7.085  12.488  18.560  0.00  0.00    +0.000 A 
ATOM      7  C   UNL     1      -6.601  12.874  19.806  0.00  0.00    +0.000 A 
ATOM      8  C   UNL     1      -5.240  12.699  20.169  0.00  0.00    +0.000 A 
ATOM      9  C   UNL     1      -4.696  13.113  21.429  0.00  0.00    +0.000 A 
ATOM     10  C   UNL     1      -5.441  13.713  22.463  0.00  0.00    +0.000 A 
ATOM     11  N   UNL     1      -4.955  14.130  23.657  0.00  0.00    +0.000 NA
ATOM     12  C   UNL     1      -3.645  13.941  23.870  0.00  0.00    +0.000 A 
ATOM     13  C   UNL     1      -2.804  13.358  22.942  0.00  0.00    +0.000 A 
ATOM     14  C   UNL     1      -3.322  12.941  21.696  0.00  0.00    +0.000 A 
ENDROOT
BRANCH   4  15
ATOM     15  C   UNL     1      -4.009  11.085  16.960  0.00  0.00    +0.000 A 
ATOM     16  N   UNL     1      -3.944  11.372  15.671  0.00  0.00    +0.000 NA
ATOM     17  N   UNL     1      -3.005  10.551  15.086  0.00  0.00    +0.000 NA
ATOM     18  C   UNL     1      -2.514   9.779  16.026  0.00  0.00    +0.000 A 
ATOM     19  N   UNL     1      -3.105  10.083  17.208  0.00  0.00    +0.000 N 
ATOM     20  H   UNL     1      -2.938   9.678  18.121  0.00  0.00    +0.000 HD
ENDBRANCH   4  15
BRANCH   1  21
ATOM     21  N   UNL     1      -1.130  12.214  20.895  0.00  0.00    +0.000 N 
ATOM     22  H   UNL     1      -0.677  13.057  20.561  0.00  0.00    +0.000 HD
BRANCH  21  30
ATOM     23  C   UNL     1      -0.800  10.270  23.124  0.00  0.00    +0.000 C 
ATOM     24  C   UNL     1      -0.202  10.087  21.754  0.00  0.00    +0.000 A 
ATOM     25  C   UNL     1       0.576   8.934  21.526  0.00  0.00    +0.000 A 
ATOM     26  C   UNL     1       1.182   8.711  20.292  0.00  0.00    +0.000 A 
ATOM     27  C   UNL     1       1.016   9.644  19.282  0.00  0.00    +0.000 A 
ATOM     28  F   UNL     1       1.593   9.435  18.092  0.00  0.00    +0.000 F 
ATOM     29  C   UNL     1       0.262  10.793  19.484  0.00  0.00    +0.000 A 
ATOM     30  C   UNL     1      -0.345  11.048  20.725  0.00  0.00    +0.000 A 
ENDBRANCH  21  30
ENDBRANCH   1  21
TORSDOF 3
ENDMDL
MODEL 8
REMARK VINA RESULT:      -8.5      5.537     10.134
REMARK  Name = 
REMARK  4 active torsions:
REMARK  status: ('A' for Active; 'I' for Inactive)
REMARK    1  A    between atoms: C_1  and  C_2
REMARK    2  A    between atoms: C_8  and  N_9
REMARK    3  A    between atoms: N_9  and  C_10
REMARK    4  A    between atoms: C_13  and  C_14
REMARK                            x       y       z     vdW  Elec       q    Type
REMARK                         _______ _______ _______ _____ _____    ______ ____
ROOT
ATOM      1  C   UNL     1      -1.347  12.031  20.363  0.00  0.00    +0.000 A 
ATOM      2  N   UNL     1      -2.117  11.679  19.311  0.00  0.00    +0.000 NA
ATOM      3  C   UNL     1      -3.430  12.000  19.264  0.00  0.00    +0.000 A 
ATOM      4  C   UNL     1      -4.196  11.675  18.122  0.00  0.00    +0.000 A 
ATOM      5  C   UNL     1      -5.555  12.023  18.045  0.00  0.00    +0.000 A 
ATOM      6  C   UNL     1      -6.172  12.684  19.092  0.00  0.00    +0.000 A 
ATOM      7  C   UNL     1      -5.430  13.003  20.224  0.00  0.00    +0.000 A 
ATOM      8  C   UNL     1      -4.052  12.681  20.334  0.00  0.00    +0.000 A 
ATOM      9  C   UNL     1      -3.246  13.021  21.470  0.00  0.00    +0.000 A 
ATOM     10  C   UNL     1      -3.722  13.686  22.617  0.00  0.00    +0.000 A 
ATOM     11  N   UNL     1      -2.983  14.036  23.698  0.00  0.00    +0.000 NA
ATOM     12  C   UNL     1      -1.685  13.707  23.670  0.00  0.00    +0.000 A 
ATOM     13  C   UNL     1      -1.094  13.048  22.608  0.00  0.00    +0.000 A 
ATOM     14  C   UNL     1      -1.873  12.701  21.482  0.00  0.00    +0.000 A 
ENDROOT
BRANCH   4  15
ATOM     15  C   UNL     1      -3.608  10.980  16.969  0.00  0.00    +0.000 A 
ATOM     16  N   UNL     1      -3.682  11.320  15.693  0.00  0.00    +0.000 NA
ATOM     17  N   UNL     1      -2.987  10.390  14.951  0.00  0.00    +0.000 NA
ATOM     18  C   UNL     1      -2.505   9.499  15.784  0.00  0.00    +0.000 A 
ATOM     19  N   UNL     1      -2.860   9.832  17.050  0.00  0.00    +0.000 N 
ATOM     20  H   UNL     1      -2.635   9.358  17.915  0.00  0.00    +0.000 HD
ENDBRANCH   4  15
BRANCH   1  21
ATOM     21  N   UNL     1       0.045  11.754  20.300  0.00  0.00    +0.000 N 
ATOM     22  H   UNL     1       0.510  12.523  19.831  0.00  0.00    +0.000 HD
BRANCH  21  30
ATOM     23  C   UNL     1       0.280   9.747  22.484  0.00  0.00    +0.000 C 
ATOM     24  C   UNL     1       0.749   9.511  21.073  0.00  0.00    +0.000 A 
ATOM     25  C   UNL     1       1.351   8.270  20.780  0.00  0.00    +0.000 A 
ATOM     26  C   UNL     1       1.832   7.992  19.502  0.00  0.00    +0.000 A 
ATOM     27  C   UNL     1       1.716   8.955  18.514  0.00  0.00    +0.000 A 
ATOM     28  F   UNL     1       2.173   8.693  17.283  0.00  0.00    +0.000 F 
ATOM     29  C   UNL     1       1.135  10.189  18.780  0.00  0.00    +0.000 A 
ATOM     30  C   UNL     1       0.658  10.499  20.064  0.00  0.00    +0.000 A 
ENDBRANCH  21  30
ENDBRANCH   1  21
TORSDOF 3
ENDMDL
MODEL 9
REMARK VINA RESULT:      -8.5      7.266      9.761
REMARK  Name = 
REMARK  4 active torsions:
REMARK  status: ('A' for Active; 'I' for Inactive)
REMARK    1  A    between atoms: C_1  and  C_2
REMARK    2  A    between atoms: C_8  and  N_9
REMARK    3  A    between atoms: N_9  and  C_10
REMARK    4  A    between atoms: C_13  and  C_14
REMARK                            x       y       z     vdW  Elec       q    Type
REMARK                         _______ _______ _______ _____ _____    ______ ____
ROOT
ATOM      1  C   UNL     1      -3.683  12.113  18.957  0.00  0.00    +0.000 A 
ATOM      2  N   UNL     1      -2.782  12.227  19.956  0.00  0.00    +0.000 NA
ATOM      3  C   UNL     1      -1.563  11.646  19.871  0.00  0.00    +0.000 A 
ATOM      4  C   UNL     1      -0.617  11.836  20.903  0.00  0.00    +0.000 A 
ATOM      5  C   UNL     1       0.662  11.261  20.820  0.00  0.00    +0.000 A 
ATOM      6  C   UNL     1       1.017  10.489  19.728  0.00  0.00    +0.000 A 
ATOM      7  C   UNL     1       0.091  10.289  18.709  0.00  0.00    +0.000 A 
ATOM      8  C   UNL     1      -1.205  10.864  18.750  0.00  0.00    +0.000 A 
ATOM      9  C   UNL     1      -2.175  10.709  17.706  0.00  0.00    +0.000 A 
ATOM     10  C   UNL     1      -1.974   9.952  16.535  0.00  0.00    +0.000 A 
ATOM     11  N   UNL     1      -2.863   9.799  15.524  0.00  0.00    +0.000 NA
ATOM     12  C   UNL     1      -4.043  10.419  15.662  0.00  0.00    +0.000 A 
ATOM     13  C   UNL     1      -4.369  11.186  16.764  0.00  0.00    +0.000 A 
ATOM     14  C   UNL     1      -3.428  11.349  17.805  0.00  0.00    +0.000 A 
ENDROOT
BRANCH   4  15
ATOM     15  C   UNL     1      -0.919  12.649  22.089  0.00  0.00    +0.000 A 
ATOM     16  N   UNL     1      -0.134  13.524  22.694  0.00  0.00    +0.000 NA
ATOM     17  N   UNL     1      -0.817  14.057  23.766  0.00  0.00    +0.000 NA
ATOM     18  C   UNL     1      -2.002  13.498  23.797  0.00  0.00    +0.000 A 
ATOM     19  N   UNL     1      -2.111  12.622  22.768  0.00  0.00    +0.000 N 
ATOM     20  H   UNL     1      -2.901  12.043  22.512  0.00  0.00    +0.000 HD
ENDBRANCH   4  15
BRANCH   1  21
ATOM     21  N   UNL     1      -4.902  12.834  19.066  0.00  0.00    +0.000 N 
ATOM     22  H   UNL     1      -4.754  13.778  18.727  0.00  0.00    +0.000 HD
BRANCH  21  30
ATOM     23  C   UNL     1      -6.931  10.658  19.113  0.00  0.00    +0.000 C 
ATOM     24  C   UNL     1      -6.803  11.711  20.182  0.00  0.00    +0.000 A 
ATOM     25  C   UNL     1      -7.714  11.668  21.258  0.00  0.00    +0.000 A 
ATOM     26  C   UNL     1      -7.672  12.624  22.270  0.00  0.00    +0.000 A 
ATOM     27  C   UNL     1      -6.722  13.629  22.208  0.00  0.00    +0.000 A 
ATOM     28  F   UNL     1      -6.674  14.550  23.179  0.00  0.00    +0.000 F 
ATOM     29  C   UNL     1      -5.819  13.699  21.154  0.00  0.00    +0.000 A 
ATOM     30  C   UNL     1      -5.852  12.756  20.114  0.00  0.00    +0.000 A 
ENDBRANCH  21  30
ENDBRANCH   1  21
TORSDOF 3
ENDMDL
