MODEL 1
REMARK VINA RESULT:      -6.8      0.000      0.000
REMARK  Name = 
REMARK  9 active torsions:
REMARK  status: ('A' for Active; 'I' for Inactive)
REMARK    1  A    between atoms: C_1  and  C_2
REMARK    2  A    between atoms: C_2  and  C_3
REMARK    3  A    between atoms: C_3  and  C_4
REMARK    4  A    between atoms: C_4  and  N_5
REMARK    5  A    between atoms: C_9  and  S_10
REMARK    6  A    between atoms: S_10  and  C_11
REMARK    7  A    between atoms: C_11  and  C_12
REMARK    8  A    between atoms: N_14  and  C_15
REMARK    9  A    between atoms: C_19  and  C_20
REMARK                            x       y       z     vdW  Elec       q    Type
REMARK                         _______ _______ _______ _____ _____    ______ ____
ROOT
ATOM      1  C   UNL     1       2.428   4.792  19.767  0.00  0.00    +0.000 C 
ATOM      2  O   UNL     1       1.227   4.597  19.538  0.00  0.00    +0.000 OA
ATOM      3  N   UNL     1       2.948   6.008  20.153  0.00  0.00    +0.000 N 
ATOM      4  H   UNL     1       3.765   6.052  20.744  0.00  0.00    +0.000 HD
ENDROOT
BRANCH   3   5
ATOM      5  C   UNL     1       2.197   7.168  19.980  0.00  0.00    +0.000 A 
ATOM      6  S   UNL     1       1.211   7.720  21.260  0.00  0.00    +0.000 S 
ATOM      7  C   UNL     1       0.693   9.104  20.371  0.00  0.00    +0.000 A 
ATOM      8  C   UNL     1       1.410   9.229  19.208  0.00  0.00    +0.000 A 
ATOM      9  C   UNL     1       2.165   8.054  18.920  0.00  0.00    +0.000 A 
ATOM     10  C   UNL     1       1.467  10.479  18.409  0.00  0.00    +0.000 C 
ATOM     11  C   UNL     1       0.334  11.458  18.648  0.00  0.00    +0.000 C 
ATOM     12  C   UNL     1      -0.523  11.305  19.912  0.00  0.00    +0.000 C 
ATOM     13  C   UNL     1      -0.322  10.095  20.855  0.00  0.00    +0.000 C 
BRANCH   9  14
ATOM     14  C   UNL     1       2.961   7.923  17.732  0.00  0.00    +0.000 C 
ATOM     15  N   UNL     1       3.567   7.758  16.758  0.00  0.00    +0.000 NA
ENDBRANCH   9  14
ENDBRANCH   3   5
BRANCH   1  16
ATOM     16  C   UNL     1       3.413   3.619  19.644  0.00  0.00    +0.000 C 
BRANCH  16  17
ATOM     17  S   UNL     1       4.374   3.803  18.121  0.00  0.00    +0.000 S 
BRANCH  17  22
ATOM     18  N   UNL     1       6.961   4.676  17.921  0.00  0.00    +0.000 N 
ATOM     19  N   UNL     1       7.941   5.220  18.668  0.00  0.00    +0.000 NA
ATOM     20  N   UNL     1       7.397   5.426  19.861  0.00  0.00    +0.000 NA
ATOM     21  N   UNL     1       6.088   4.999  19.888  0.00  0.00    +0.000 NA
ATOM     22  C   UNL     1       5.837   4.528  18.689  0.00  0.00    +0.000 A 
BRANCH  18  23
ATOM     23  C   UNL     1       7.220   4.318  16.547  0.00  0.00    +0.000 C 
BRANCH  23  24
ATOM     24  C   UNL     1       6.770   5.361  15.520  0.00  0.00    +0.000 C 
BRANCH  24  26
ATOM     25  C   UNL     1       6.150   3.823  13.626  0.00  0.00    +0.000 C 
ATOM     26  C   UNL     1       5.644   4.863  14.613  0.00  0.00    +0.000 C 
ENDBRANCH  24  26
ENDBRANCH  23  24
ENDBRANCH  18  23
ENDBRANCH  17  22
ENDBRANCH  16  17
ENDBRANCH   1  16
TORSDOF 8
ENDMDL
MODEL 2
REMARK VINA RESULT:      -6.5      2.546      3.734
REMARK  Name = 
REMARK  9 active torsions:
REMARK  status: ('A' for Active; 'I' for Inactive)
REMARK    1  A    between atoms: C_1  and  C_2
REMARK    2  A    between atoms: C_2  and  C_3
REMARK    3  A    between atoms: C_3  and  C_4
REMARK    4  A    between atoms: C_4  and  N_5
REMARK    5  A    between atoms: C_9  and  S_10
REMARK    6  A    between atoms: S_10  and  C_11
REMARK    7  A    between atoms: C_11  and  C_12
REMARK    8  A    between atoms: N_14  and  C_15
REMARK    9  A    between atoms: C_19  and  C_20
REMARK                            x       y       z     vdW  Elec       q    Type
REMARK                         _______ _______ _______ _____ _____    ______ ____
ROOT
ATOM      1  C   UNL     1       4.845   5.312  18.375  0.00  0.00    +0.000 C 
ATOM      2  O   UNL     1       5.516   5.923  19.217  0.00  0.00    +0.000 OA
ATOM      3  N   UNL     1       3.595   5.709  17.953  0.00  0.00    +0.000 N 
ATOM      4  H   UNL     1       3.280   5.504  17.017  0.00  0.00    +0.000 HD
ENDROOT
BRANCH   3   5
ATOM      5  C   UNL     1       2.876   6.638  18.702  0.00  0.00    +0.000 A 
ATOM      6  S   UNL     1       2.538   8.169  18.026  0.00  0.00    +0.000 S 
ATOM      7  C   UNL     1       1.653   8.677  19.417  0.00  0.00    +0.000 A 
ATOM      8  C   UNL     1       1.465   7.628  20.281  0.00  0.00    +0.000 A 
ATOM      9  C   UNL     1       2.279   6.508  19.942  0.00  0.00    +0.000 A 
ATOM     10  C   UNL     1       0.458   7.635  21.372  0.00  0.00    +0.000 C 
ATOM     11  C   UNL     1      -0.020   9.005  21.810  0.00  0.00    +0.000 C 
ATOM     12  C   UNL     1       0.230  10.207  20.889  0.00  0.00    +0.000 C 
ATOM     13  C   UNL     1       1.073  10.047  19.602  0.00  0.00    +0.000 C 
BRANCH   9  14
ATOM     14  C   UNL     1       2.294   5.303  20.724  0.00  0.00    +0.000 C 
ATOM     15  N   UNL     1       2.293   4.372  21.413  0.00  0.00    +0.000 NA
ENDBRANCH   9  14
ENDBRANCH   3   5
BRANCH   1  16
ATOM     16  C   UNL     1       5.429   4.046  17.730  0.00  0.00    +0.000 C 
BRANCH  16  17
ATOM     17  S   UNL     1       4.793   3.888  16.042  0.00  0.00    +0.000 S 
BRANCH  17  22
ATOM     18  N   UNL     1       6.344   4.133  13.800  0.00  0.00    +0.000 N 
ATOM     19  N   UNL     1       7.458   4.751  13.363  0.00  0.00    +0.000 NA
ATOM     20  N   UNL     1       7.853   5.515  14.373  0.00  0.00    +0.000 NA
ATOM     21  N   UNL     1       7.014   5.375  15.456  0.00  0.00    +0.000 NA
ATOM     22  C   UNL     1       6.097   4.510  15.092  0.00  0.00    +0.000 A 
BRANCH  18  23
ATOM     23  C   UNL     1       5.649   3.208  12.936  0.00  0.00    +0.000 C 
BRANCH  23  24
ATOM     24  C   UNL     1       5.070   3.835  11.664  0.00  0.00    +0.000 C 
BRANCH  24  26
ATOM     25  C   UNL     1       3.148   3.904  10.041  0.00  0.00    +0.000 C 
ATOM     26  C   UNL     1       3.810   3.126  11.166  0.00  0.00    +0.000 C 
ENDBRANCH  24  26
ENDBRANCH  23  24
ENDBRANCH  18  23
ENDBRANCH  17  22
ENDBRANCH  16  17
ENDBRANCH   1  16
TORSDOF 8
ENDMDL
MODEL 3
REMARK VINA RESULT:      -6.5      3.214      4.643
REMARK  Name = 
REMARK  9 active torsions:
REMARK  status: ('A' for Active; 'I' for Inactive)
REMARK    1  A    between atoms: C_1  and  C_2
REMARK    2  A    between atoms: C_2  and  C_3
REMARK    3  A    between atoms: C_3  and  C_4
REMARK    4  A    between atoms: C_4  and  N_5
REMARK    5  A    between atoms: C_9  and  S_10
REMARK    6  A    between atoms: S_10  and  C_11
REMARK    7  A    between atoms: C_11  and  C_12
REMARK    8  A    between atoms: N_14  and  C_15
REMARK    9  A    between atoms: C_19  and  C_20
REMARK                            x       y       z     vdW  Elec       q    Type
REMARK                         _______ _______ _______ _____ _____    ______ ____
ROOT
ATOM      1  C   UNL     1       6.178   5.628  17.367  0.00  0.00    +0.000 C 
ATOM      2  O   UNL     1       6.718   6.446  18.123  0.00  0.00    +0.000 OA
ATOM      3  N   UNL     1       4.824   5.597  17.110  0.00  0.00    +0.000 N 
ATOM      4  H   UNL     1       4.479   5.273  16.219  0.00  0.00    +0.000 HD
ENDROOT
BRANCH   3   5
ATOM      5  C   UNL     1       3.945   6.274  17.951  0.00  0.00    +0.000 A 
ATOM      6  S   UNL     1       3.346   7.800  17.474  0.00  0.00    +0.000 S 
ATOM      7  C   UNL     1       2.372   7.949  18.890  0.00  0.00    +0.000 A 
ATOM      8  C   UNL     1       2.367   6.776  19.601  0.00  0.00    +0.000 A 
ATOM      9  C   UNL     1       3.370   5.872  19.142  0.00  0.00    +0.000 A 
ATOM     10  C   UNL     1       1.366   6.456  20.649  0.00  0.00    +0.000 C 
ATOM     11  C   UNL     1       0.647   7.648  21.250  0.00  0.00    +0.000 C 
ATOM     12  C   UNL     1       0.686   8.990  20.506  0.00  0.00    +0.000 C 
ATOM     13  C   UNL     1       1.556   9.158  19.238  0.00  0.00    +0.000 C 
BRANCH   9  14
ATOM     14  C   UNL     1       3.594   4.594  19.758  0.00  0.00    +0.000 C 
ATOM     15  N   UNL     1       3.767   3.533  20.189  0.00  0.00    +0.000 NA
ENDBRANCH   9  14
ENDBRANCH   3   5
BRANCH   1  16
ATOM     16  C   UNL     1       7.050   4.592  16.642  0.00  0.00    +0.000 C 
BRANCH  16  17
ATOM     17  S   UNL     1       6.099   3.851  15.291  0.00  0.00    +0.000 S 
BRANCH  17  22
ATOM     18  N   UNL     1       6.680   4.027  12.621  0.00  0.00    +0.000 N 
ATOM     19  N   UNL     1       7.460   4.715  11.765  0.00  0.00    +0.000 NA
ATOM     20  N   UNL     1       8.082   5.620  12.509  0.00  0.00    +0.000 NA
ATOM     21  N   UNL     1       7.722   5.503  13.834  0.00  0.00    +0.000 NA
ATOM     22  C   UNL     1       6.867   4.510  13.889  0.00  0.00    +0.000 A 
BRANCH  18  23
ATOM     23  C   UNL     1       5.857   2.946  12.134  0.00  0.00    +0.000 C 
BRANCH  23  24
ATOM     24  C   UNL     1       4.403   3.330  11.846  0.00  0.00    +0.000 C 
BRANCH  24  26
ATOM     25  C   UNL     1       2.806   3.497   9.908  0.00  0.00    +0.000 C 
ATOM     26  C   UNL     1       4.191   3.852  10.424  0.00  0.00    +0.000 C 
ENDBRANCH  24  26
ENDBRANCH  23  24
ENDBRANCH  18  23
ENDBRANCH  17  22
ENDBRANCH  16  17
ENDBRANCH   1  16
TORSDOF 8
ENDMDL
MODEL 4
REMARK VINA RESULT:      -6.3      1.206      1.566
REMARK  Name = 
REMARK  9 active torsions:
REMARK  status: ('A' for Active; 'I' for Inactive)
REMARK    1  A    between atoms: C_1  and  C_2
REMARK    2  A    between atoms: C_2  and  C_3
REMARK    3  A    between atoms: C_3  and  C_4
REMARK    4  A    between atoms: C_4  and  N_5
REMARK    5  A    between atoms: C_9  and  S_10
REMARK    6  A    between atoms: S_10  and  C_11
REMARK    7  A    between atoms: C_11  and  C_12
REMARK    8  A    between atoms: N_14  and  C_15
REMARK    9  A    between atoms: C_19  and  C_20
REMARK                            x       y       z     vdW  Elec       q    Type
REMARK                         _______ _______ _______ _____ _____    ______ ____
ROOT
ATOM      1  C   UNL     1       2.259   5.907  20.198  0.00  0.00    +0.000 C 
ATOM      2  O   UNL     1       1.113   5.511  20.450  0.00  0.00    +0.000 OA
ATOM      3  N   UNL     1       2.679   7.207  20.375  0.00  0.00    +0.000 N 
ATOM      4  H   UNL     1       3.640   7.409  20.603  0.00  0.00    +0.000 HD
ENDROOT
BRANCH   3   5
ATOM      5  C   UNL     1       1.737   8.222  20.527  0.00  0.00    +0.000 A 
ATOM      6  S   UNL     1       1.135   8.571  22.087  0.00  0.00    +0.000 S 
ATOM      7  C   UNL     1       0.149   9.861  21.504  0.00  0.00    +0.000 A 
ATOM      8  C   UNL     1       0.429  10.130  20.188  0.00  0.00    +0.000 A 
ATOM      9  C   UNL     1       1.229   9.108  19.596  0.00  0.00    +0.000 A 
ATOM     10  C   UNL     1       0.029  11.384  19.504  0.00  0.00    +0.000 C 
ATOM     11  C   UNL     1      -1.109  12.147  20.153  0.00  0.00    +0.000 C 
ATOM     12  C   UNL     1      -1.484  11.825  21.607  0.00  0.00    +0.000 C 
ATOM     13  C   UNL     1      -0.804  10.652  22.350  0.00  0.00    +0.000 C 
BRANCH   9  14
ATOM     14  C   UNL     1       1.616   9.139  18.214  0.00  0.00    +0.000 C 
ATOM     15  N   UNL     1       1.983   9.119  17.115  0.00  0.00    +0.000 NA
ENDBRANCH   9  14
ENDBRANCH   3   5
BRANCH   1  16
ATOM     16  C   UNL     1       3.301   4.902  19.682  0.00  0.00    +0.000 C 
BRANCH  16  17
ATOM     17  S   UNL     1       3.835   5.395  18.024  0.00  0.00    +0.000 S 
BRANCH  17  22
ATOM     18  N   UNL     1       6.326   4.984  16.964  0.00  0.00    +0.000 N 
ATOM     19  N   UNL     1       7.587   4.697  17.339  0.00  0.00    +0.000 NA
ATOM     20  N   UNL     1       7.559   4.672  18.665  0.00  0.00    +0.000 NA
ATOM     21  N   UNL     1       6.289   4.919  19.138  0.00  0.00    +0.000 NA
ATOM     22  C   UNL     1       5.538   5.098  18.077  0.00  0.00    +0.000 A 
BRANCH  18  23
ATOM     23  C   UNL     1       5.999   5.085  15.561  0.00  0.00    +0.000 C 
BRANCH  23  24
ATOM     24  C   UNL     1       6.143   3.778  14.776  0.00  0.00    +0.000 C 
BRANCH  24  26
ATOM     25  C   UNL     1       6.545   3.711  12.293  0.00  0.00    +0.000 C 
ATOM     26  C   UNL     1       5.501   3.837  13.390  0.00  0.00    +0.000 C 
ENDBRANCH  24  26
ENDBRANCH  23  24
ENDBRANCH  18  23
ENDBRANCH  17  22
ENDBRANCH  16  17
ENDBRANCH   1  16
TORSDOF 8
ENDMDL
MODEL 5
REMARK VINA RESULT:      -6.2      2.978      4.784
REMARK  Name = 
REMARK  9 active torsions:
REMARK  status: ('A' for Active; 'I' for Inactive)
REMARK    1  A    between atoms: C_1  and  C_2
REMARK    2  A    between atoms: C_2  and  C_3
REMARK    3  A    between atoms: C_3  and  C_4
REMARK    4  A    between atoms: C_4  and  N_5
REMARK    5  A    between atoms: C_9  and  S_10
REMARK    6  A    between atoms: S_10  and  C_11
REMARK    7  A    between atoms: C_11  and  C_12
REMARK    8  A    between atoms: N_14  and  C_15
REMARK    9  A    between atoms: C_19  and  C_20
REMARK                            x       y       z     vdW  Elec       q    Type
REMARK                         _______ _______ _______ _____ _____    ______ ____
ROOT
ATOM      1  C   UNL     1       1.997   9.084  18.159  0.00  0.00    +0.000 C 
ATOM      2  O   UNL     1       2.106  10.197  17.627  0.00  0.00    +0.000 OA
ATOM      3  N   UNL     1       0.997   8.753  19.048  0.00  0.00    +0.000 N 
ATOM      4  H   UNL     1       0.660   7.804  19.109  0.00  0.00    +0.000 HD
ENDROOT
BRANCH   3   5
ATOM      5  C   UNL     1       0.250   9.760  19.654  0.00  0.00    +0.000 A 
ATOM      6  S   UNL     1       0.792  10.423  21.131  0.00  0.00    +0.000 S 
ATOM      7  C   UNL     1      -0.520  11.540  21.203  0.00  0.00    +0.000 A 
ATOM      8  C   UNL     1      -1.233  11.526  20.031  0.00  0.00    +0.000 A 
ATOM      9  C   UNL     1      -0.881  10.417  19.208  0.00  0.00    +0.000 A 
ATOM     10  C   UNL     1      -2.180  12.599  19.635  0.00  0.00    +0.000 C 
ATOM     11  C   UNL     1      -2.700  13.462  20.768  0.00  0.00    +0.000 C 
ATOM     12  C   UNL     1      -1.956  13.451  22.110  0.00  0.00    +0.000 C 
ATOM     13  C   UNL     1      -0.779  12.475  22.346  0.00  0.00    +0.000 C 
BRANCH   9  14
ATOM     14  C   UNL     1      -1.522  10.159  17.949  0.00  0.00    +0.000 C 
ATOM     15  N   UNL     1      -2.084  10.006  16.948  0.00  0.00    +0.000 NA
ENDBRANCH   9  14
ENDBRANCH   3   5
BRANCH   1  16
ATOM     16  C   UNL     1       3.009   7.984  17.805  0.00  0.00    +0.000 C 
BRANCH  16  17
ATOM     17  S   UNL     1       2.878   6.642  19.012  0.00  0.00    +0.000 S 
BRANCH  17  22
ATOM     18  N   UNL     1       2.763   4.197  17.786  0.00  0.00    +0.000 N 
ATOM     19  N   UNL     1       3.555   3.300  17.167  0.00  0.00    +0.000 NA
ATOM     20  N   UNL     1       4.754   3.866  17.121  0.00  0.00    +0.000 NA
ATOM     21  N   UNL     1       4.739   5.105  17.722  0.00  0.00    +0.000 NA
ATOM     22  C   UNL     1       3.508   5.290  18.137  0.00  0.00    +0.000 A 
BRANCH  18  23
ATOM     23  C   UNL     1       1.369   3.893  18.008  0.00  0.00    +0.000 C 
BRANCH  23  24
ATOM     24  C   UNL     1       1.102   2.939  19.176  0.00  0.00    +0.000 C 
BRANCH  24  26
ATOM     25  C   UNL     1       2.140   3.141  21.459  0.00  0.00    +0.000 C 
ATOM     26  C   UNL     1       1.050   3.648  20.529  0.00  0.00    +0.000 C 
ENDBRANCH  24  26
ENDBRANCH  23  24
ENDBRANCH  18  23
ENDBRANCH  17  22
ENDBRANCH  16  17
ENDBRANCH   1  16
TORSDOF 8
ENDMDL
MODEL 6
REMARK VINA RESULT:      -6.2      2.279      3.464
REMARK  Name = 
REMARK  9 active torsions:
REMARK  status: ('A' for Active; 'I' for Inactive)
REMARK    1  A    between atoms: C_1  and  C_2
REMARK    2  A    between atoms: C_2  and  C_3
REMARK    3  A    between atoms: C_3  and  C_4
REMARK    4  A    between atoms: C_4  and  N_5
REMARK    5  A    between atoms: C_9  and  S_10
REMARK    6  A    between atoms: S_10  and  C_11
REMARK    7  A    between atoms: C_11  and  C_12
REMARK    8  A    between atoms: N_14  and  C_15
REMARK    9  A    between atoms: C_19  and  C_20
REMARK                            x       y       z     vdW  Elec       q    Type
REMARK                         _______ _______ _______ _____ _____    ______ ____
ROOT
ATOM      1  C   UNL     1       4.582   4.981  18.575  0.00  0.00    +0.000 C 
ATOM      2  O   UNL     1       5.283   5.555  19.420  0.00  0.00    +0.000 OA
ATOM      3  N   UNL     1       3.400   5.490  18.084  0.00  0.00    +0.000 N 
ATOM      4  H   UNL     1       3.101   5.278  17.145  0.00  0.00    +0.000 HD
ENDROOT
BRANCH   3   5
ATOM      5  C   UNL     1       2.757   6.523  18.764  0.00  0.00    +0.000 A 
ATOM      6  S   UNL     1       2.567   8.034  17.993  0.00  0.00    +0.000 S 
ATOM      7  C   UNL     1       1.712   8.701  19.334  0.00  0.00    +0.000 A 
ATOM      8  C   UNL     1       1.419   7.727  20.255  0.00  0.00    +0.000 A 
ATOM      9  C   UNL     1       2.134   6.520  19.998  0.00  0.00    +0.000 A 
ATOM     10  C   UNL     1       0.403   7.888  21.325  0.00  0.00    +0.000 C 
ATOM     11  C   UNL     1       0.043   9.319  21.673  0.00  0.00    +0.000 C 
ATOM     12  C   UNL     1       0.412  10.437  20.687  0.00  0.00    +0.000 C 
ATOM     13  C   UNL     1       1.255  10.126  19.429  0.00  0.00    +0.000 C 
BRANCH   9  14
ATOM     14  C   UNL     1       2.031   5.368  20.849  0.00  0.00    +0.000 C 
ATOM     15  N   UNL     1       2.014   4.455  21.561  0.00  0.00    +0.000 NA
ENDBRANCH   9  14
ENDBRANCH   3   5
BRANCH   1  16
ATOM     16  C   UNL     1       5.051   3.633  18.007  0.00  0.00    +0.000 C 
BRANCH  16  17
ATOM     17  S   UNL     1       4.675   3.568  16.237  0.00  0.00    +0.000 S 
BRANCH  17  22
ATOM     18  N   UNL     1       6.218   4.552  14.201  0.00  0.00    +0.000 N 
ATOM     19  N   UNL     1       7.330   5.284  13.992  0.00  0.00    +0.000 NA
ATOM     20  N   UNL     1       7.727   5.667  15.199  0.00  0.00    +0.000 NA
ATOM     21  N   UNL     1       6.892   5.171  16.176  0.00  0.00    +0.000 NA
ATOM     22  C   UNL     1       5.975   4.475  15.546  0.00  0.00    +0.000 A 
BRANCH  18  23
ATOM     23  C   UNL     1       5.521   3.968  13.080  0.00  0.00    +0.000 C 
BRANCH  23  24
ATOM     24  C   UNL     1       6.406   3.158  12.129  0.00  0.00    +0.000 C 
BRANCH  24  26
ATOM     25  C   UNL     1       6.617   0.970  10.904  0.00  0.00    +0.000 C 
ATOM     26  C   UNL     1       5.656   2.022  11.433  0.00  0.00    +0.000 C 
ENDBRANCH  24  26
ENDBRANCH  23  24
ENDBRANCH  18  23
ENDBRANCH  17  22
ENDBRANCH  16  17
ENDBRANCH   1  16
TORSDOF 8
ENDMDL
MODEL 7
REMARK VINA RESULT:      -6.2      2.946      4.794
REMARK  Name = 
REMARK  9 active torsions:
REMARK  status: ('A' for Active; 'I' for Inactive)
REMARK    1  A    between atoms: C_1  and  C_2
REMARK    2  A    between atoms: C_2  and  C_3
REMARK    3  A    between atoms: C_3  and  C_4
REMARK    4  A    between atoms: C_4  and  N_5
REMARK    5  A    between atoms: C_9  and  S_10
REMARK    6  A    between atoms: S_10  and  C_11
REMARK    7  A    between atoms: C_11  and  C_12
REMARK    8  A    between atoms: N_14  and  C_15
REMARK    9  A    between atoms: C_19  and  C_20
REMARK                            x       y       z     vdW  Elec       q    Type
REMARK                         _______ _______ _______ _____ _____    ______ ____
ROOT
ATOM      1  C   UNL     1       1.622   8.904  18.662  0.00  0.00    +0.000 C 
ATOM      2  O   UNL     1       1.247   8.604  19.803  0.00  0.00    +0.000 OA
ATOM      3  N   UNL     1       1.144   9.987  17.957  0.00  0.00    +0.000 N 
ATOM      4  H   UNL     1       1.731  10.465  17.290  0.00  0.00    +0.000 HD
ENDROOT
BRANCH   3   5
ATOM      5  C   UNL     1      -0.037  10.608  18.359  0.00  0.00    +0.000 A 
ATOM      6  S   UNL     1      -1.504  10.177  17.600  0.00  0.00    +0.000 S 
ATOM      7  C   UNL     1      -2.425  11.243  18.595  0.00  0.00    +0.000 A 
ATOM      8  C   UNL     1      -1.648  11.759  19.601  0.00  0.00    +0.000 A 
ATOM      9  C   UNL     1      -0.261  11.509  19.383  0.00  0.00    +0.000 A 
ATOM     10  C   UNL     1      -2.202  12.408  20.815  0.00  0.00    +0.000 C 
ATOM     11  C   UNL     1      -3.626  12.916  20.692  0.00  0.00    +0.000 C 
ATOM     12  C   UNL     1      -4.499  12.400  19.540  0.00  0.00    +0.000 C 
ATOM     13  C   UNL     1      -3.897  11.484  18.448  0.00  0.00    +0.000 C 
BRANCH   9  14
ATOM     14  C   UNL     1       0.757  11.990  20.274  0.00  0.00    +0.000 C 
ATOM     15  N   UNL     1       1.626  12.370  20.940  0.00  0.00    +0.000 NA
ENDBRANCH   9  14
ENDBRANCH   3   5
BRANCH   1  16
ATOM     16  C   UNL     1       2.702   8.050  17.981  0.00  0.00    +0.000 C 
BRANCH  16  17
ATOM     17  S   UNL     1       2.894   6.495  18.889  0.00  0.00    +0.000 S 
BRANCH  17  22
ATOM     18  N   UNL     1       3.967   4.174  17.912  0.00  0.00    +0.000 N 
ATOM     19  N   UNL     1       4.770   3.727  16.927  0.00  0.00    +0.000 NA
ATOM     20  N   UNL     1       5.056   4.797  16.198  0.00  0.00    +0.000 NA
ATOM     21  N   UNL     1       4.461   5.925  16.719  0.00  0.00    +0.000 NA
ATOM     22  C   UNL     1       3.803   5.527  17.782  0.00  0.00    +0.000 A 
BRANCH  18  23
ATOM     23  C   UNL     1       3.465   3.252  18.904  0.00  0.00    +0.000 C 
BRANCH  23  24
ATOM     24  C   UNL     1       2.460   2.227  18.373  0.00  0.00    +0.000 C 
BRANCH  24  26
ATOM     25  C   UNL     1       0.899   3.363  19.987  0.00  0.00    +0.000 C 
ATOM     26  C   UNL     1       1.008   2.595  18.679  0.00  0.00    +0.000 C 
ENDBRANCH  24  26
ENDBRANCH  23  24
ENDBRANCH  18  23
ENDBRANCH  17  22
ENDBRANCH  16  17
ENDBRANCH   1  16
TORSDOF 8
ENDMDL
MODEL 8
REMARK VINA RESULT:      -6.1      2.786      4.174
REMARK  Name = 
REMARK  9 active torsions:
REMARK  status: ('A' for Active; 'I' for Inactive)
REMARK    1  A    between atoms: C_1  and  C_2
REMARK    2  A    between atoms: C_2  and  C_3
REMARK    3  A    between atoms: C_3  and  C_4
REMARK    4  A    between atoms: C_4  and  N_5
REMARK    5  A    between atoms: C_9  and  S_10
REMARK    6  A    between atoms: S_10  and  C_11
REMARK    7  A    between atoms: C_11  and  C_12
REMARK    8  A    between atoms: N_14  and  C_15
REMARK    9  A    between atoms: C_19  and  C_20
REMARK                            x       y       z     vdW  Elec       q    Type
REMARK                         _______ _______ _______ _____ _____    ______ ____
ROOT
ATOM      1  C   UNL     1       1.913   8.701  18.680  0.00  0.00    +0.000 C 
ATOM      2  O   UNL     1       1.684   8.143  19.761  0.00  0.00    +0.000 OA
ATOM      3  N   UNL     1       1.520   9.988  18.381  0.00  0.00    +0.000 N 
ATOM      4  H   UNL     1       2.063  10.557  17.750  0.00  0.00    +0.000 HD
ENDROOT
BRANCH   3   5
ATOM      5  C   UNL     1       0.547  10.611  19.159  0.00  0.00    +0.000 A 
ATOM      6  S   UNL     1       1.017  11.431  20.581  0.00  0.00    +0.000 S 
ATOM      7  C   UNL     1      -0.598  11.931  20.922  0.00  0.00    +0.000 A 
ATOM      8  C   UNL     1      -1.429  11.639  19.870  0.00  0.00    +0.000 A 
ATOM      9  C   UNL     1      -0.808  10.765  18.930  0.00  0.00    +0.000 A 
ATOM     10  C   UNL     1      -2.771  12.246  19.691  0.00  0.00    +0.000 C 
ATOM     11  C   UNL     1      -3.397  12.826  20.945  0.00  0.00    +0.000 C 
ATOM     12  C   UNL     1      -2.501  13.108  22.158  0.00  0.00    +0.000 C 
ATOM     13  C   UNL     1      -1.014  12.683  22.151  0.00  0.00    +0.000 C 
BRANCH   9  14
ATOM     14  C   UNL     1      -1.492  10.277  17.765  0.00  0.00    +0.000 C 
ATOM     15  N   UNL     1      -1.985   9.844  16.811  0.00  0.00    +0.000 NA
ENDBRANCH   9  14
ENDBRANCH   3   5
BRANCH   1  16
ATOM     16  C   UNL     1       2.703   7.945  17.601  0.00  0.00    +0.000 C 
BRANCH  16  17
ATOM     17  S   UNL     1       3.660   6.621  18.380  0.00  0.00    +0.000 S 
BRANCH  17  22
ATOM     18  N   UNL     1       3.407   4.092  17.360  0.00  0.00    +0.000 N 
ATOM     19  N   UNL     1       2.464   3.189  17.028  0.00  0.00    +0.000 NA
ATOM     20  N   UNL     1       1.312   3.741  17.384  0.00  0.00    +0.000 NA
ATOM     21  N   UNL     1       1.508   4.994  17.920  0.00  0.00    +0.000 NA
ATOM     22  C   UNL     1       2.803   5.202  17.888  0.00  0.00    +0.000 A 
BRANCH  18  23
ATOM     23  C   UNL     1       4.799   3.808  17.101  0.00  0.00    +0.000 C 
BRANCH  23  24
ATOM     24  C   UNL     1       5.291   4.237  15.716  0.00  0.00    +0.000 C 
BRANCH  24  26
ATOM     25  C   UNL     1       7.371   4.617  17.081  0.00  0.00    +0.000 C 
ATOM     26  C   UNL     1       6.692   4.850  15.741  0.00  0.00    +0.000 C 
ENDBRANCH  24  26
ENDBRANCH  23  24
ENDBRANCH  18  23
ENDBRANCH  17  22
ENDBRANCH  16  17
ENDBRANCH   1  16
TORSDOF 8
ENDMDL
MODEL 9
REMARK VINA RESULT:      -6.0      2.858      3.989
REMARK  Name = 
REMARK  9 active torsions:
REMARK  status: ('A' for Active; 'I' for Inactive)
REMARK    1  A    between atoms: C_1  and  C_2
REMARK    2  A    between atoms: C_2  and  C_3
REMARK    3  A    between atoms: C_3  and  C_4
REMARK    4  A    between atoms: C_4  and  N_5
REMARK    5  A    between atoms: C_9  and  S_10
REMARK    6  A    between atoms: S_10  and  C_11
REMARK    7  A    between atoms: C_11  and  C_12
REMARK    8  A    between atoms: N_14  and  C_15
REMARK    9  A    between atoms: C_19  and  C_20
REMARK                            x       y       z     vdW  Elec       q    Type
REMARK                         _______ _______ _______ _____ _____    ______ ____
ROOT
ATOM      1  C   UNL     1       1.929   9.027  18.181  0.00  0.00    +0.000 C 
ATOM      2  O   UNL     1       2.018  10.119  17.605  0.00  0.00    +0.000 OA
ATOM      3  N   UNL     1       0.962   8.729  19.117  0.00  0.00    +0.000 N 
ATOM      4  H   UNL     1       0.628   7.784  19.225  0.00  0.00    +0.000 HD
ENDROOT
BRANCH   3   5
ATOM      5  C   UNL     1       0.236   9.758  19.712  0.00  0.00    +0.000 A 
ATOM      6  S   UNL     1       0.789  10.424  21.183  0.00  0.00    +0.000 S 
ATOM      7  C   UNL     1      -0.498  11.570  21.241  0.00  0.00    +0.000 A 
ATOM      8  C   UNL     1      -1.210  11.561  20.068  0.00  0.00    +0.000 A 
ATOM      9  C   UNL     1      -0.880  10.435  19.256  0.00  0.00    +0.000 A 
ATOM     10  C   UNL     1      -2.131  12.649  19.659  0.00  0.00    +0.000 C 
ATOM     11  C   UNL     1      -2.635  13.535  20.782  0.00  0.00    +0.000 C 
ATOM     12  C   UNL     1      -1.894  13.521  22.126  0.00  0.00    +0.000 C 
ATOM     13  C   UNL     1      -0.739  12.522  22.374  0.00  0.00    +0.000 C 
BRANCH   9  14
ATOM     14  C   UNL     1      -1.524  10.179  17.999  0.00  0.00    +0.000 C 
ATOM     15  N   UNL     1      -2.050   9.904  17.004  0.00  0.00    +0.000 NA
ENDBRANCH   9  14
ENDBRANCH   3   5
BRANCH   1  16
ATOM     16  C   UNL     1       2.929   7.914  17.833  0.00  0.00    +0.000 C 
BRANCH  16  17
ATOM     17  S   UNL     1       2.890   6.650  19.127  0.00  0.00    +0.000 S 
BRANCH  17  22
ATOM     18  N   UNL     1       3.760   4.539  17.616  0.00  0.00    +0.000 N 
ATOM     19  N   UNL     1       3.289   3.472  16.942  0.00  0.00    +0.000 NA
ATOM     20  N   UNL     1       1.981   3.467  17.166  0.00  0.00    +0.000 NA
ATOM     21  N   UNL     1       1.611   4.531  17.959  0.00  0.00    +0.000 NA
ATOM     22  C   UNL     1       2.717   5.189  18.218  0.00  0.00    +0.000 A 
BRANCH  18  23
ATOM     23  C   UNL     1       5.171   4.845  17.582  0.00  0.00    +0.000 C 
BRANCH  23  24
ATOM     24  C   UNL     1       5.572   5.888  16.535  0.00  0.00    +0.000 C 
BRANCH  24  26
ATOM     25  C   UNL     1       6.347   4.068  14.980  0.00  0.00    +0.000 C 
ATOM     26  C   UNL     1       5.537   5.348  15.105  0.00  0.00    +0.000 C 
ENDBRANCH  24  26
ENDBRANCH  23  24
ENDBRANCH  18  23
ENDBRANCH  17  22
ENDBRANCH  16  17
ENDBRANCH   1  16
TORSDOF 8
ENDMDL
