MODEL 1
REMARK VINA RESULT:      -8.1      0.000      0.000
REMARK  Name = 
REMARK  4 active torsions:
REMARK  status: ('A' for Active; 'I' for Inactive)
REMARK    1  A    between atoms: C_4  and  C_5
REMARK    2  A    between atoms: N_14  and  C_15
REMARK    3  A    between atoms: C_15  and  N_16
REMARK    4  A    between atoms: N_19  and  C_20
REMARK                            x       y       z     vdW  Elec       q    Type
REMARK                         _______ _______ _______ _____ _____    ______ ____
ROOT
ATOM      1  O   UNL     1       7.238   4.855  19.233  0.00  0.00    +0.000 OA
ATOM      2  C   UNL     1       6.862   5.056  18.090  0.00  0.00    +0.000 C 
ATOM      3  C   UNL     1       7.418   4.377  16.879  0.00  0.00    +0.000 C 
ATOM      4  C   UNL     1       7.136   5.388  15.774  0.00  0.00    +0.000 C 
ATOM      5  C   UNL     1       6.084   6.305  16.396  0.00  0.00    +0.000 C 
ATOM      6  O   UNL     1       5.618   7.287  15.841  0.00  0.00    +0.000 OA
ATOM      7  N   UNL     1       5.877   5.906  17.685  0.00  0.00    +0.000 N 
ENDROOT
BRANCH   4   8
ATOM      8  C   UNL     1       6.706   4.752  14.476  0.00  0.00    +0.000 A 
ATOM      9  C   UNL     1       5.514   4.016  14.391  0.00  0.00    +0.000 A 
ATOM     10  C   UNL     1       5.130   3.427  13.181  0.00  0.00    +0.000 A 
ATOM     11  C   UNL     1       5.934   3.551  12.044  0.00  0.00    +0.000 A 
ATOM     12  C   UNL     1       7.115   4.288  12.111  0.00  0.00    +0.000 A 
ATOM     13  C   UNL     1       7.490   4.874  13.317  0.00  0.00    +0.000 A 
ATOM     14  F   UNL     1       8.620   5.592  13.352  0.00  0.00    +0.000 F 
ENDBRANCH   4   8
BRANCH   7  15
ATOM     15  C   UNL     1       4.922   6.509  18.594  0.00  0.00    +0.000 C 
BRANCH  15  16
ATOM     16  N   UNL     1       3.562   6.244  18.110  0.00  0.00    +0.000 NA
ATOM     17  C   UNL     1       2.642   5.687  19.120  0.00  0.00    +0.000 C 
ATOM     18  C   UNL     1       2.203   6.656  20.237  0.00  0.00    +0.000 C 
ATOM     19  N   UNL     1       1.604   7.885  19.684  0.00  0.00    +0.000 N 
ATOM     20  C   UNL     1       2.303   8.488  18.528  0.00  0.00    +0.000 C 
ATOM     21  C   UNL     1       2.915   7.446  17.546  0.00  0.00    +0.000 C 
BRANCH  19  22
ATOM     22  C   UNL     1       0.873   8.721  20.555  0.00  0.00    +0.000 A 
ATOM     23  C   UNL     1       1.041   8.626  21.952  0.00  0.00    +0.000 A 
ATOM     24  C   UNL     1       0.435   9.521  22.850  0.00  0.00    +0.000 A 
ATOM     25  C   UNL     1      -0.376  10.551  22.386  0.00  0.00    +0.000 A 
ATOM     26  C   UNL     1      -0.603  10.656  21.019  0.00  0.00    +0.000 A 
ATOM     27  C   UNL     1       0.009   9.765  20.133  0.00  0.00    +0.000 A 
ATOM     28  F   UNL     1      -0.282   9.931  18.831  0.00  0.00    +0.000 F 
ENDBRANCH  19  22
ENDBRANCH  15  16
ENDBRANCH   7  15
TORSDOF 4
ENDMDL
MODEL 2
REMARK VINA RESULT:      -7.8      0.927      1.299
REMARK  Name = 
REMARK  4 active torsions:
REMARK  status: ('A' for Active; 'I' for Inactive)
REMARK    1  A    between atoms: C_4  and  C_5
REMARK    2  A    between atoms: N_14  and  C_15
REMARK    3  A    between atoms: C_15  and  N_16
REMARK    4  A    between atoms: N_19  and  C_20
REMARK                            x       y       z     vdW  Elec       q    Type
REMARK                         _______ _______ _______ _____ _____    ______ ____
ROOT
ATOM      1  O   UNL     1       7.041   4.894  19.436  0.00  0.00    +0.000 OA
ATOM      2  C   UNL     1       6.727   5.102  18.276  0.00  0.00    +0.000 C 
ATOM      3  C   UNL     1       7.304   4.387  17.096  0.00  0.00    +0.000 C 
ATOM      4  C   UNL     1       7.122   5.400  15.973  0.00  0.00    +0.000 C 
ATOM      5  C   UNL     1       6.088   6.372  16.540  0.00  0.00    +0.000 C 
ATOM      6  O   UNL     1       5.695   7.370  15.957  0.00  0.00    +0.000 OA
ATOM      7  N   UNL     1       5.804   5.995  17.821  0.00  0.00    +0.000 N 
ENDROOT
BRANCH   4   8
ATOM      8  C   UNL     1       6.721   4.774  14.660  0.00  0.00    +0.000 A 
ATOM      9  C   UNL     1       7.558   4.849  13.537  0.00  0.00    +0.000 A 
ATOM     10  C   UNL     1       7.171   4.268  12.324  0.00  0.00    +0.000 A 
ATOM     11  C   UNL     1       5.939   3.616  12.211  0.00  0.00    +0.000 A 
ATOM     12  C   UNL     1       5.102   3.525  13.321  0.00  0.00    +0.000 A 
ATOM     13  C   UNL     1       5.495   4.102  14.525  0.00  0.00    +0.000 A 
ATOM     14  F   UNL     1       4.682   3.986  15.583  0.00  0.00    +0.000 F 
ENDBRANCH   4   8
BRANCH   7  15
ATOM     15  C   UNL     1       4.838   6.651  18.680  0.00  0.00    +0.000 C 
BRANCH  15  16
ATOM     16  N   UNL     1       3.487   6.409  18.161  0.00  0.00    +0.000 NA
ATOM     17  C   UNL     1       2.543   5.828  19.135  0.00  0.00    +0.000 C 
ATOM     18  C   UNL     1       2.087   6.765  20.272  0.00  0.00    +0.000 C 
ATOM     19  N   UNL     1       1.506   8.014  19.745  0.00  0.00    +0.000 N 
ATOM     20  C   UNL     1       2.233   8.648  18.623  0.00  0.00    +0.000 C 
ATOM     21  C   UNL     1       2.859   7.633  17.622  0.00  0.00    +0.000 C 
BRANCH  19  22
ATOM     22  C   UNL     1       0.763   8.828  20.626  0.00  0.00    +0.000 A 
ATOM     23  C   UNL     1       0.902   8.689  22.022  0.00  0.00    +0.000 A 
ATOM     24  C   UNL     1       0.282   9.560  22.935  0.00  0.00    +0.000 A 
ATOM     25  C   UNL     1      -0.513  10.609  22.487  0.00  0.00    +0.000 A 
ATOM     26  C   UNL     1      -0.711  10.758  21.119  0.00  0.00    +0.000 A 
ATOM     27  C   UNL     1      -0.086   9.890  20.219  0.00  0.00    +0.000 A 
ATOM     28  F   UNL     1      -0.348  10.098  18.917  0.00  0.00    +0.000 F 
ENDBRANCH  19  22
ENDBRANCH  15  16
ENDBRANCH   7  15
TORSDOF 4
ENDMDL
MODEL 3
REMARK VINA RESULT:      -7.5      0.885      1.272
REMARK  Name = 
REMARK  4 active torsions:
REMARK  status: ('A' for Active; 'I' for Inactive)
REMARK    1  A    between atoms: C_4  and  C_5
REMARK    2  A    between atoms: N_14  and  C_15
REMARK    3  A    between atoms: C_15  and  N_16
REMARK    4  A    between atoms: N_19  and  C_20
REMARK                            x       y       z     vdW  Elec       q    Type
REMARK                         _______ _______ _______ _____ _____    ______ ____
ROOT
ATOM      1  O   UNL     1       7.157   4.914  19.230  0.00  0.00    +0.000 OA
ATOM      2  C   UNL     1       6.789   5.099  18.082  0.00  0.00    +0.000 C 
ATOM      3  C   UNL     1       7.347   4.398  16.884  0.00  0.00    +0.000 C 
ATOM      4  C   UNL     1       7.078   5.392  15.762  0.00  0.00    +0.000 C 
ATOM      5  C   UNL     1       6.028   6.325  16.363  0.00  0.00    +0.000 C 
ATOM      6  O   UNL     1       5.570   7.300  15.790  0.00  0.00    +0.000 OA
ATOM      7  N   UNL     1       5.811   5.948  17.657  0.00  0.00    +0.000 N 
ENDROOT
BRANCH   4   8
ATOM      8  C   UNL     1       6.651   4.738  14.472  0.00  0.00    +0.000 A 
ATOM      9  C   UNL     1       5.460   3.999  14.394  0.00  0.00    +0.000 A 
ATOM     10  C   UNL     1       5.079   3.393  13.191  0.00  0.00    +0.000 A 
ATOM     11  C   UNL     1       5.886   3.504  12.054  0.00  0.00    +0.000 A 
ATOM     12  C   UNL     1       7.066   4.243  12.114  0.00  0.00    +0.000 A 
ATOM     13  C   UNL     1       7.437   4.846  13.313  0.00  0.00    +0.000 A 
ATOM     14  F   UNL     1       8.566   5.567  13.340  0.00  0.00    +0.000 F 
ENDBRANCH   4   8
BRANCH   7  15
ATOM     15  C   UNL     1       4.854   6.570  18.551  0.00  0.00    +0.000 C 
BRANCH  15  16
ATOM     16  N   UNL     1       3.497   6.340  18.041  0.00  0.00    +0.000 NA
ATOM     17  C   UNL     1       2.511   5.941  19.063  0.00  0.00    +0.000 C 
ATOM     18  C   UNL     1       2.096   7.039  20.063  0.00  0.00    +0.000 C 
ATOM     19  N   UNL     1       1.594   8.242  19.372  0.00  0.00    +0.000 N 
ATOM     20  C   UNL     1       2.369   8.686  18.193  0.00  0.00    +0.000 C 
ATOM     21  C   UNL     1       2.947   7.518  17.340  0.00  0.00    +0.000 C 
BRANCH  19  22
ATOM     22  C   UNL     1       0.888   9.201  20.130  0.00  0.00    +0.000 A 
ATOM     23  C   UNL     1       0.048  10.140  19.498  0.00  0.00    +0.000 A 
ATOM     24  C   UNL     1      -0.772  11.026  20.217  0.00  0.00    +0.000 A 
ATOM     25  C   UNL     1      -0.781  11.015  21.607  0.00  0.00    +0.000 A 
ATOM     26  C   UNL     1       0.064  10.133  22.272  0.00  0.00    +0.000 A 
ATOM     27  C   UNL     1       0.871   9.252  21.548  0.00  0.00    +0.000 A 
ATOM     28  F   UNL     1       1.668   8.447  22.273  0.00  0.00    +0.000 F 
ENDBRANCH  19  22
ENDBRANCH  15  16
ENDBRANCH   7  15
TORSDOF 4
ENDMDL
MODEL 4
REMARK VINA RESULT:      -7.3      3.979     10.825
REMARK  Name = 
REMARK  4 active torsions:
REMARK  status: ('A' for Active; 'I' for Inactive)
REMARK    1  A    between atoms: C_4  and  C_5
REMARK    2  A    between atoms: N_14  and  C_15
REMARK    3  A    between atoms: C_15  and  N_16
REMARK    4  A    between atoms: N_19  and  C_20
REMARK                            x       y       z     vdW  Elec       q    Type
REMARK                         _______ _______ _______ _____ _____    ______ ____
ROOT
ATOM      1  O   UNL     1      -1.231  11.479  18.019  0.00  0.00    +0.000 OA
ATOM      2  C   UNL     1      -1.438  11.619  19.213  0.00  0.00    +0.000 C 
ATOM      3  C   UNL     1      -2.282  12.699  19.811  0.00  0.00    +0.000 C 
ATOM      4  C   UNL     1      -1.700  12.839  21.211  0.00  0.00    +0.000 C 
ATOM      5  C   UNL     1      -0.903  11.548  21.391  0.00  0.00    +0.000 C 
ATOM      6  O   UNL     1      -0.238  11.286  22.381  0.00  0.00    +0.000 OA
ATOM      7  N   UNL     1      -0.970  10.838  20.227  0.00  0.00    +0.000 N 
ENDROOT
BRANCH   4   8
ATOM      8  C   UNL     1      -2.745  13.069  22.275  0.00  0.00    +0.000 A 
ATOM      9  C   UNL     1      -4.084  12.706  22.063  0.00  0.00    +0.000 A 
ATOM     10  C   UNL     1      -5.044  12.930  23.056  0.00  0.00    +0.000 A 
ATOM     11  C   UNL     1      -4.686  13.529  24.268  0.00  0.00    +0.000 A 
ATOM     12  C   UNL     1      -3.358  13.885  24.496  0.00  0.00    +0.000 A 
ATOM     13  C   UNL     1      -2.407  13.656  23.505  0.00  0.00    +0.000 A 
ATOM     14  F   UNL     1      -1.134  13.989  23.754  0.00  0.00    +0.000 F 
ENDBRANCH   4   8
BRANCH   7  15
ATOM     15  C   UNL     1      -0.367   9.537  20.017  0.00  0.00    +0.000 C 
BRANCH  15  16
ATOM     16  N   UNL     1       1.090   9.652  20.149  0.00  0.00    +0.000 NA
ATOM     17  C   UNL     1       1.726   8.587  20.948  0.00  0.00    +0.000 C 
ATOM     18  C   UNL     1       1.758   7.188  20.300  0.00  0.00    +0.000 C 
ATOM     19  N   UNL     1       2.395   7.221  18.970  0.00  0.00    +0.000 N 
ATOM     20  C   UNL     1       2.007   8.343  18.089  0.00  0.00    +0.000 C 
ATOM     21  C   UNL     1       1.777   9.687  18.842  0.00  0.00    +0.000 C 
BRANCH  19  22
ATOM     22  C   UNL     1       2.786   5.996  18.388  0.00  0.00    +0.000 A 
ATOM     23  C   UNL     1       1.900   4.900  18.355  0.00  0.00    +0.000 A 
ATOM     24  C   UNL     1       2.195   3.706  17.674  0.00  0.00    +0.000 A 
ATOM     25  C   UNL     1       3.401   3.556  16.998  0.00  0.00    +0.000 A 
ATOM     26  C   UNL     1       4.322   4.596  17.039  0.00  0.00    +0.000 A 
ATOM     27  C   UNL     1       4.016   5.780  17.714  0.00  0.00    +0.000 A 
ATOM     28  F   UNL     1       4.974   6.725  17.715  0.00  0.00    +0.000 F 
ENDBRANCH  19  22
ENDBRANCH  15  16
ENDBRANCH   7  15
TORSDOF 4
ENDMDL
MODEL 5
REMARK VINA RESULT:      -7.3      2.551      3.830
REMARK  Name = 
REMARK  4 active torsions:
REMARK  status: ('A' for Active; 'I' for Inactive)
REMARK    1  A    between atoms: C_4  and  C_5
REMARK    2  A    between atoms: N_14  and  C_15
REMARK    3  A    between atoms: C_15  and  N_16
REMARK    4  A    between atoms: N_19  and  C_20
REMARK                            x       y       z     vdW  Elec       q    Type
REMARK                         _______ _______ _______ _____ _____    ______ ____
ROOT
ATOM      1  O   UNL     1       0.834   3.324  18.615  0.00  0.00    +0.000 OA
ATOM      2  C   UNL     1       1.924   3.817  18.377  0.00  0.00    +0.000 C 
ATOM      3  C   UNL     1       2.927   3.248  17.425  0.00  0.00    +0.000 C 
ATOM      4  C   UNL     1       4.244   3.785  17.970  0.00  0.00    +0.000 C 
ATOM      5  C   UNL     1       3.806   4.929  18.884  0.00  0.00    +0.000 C 
ATOM      6  O   UNL     1       4.572   5.601  19.556  0.00  0.00    +0.000 OA
ATOM      7  N   UNL     1       2.441   4.963  18.903  0.00  0.00    +0.000 N 
ENDROOT
BRANCH   4   8
ATOM      8  C   UNL     1       5.215   4.199  16.892  0.00  0.00    +0.000 A 
ATOM      9  C   UNL     1       4.784   4.409  15.573  0.00  0.00    +0.000 A 
ATOM     10  C   UNL     1       5.697   4.786  14.582  0.00  0.00    +0.000 A 
ATOM     11  C   UNL     1       7.052   4.947  14.888  0.00  0.00    +0.000 A 
ATOM     12  C   UNL     1       7.492   4.752  16.196  0.00  0.00    +0.000 A 
ATOM     13  C   UNL     1       6.578   4.380  17.178  0.00  0.00    +0.000 A 
ATOM     14  F   UNL     1       7.021   4.216  18.431  0.00  0.00    +0.000 F 
ENDBRANCH   4   8
BRANCH   7  15
ATOM     15  C   UNL     1       1.649   5.935  19.629  0.00  0.00    +0.000 C 
BRANCH  15  16
ATOM     16  N   UNL     1       2.379   7.207  19.688  0.00  0.00    +0.000 NA
ATOM     17  C   UNL     1       2.339   8.002  18.446  0.00  0.00    +0.000 C 
ATOM     18  C   UNL     1       0.979   8.642  18.100  0.00  0.00    +0.000 C 
ATOM     19  N   UNL     1       0.474   9.475  19.208  0.00  0.00    +0.000 N 
ATOM     20  C   UNL     1       0.605   8.904  20.566  0.00  0.00    +0.000 C 
ATOM     21  C   UNL     1       1.909   8.081  20.782  0.00  0.00    +0.000 C 
BRANCH  19  22
ATOM     22  C   UNL     1      -0.583  10.371  18.940  0.00  0.00    +0.000 A 
ATOM     23  C   UNL     1      -1.475  10.132  17.875  0.00  0.00    +0.000 A 
ATOM     24  C   UNL     1      -2.615  10.923  17.650  0.00  0.00    +0.000 A 
ATOM     25  C   UNL     1      -2.909  11.997  18.483  0.00  0.00    +0.000 A 
ATOM     26  C   UNL     1      -2.034  12.293  19.521  0.00  0.00    +0.000 A 
ATOM     27  C   UNL     1      -0.906  11.498  19.739  0.00  0.00    +0.000 A 
ATOM     28  F   UNL     1      -0.107  11.870  20.755  0.00  0.00    +0.000 F 
ENDBRANCH  19  22
ENDBRANCH  15  16
ENDBRANCH   7  15
TORSDOF 4
ENDMDL
MODEL 6
REMARK VINA RESULT:      -7.2      1.276      1.822
REMARK  Name = 
REMARK  4 active torsions:
REMARK  status: ('A' for Active; 'I' for Inactive)
REMARK    1  A    between atoms: C_4  and  C_5
REMARK    2  A    between atoms: N_14  and  C_15
REMARK    3  A    between atoms: C_15  and  N_16
REMARK    4  A    between atoms: N_19  and  C_20
REMARK                            x       y       z     vdW  Elec       q    Type
REMARK                         _______ _______ _______ _____ _____    ______ ____
ROOT
ATOM      1  O   UNL     1       7.024   4.847  19.465  0.00  0.00    +0.000 OA
ATOM      2  C   UNL     1       6.724   5.075  18.305  0.00  0.00    +0.000 C 
ATOM      3  C   UNL     1       7.309   4.374  17.120  0.00  0.00    +0.000 C 
ATOM      4  C   UNL     1       7.147   5.405  16.011  0.00  0.00    +0.000 C 
ATOM      5  C   UNL     1       6.114   6.376  16.581  0.00  0.00    +0.000 C 
ATOM      6  O   UNL     1       5.735   7.386  16.010  0.00  0.00    +0.000 OA
ATOM      7  N   UNL     1       5.813   5.981  17.853  0.00  0.00    +0.000 N 
ENDROOT
BRANCH   4   8
ATOM      8  C   UNL     1       6.756   4.802  14.685  0.00  0.00    +0.000 A 
ATOM      9  C   UNL     1       7.594   4.913  13.564  0.00  0.00    +0.000 A 
ATOM     10  C   UNL     1       7.215   4.353  12.339  0.00  0.00    +0.000 A 
ATOM     11  C   UNL     1       5.992   3.687  12.209  0.00  0.00    +0.000 A 
ATOM     12  C   UNL     1       5.155   3.561  13.316  0.00  0.00    +0.000 A 
ATOM     13  C   UNL     1       5.539   4.117  14.533  0.00  0.00    +0.000 A 
ATOM     14  F   UNL     1       4.726   3.967  15.587  0.00  0.00    +0.000 F 
ENDBRANCH   4   8
BRANCH   7  15
ATOM     15  C   UNL     1       4.843   6.631  18.712  0.00  0.00    +0.000 C 
BRANCH  15  16
ATOM     16  N   UNL     1       3.491   6.350  18.213  0.00  0.00    +0.000 NA
ATOM     17  C   UNL     1       2.507   6.000  19.255  0.00  0.00    +0.000 C 
ATOM     18  C   UNL     1       2.072   7.151  20.185  0.00  0.00    +0.000 C 
ATOM     19  N   UNL     1       1.556   8.301  19.419  0.00  0.00    +0.000 N 
ATOM     20  C   UNL     1       2.328   8.684  18.217  0.00  0.00    +0.000 C 
ATOM     21  C   UNL     1       2.926   7.475  17.440  0.00  0.00    +0.000 C 
BRANCH  19  22
ATOM     22  C   UNL     1       0.833   9.295  20.115  0.00  0.00    +0.000 A 
ATOM     23  C   UNL     1       0.056  10.241  19.416  0.00  0.00    +0.000 A 
ATOM     24  C   UNL     1      -0.780  11.163  20.067  0.00  0.00    +0.000 A 
ATOM     25  C   UNL     1      -0.870  11.183  21.455  0.00  0.00    +0.000 A 
ATOM     26  C   UNL     1      -0.089  10.295  22.185  0.00  0.00    +0.000 A 
ATOM     27  C   UNL     1       0.735   9.378  21.528  0.00  0.00    +0.000 A 
ATOM     28  F   UNL     1       1.467   8.570  22.315  0.00  0.00    +0.000 F 
ENDBRANCH  19  22
ENDBRANCH  15  16
ENDBRANCH   7  15
TORSDOF 4
ENDMDL
MODEL 7
REMARK VINA RESULT:      -7.1      3.710      5.781
REMARK  Name = 
REMARK  4 active torsions:
REMARK  status: ('A' for Active; 'I' for Inactive)
REMARK    1  A    between atoms: C_4  and  C_5
REMARK    2  A    between atoms: N_14  and  C_15
REMARK    3  A    between atoms: C_15  and  N_16
REMARK    4  A    between atoms: N_19  and  C_20
REMARK                            x       y       z     vdW  Elec       q    Type
REMARK                         _______ _______ _______ _____ _____    ______ ____
ROOT
ATOM      1  O   UNL     1       1.208   9.974  17.877  0.00  0.00    +0.000 OA
ATOM      2  C   UNL     1       1.794   8.992  18.302  0.00  0.00    +0.000 C 
ATOM      3  C   UNL     1       2.655   8.090  17.476  0.00  0.00    +0.000 C 
ATOM      4  C   UNL     1       2.577   6.771  18.234  0.00  0.00    +0.000 C 
ATOM      5  C   UNL     1       2.053   7.186  19.608  0.00  0.00    +0.000 C 
ATOM      6  O   UNL     1       1.806   6.403  20.512  0.00  0.00    +0.000 OA
ATOM      7  N   UNL     1       1.801   8.528  19.583  0.00  0.00    +0.000 N 
ENDROOT
BRANCH   4   8
ATOM      8  C   UNL     1       3.888   6.026  18.276  0.00  0.00    +0.000 A 
ATOM      9  C   UNL     1       5.096   6.670  17.968  0.00  0.00    +0.000 A 
ATOM     10  C   UNL     1       6.304   5.964  18.006  0.00  0.00    +0.000 A 
ATOM     11  C   UNL     1       6.324   4.606  18.339  0.00  0.00    +0.000 A 
ATOM     12  C   UNL     1       5.133   3.957  18.657  0.00  0.00    +0.000 A 
ATOM     13  C   UNL     1       3.935   4.665  18.621  0.00  0.00    +0.000 A 
ATOM     14  F   UNL     1       2.805   4.024  18.949  0.00  0.00    +0.000 F 
ENDBRANCH   4   8
BRANCH   7  15
ATOM     15  C   UNL     1       1.326   9.301  20.713  0.00  0.00    +0.000 C 
BRANCH  15  16
ATOM     16  N   UNL     1      -0.105   9.038  20.910  0.00  0.00    +0.000 NA
ATOM     17  C   UNL     1      -0.545   9.031  22.319  0.00  0.00    +0.000 C 
ATOM     18  C   UNL     1      -0.559  10.401  23.026  0.00  0.00    +0.000 C 
ATOM     19  N   UNL     1      -1.371  11.386  22.285  0.00  0.00    +0.000 N 
ATOM     20  C   UNL     1      -1.192  11.406  20.817  0.00  0.00    +0.000 C 
ATOM     21  C   UNL     1      -0.963   9.999  20.189  0.00  0.00    +0.000 C 
BRANCH  19  22
ATOM     22  C   UNL     1      -1.744  12.575  22.947  0.00  0.00    +0.000 A 
ATOM     23  C   UNL     1      -2.976  12.665  23.626  0.00  0.00    +0.000 A 
ATOM     24  C   UNL     1      -3.332  13.779  24.405  0.00  0.00    +0.000 A 
ATOM     25  C   UNL     1      -2.467  14.861  24.533  0.00  0.00    +0.000 A 
ATOM     26  C   UNL     1      -1.259  14.832  23.846  0.00  0.00    +0.000 A 
ATOM     27  C   UNL     1      -0.912  13.718  23.078  0.00  0.00    +0.000 A 
ATOM     28  F   UNL     1       0.267  13.785  22.436  0.00  0.00    +0.000 F 
ENDBRANCH  19  22
ENDBRANCH  15  16
ENDBRANCH   7  15
TORSDOF 4
ENDMDL
MODEL 8
REMARK VINA RESULT:      -7.0      4.490     10.625
REMARK  Name = 
REMARK  4 active torsions:
REMARK  status: ('A' for Active; 'I' for Inactive)
REMARK    1  A    between atoms: C_4  and  C_5
REMARK    2  A    between atoms: N_14  and  C_15
REMARK    3  A    between atoms: C_15  and  N_16
REMARK    4  A    between atoms: N_19  and  C_20
REMARK                            x       y       z     vdW  Elec       q    Type
REMARK                         _______ _______ _______ _____ _____    ______ ____
ROOT
ATOM      1  O   UNL     1       0.287  11.937  18.737  0.00  0.00    +0.000 OA
ATOM      2  C   UNL     1      -0.154  11.880  19.873  0.00  0.00    +0.000 C 
ATOM      3  C   UNL     1      -0.781  13.025  20.603  0.00  0.00    +0.000 C 
ATOM      4  C   UNL     1      -0.538  12.661  22.062  0.00  0.00    +0.000 C 
ATOM      5  C   UNL     1      -0.201  11.173  22.002  0.00  0.00    +0.000 C 
ATOM      6  O   UNL     1       0.106  10.501  22.974  0.00  0.00    +0.000 OA
ATOM      7  N   UNL     1      -0.181  10.791  20.691  0.00  0.00    +0.000 N 
ENDROOT
BRANCH   4   8
ATOM      8  C   UNL     1      -1.701  12.992  22.964  0.00  0.00    +0.000 A 
ATOM      9  C   UNL     1      -2.812  12.139  23.053  0.00  0.00    +0.000 A 
ATOM     10  C   UNL     1      -3.887  12.461  23.890  0.00  0.00    +0.000 A 
ATOM     11  C   UNL     1      -3.875  13.642  24.638  0.00  0.00    +0.000 A 
ATOM     12  C   UNL     1      -2.774  14.493  24.566  0.00  0.00    +0.000 A 
ATOM     13  C   UNL     1      -1.707  14.165  23.735  0.00  0.00    +0.000 A 
ATOM     14  F   UNL     1      -0.652  14.990  23.697  0.00  0.00    +0.000 F 
ENDBRANCH   4   8
BRANCH   7  15
ATOM     15  C   UNL     1       0.066   9.440  20.228  0.00  0.00    +0.000 C 
BRANCH  15  16
ATOM     16  N   UNL     1       1.508   9.167  20.281  0.00  0.00    +0.000 NA
ATOM     17  C   UNL     1       1.900   8.081  21.199  0.00  0.00    +0.000 C 
ATOM     18  C   UNL     1       1.507   6.655  20.761  0.00  0.00    +0.000 C 
ATOM     19  N   UNL     1       2.022   6.340  19.415  0.00  0.00    +0.000 N 
ATOM     20  C   UNL     1       1.877   7.403  18.397  0.00  0.00    +0.000 C 
ATOM     21  C   UNL     1       2.073   8.844  18.955  0.00  0.00    +0.000 C 
BRANCH  19  22
ATOM     22  C   UNL     1       2.026   4.991  19.001  0.00  0.00    +0.000 A 
ATOM     23  C   UNL     1       1.194   4.043  19.632  0.00  0.00    +0.000 A 
ATOM     24  C   UNL     1       1.068   2.721  19.172  0.00  0.00    +0.000 A 
ATOM     25  C   UNL     1       1.778   2.287  18.058  0.00  0.00    +0.000 A 
ATOM     26  C   UNL     1       2.642   3.177  17.430  0.00  0.00    +0.000 A 
ATOM     27  C   UNL     1       2.756   4.491  17.892  0.00  0.00    +0.000 A 
ATOM     28  F   UNL     1       3.628   5.275  17.234  0.00  0.00    +0.000 F 
ENDBRANCH  19  22
ENDBRANCH  15  16
ENDBRANCH   7  15
TORSDOF 4
ENDMDL
MODEL 9
REMARK VINA RESULT:      -7.0      2.082      3.010
REMARK  Name = 
REMARK  4 active torsions:
REMARK  status: ('A' for Active; 'I' for Inactive)
REMARK    1  A    between atoms: C_4  and  C_5
REMARK    2  A    between atoms: N_14  and  C_15
REMARK    3  A    between atoms: C_15  and  N_16
REMARK    4  A    between atoms: N_19  and  C_20
REMARK                            x       y       z     vdW  Elec       q    Type
REMARK                         _______ _______ _______ _____ _____    ______ ____
ROOT
ATOM      1  O   UNL     1       2.282   3.983  19.216  0.00  0.00    +0.000 OA
ATOM      2  C   UNL     1       3.023   4.460  18.373  0.00  0.00    +0.000 C 
ATOM      3  C   UNL     1       4.091   3.704  17.650  0.00  0.00    +0.000 C 
ATOM      4  C   UNL     1       5.080   4.801  17.277  0.00  0.00    +0.000 C 
ATOM      5  C   UNL     1       4.263   6.081  17.441  0.00  0.00    +0.000 C 
ATOM      6  O   UNL     1       4.711   7.205  17.277  0.00  0.00    +0.000 OA
ATOM      7  N   UNL     1       3.028   5.743  17.914  0.00  0.00    +0.000 N 
ENDROOT
BRANCH   4   8
ATOM      8  C   UNL     1       5.680   4.627  15.904  0.00  0.00    +0.000 A 
ATOM      9  C   UNL     1       5.009   3.898  14.910  0.00  0.00    +0.000 A 
ATOM     10  C   UNL     1       5.579   3.739  13.641  0.00  0.00    +0.000 A 
ATOM     11  C   UNL     1       6.831   4.293  13.351  0.00  0.00    +0.000 A 
ATOM     12  C   UNL     1       7.503   5.027  14.326  0.00  0.00    +0.000 A 
ATOM     13  C   UNL     1       6.928   5.184  15.584  0.00  0.00    +0.000 A 
ATOM     14  F   UNL     1       7.585   5.910  16.499  0.00  0.00    +0.000 F 
ENDBRANCH   4   8
BRANCH   7  15
ATOM     15  C   UNL     1       1.953   6.683  18.164  0.00  0.00    +0.000 C 
BRANCH  15  16
ATOM     16  N   UNL     1       2.487   7.850  18.875  0.00  0.00    +0.000 NA
ATOM     17  C   UNL     1       2.351   9.131  18.155  0.00  0.00    +0.000 C 
ATOM     18  C   UNL     1       0.918   9.687  18.038  0.00  0.00    +0.000 C 
ATOM     19  N   UNL     1       0.278   9.823  19.360  0.00  0.00    +0.000 N 
ATOM     20  C   UNL     1       0.468   8.692  20.295  0.00  0.00    +0.000 C 
ATOM     21  C   UNL     1       1.876   8.032  20.208  0.00  0.00    +0.000 C 
BRANCH  19  22
ATOM     22  C   UNL     1      -0.895  10.602  19.457  0.00  0.00    +0.000 A 
ATOM     23  C   UNL     1      -1.041  11.558  20.482  0.00  0.00    +0.000 A 
ATOM     24  C   UNL     1      -2.131  12.444  20.542  0.00  0.00    +0.000 A 
ATOM     25  C   UNL     1      -3.130  12.406  19.576  0.00  0.00    +0.000 A 
ATOM     26  C   UNL     1      -3.047  11.450  18.570  0.00  0.00    +0.000 A 
ATOM     27  C   UNL     1      -1.957  10.577  18.516  0.00  0.00    +0.000 A 
ATOM     28  F   UNL     1      -1.970   9.675  17.518  0.00  0.00    +0.000 F 
ENDBRANCH  19  22
ENDBRANCH  15  16
ENDBRANCH   7  15
TORSDOF 4
ENDMDL
