MODEL 1
REMARK VINA RESULT:      -8.5      0.000      0.000
REMARK  Name = 
REMARK  7 active torsions:
REMARK  status: ('A' for Active; 'I' for Inactive)
REMARK    1  A    between atoms: C_2  and  O_3
REMARK    2  A    between atoms: C_2  and  C_4
REMARK    3  A    between atoms: N_6  and  C_7
REMARK    4  A    between atoms: C_7  and  C_8
REMARK    5  A    between atoms: C_20  and  C_21
REMARK    6  A    between atoms: C_24  and  C_25
REMARK    7  A    between atoms: C_31  and  C_32
REMARK                            x       y       z     vdW  Elec       q    Type
REMARK                         _______ _______ _______ _____ _____    ______ ____
ROOT
ATOM      1  C   UNL     1       2.459   5.850  18.610  0.00  0.00    +0.000 A 
ATOM      2  C   UNL     1       2.118   5.573  19.944  0.00  0.00    +0.000 A 
ATOM      3  C   UNL     1       1.719   6.599  20.803  0.00  0.00    +0.000 A 
ATOM      4  C   UNL     1       1.640   7.906  20.321  0.00  0.00    +0.000 A 
ATOM      5  C   UNL     1       1.974   8.196  18.988  0.00  0.00    +0.000 A 
ATOM      6  C   UNL     1       2.413   7.176  18.149  0.00  0.00    +0.000 A 
ATOM      7  O   UNL     1       1.923   9.459  18.438  0.00  0.00    +0.000 OA
ATOM      8  C   UNL     1       1.008  10.404  19.052  0.00  0.00    +0.000 C 
ATOM      9  C   UNL     1       0.860  10.236  20.510  0.00  0.00    +0.000 A 
ATOM     10  C   UNL     1       1.173   9.010  21.118  0.00  0.00    +0.000 A 
ATOM     11  N   UNL     1       0.946   9.033  22.429  0.00  0.00    +0.000 NA
ATOM     12  O   UNL     1       0.457  10.303  22.685  0.00  0.00    +0.000 OA
ATOM     13  C   UNL     1       0.391  11.038  21.528  0.00  0.00    +0.000 A 
ENDROOT
BRANCH  13  14
ATOM     14  C   UNL     1      -0.152  12.361  21.469  0.00  0.00    +0.000 A 
ATOM     15  O   UNL     1       0.503  13.353  20.798  0.00  0.00    +0.000 OA
ATOM     16  N   UNL     1      -0.230  14.506  20.806  0.00  0.00    +0.000 NA
ATOM     17  C   UNL     1      -1.340  14.255  21.517  0.00  0.00    +0.000 A 
ATOM     18  C   UNL     1      -1.328  12.895  21.973  0.00  0.00    +0.000 A 
BRANCH  17  19
ATOM     19  C   UNL     1      -2.326  15.323  21.714  0.00  0.00    +0.000 A 
ATOM     20  C   UNL     1      -1.990  16.458  22.473  0.00  0.00    +0.000 A 
ATOM     21  C   UNL     1      -2.935  17.460  22.722  0.00  0.00    +0.000 A 
ATOM     22  C   UNL     1      -4.223  17.347  22.206  0.00  0.00    +0.000 A 
ATOM     23  C   UNL     1      -4.567  16.236  21.442  0.00  0.00    +0.000 A 
ATOM     24  C   UNL     1      -3.629  15.226  21.210  0.00  0.00    +0.000 A 
ENDBRANCH  17  19
BRANCH  18  25
ATOM     25  C   UNL     1      -2.361  12.234  22.794  0.00  0.00    +0.000 C 
ATOM     26  F   UNL     1      -2.010  11.009  23.250  0.00  0.00    +0.000 F 
ATOM     27  F   UNL     1      -2.655  12.957  23.905  0.00  0.00    +0.000 F 
ATOM     28  F   UNL     1      -3.520  12.068  22.110  0.00  0.00    +0.000 F 
ENDBRANCH  18  25
ENDBRANCH  13  14
BRANCH   1  29
ATOM     29  C   UNL     1       2.839   4.738  17.655  0.00  0.00    +0.000 C 
BRANCH  29  32
ATOM     30  C   UNL     1       5.590   4.893  16.679  0.00  0.00    +0.000 C 
ATOM     31  C   UNL     1       4.837   3.558  16.820  0.00  0.00    +0.000 C 
ATOM     32  N   UNL     1       4.117   4.088  18.000  0.00  0.00    +0.000 NA
ATOM     33  C   UNL     1       5.184   5.110  18.157  0.00  0.00    +0.000 C 
BRANCH  30  35
ATOM     34  O   UNL     1       7.967   4.360  17.046  0.00  0.00    +0.000 OA
ATOM     35  C   UNL     1       7.089   4.851  16.343  0.00  0.00    +0.000 C 
BRANCH  35  36
ATOM     36  O   UNL     1       7.412   5.459  15.168  0.00  0.00    +0.000 OA
ATOM     37  H   UNL     1       8.311   5.252  14.852  0.00  0.00    +0.000 HD
ENDBRANCH  35  36
ENDBRANCH  30  35
ENDBRANCH  29  32
ENDBRANCH   1  29
TORSDOF 7
ENDMDL
MODEL 2
REMARK VINA RESULT:      -8.3      2.347      3.183
REMARK  Name = 
REMARK  7 active torsions:
REMARK  status: ('A' for Active; 'I' for Inactive)
REMARK    1  A    between atoms: C_2  and  O_3
REMARK    2  A    between atoms: C_2  and  C_4
REMARK    3  A    between atoms: N_6  and  C_7
REMARK    4  A    between atoms: C_7  and  C_8
REMARK    5  A    between atoms: C_20  and  C_21
REMARK    6  A    between atoms: C_24  and  C_25
REMARK    7  A    between atoms: C_31  and  C_32
REMARK                            x       y       z     vdW  Elec       q    Type
REMARK                         _______ _______ _______ _____ _____    ______ ____
ROOT
ATOM      1  C   UNL     1       2.656   6.999  19.129  0.00  0.00    +0.000 A 
ATOM      2  C   UNL     1       2.487   7.887  18.054  0.00  0.00    +0.000 A 
ATOM      3  C   UNL     1       1.702   9.033  18.196  0.00  0.00    +0.000 A 
ATOM      4  C   UNL     1       1.100   9.306  19.425  0.00  0.00    +0.000 A 
ATOM      5  C   UNL     1       1.265   8.428  20.510  0.00  0.00    +0.000 A 
ATOM      6  C   UNL     1       2.012   7.265  20.349  0.00  0.00    +0.000 A 
ATOM      7  O   UNL     1       0.704   8.626  21.753  0.00  0.00    +0.000 OA
ATOM      8  C   UNL     1       0.399   9.997  22.123  0.00  0.00    +0.000 C 
ATOM      9  C   UNL     1      -0.015  10.848  20.991  0.00  0.00    +0.000 A 
ATOM     10  C   UNL     1       0.334  10.497  19.677  0.00  0.00    +0.000 A 
ATOM     11  N   UNL     1      -0.093  11.396  18.794  0.00  0.00    +0.000 NA
ATOM     12  O   UNL     1      -0.726  12.368  19.550  0.00  0.00    +0.000 OA
ATOM     13  C   UNL     1      -0.676  12.052  20.884  0.00  0.00    +0.000 A 
ENDROOT
BRANCH  13  14
ATOM     14  C   UNL     1      -1.176  12.911  21.914  0.00  0.00    +0.000 A 
ATOM     15  O   UNL     1      -2.265  12.549  22.654  0.00  0.00    +0.000 OA
ATOM     16  N   UNL     1      -2.517  13.478  23.625  0.00  0.00    +0.000 NA
ATOM     17  C   UNL     1      -1.606  14.451  23.477  0.00  0.00    +0.000 A 
ATOM     18  C   UNL     1      -0.731  14.137  22.384  0.00  0.00    +0.000 A 
BRANCH  17  19
ATOM     19  C   UNL     1      -1.634  15.607  24.380  0.00  0.00    +0.000 A 
ATOM     20  C   UNL     1      -2.347  16.764  24.018  0.00  0.00    +0.000 A 
ATOM     21  C   UNL     1      -2.337  17.898  24.837  0.00  0.00    +0.000 A 
ATOM     22  C   UNL     1      -1.627  17.888  26.035  0.00  0.00    +0.000 A 
ATOM     23  C   UNL     1      -0.926  16.746  26.413  0.00  0.00    +0.000 A 
ATOM     24  C   UNL     1      -0.920  15.620  25.585  0.00  0.00    +0.000 A 
ENDBRANCH  17  19
BRANCH  18  25
ATOM     25  C   UNL     1       0.394  14.957  21.894  0.00  0.00    +0.000 C 
ATOM     26  F   UNL     1       0.588  16.104  22.586  0.00  0.00    +0.000 F 
ATOM     27  F   UNL     1       1.572  14.288  21.974  0.00  0.00    +0.000 F 
ATOM     28  F   UNL     1       0.229  15.317  20.597  0.00  0.00    +0.000 F 
ENDBRANCH  18  25
ENDBRANCH  13  14
BRANCH   1  29
ATOM     29  C   UNL     1       3.549   5.783  19.004  0.00  0.00    +0.000 C 
BRANCH  29  32
ATOM     30  C   UNL     1       6.116   5.065  17.803  0.00  0.00    +0.000 C 
ATOM     31  C   UNL     1       5.305   6.293  17.349  0.00  0.00    +0.000 C 
ATOM     32  N   UNL     1       4.047   5.567  17.632  0.00  0.00    +0.000 NA
ATOM     33  C   UNL     1       4.800   4.289  17.558  0.00  0.00    +0.000 C 
BRANCH  30  35
ATOM     34  O   UNL     1       7.513   4.870  15.783  0.00  0.00    +0.000 OA
ATOM     35  C   UNL     1       7.352   4.665  16.983  0.00  0.00    +0.000 C 
BRANCH  35  36
ATOM     36  O   UNL     1       8.300   3.997  17.696  0.00  0.00    +0.000 OA
ATOM     37  H   UNL     1       8.146   3.036  17.753  0.00  0.00    +0.000 HD
ENDBRANCH  35  36
ENDBRANCH  30  35
ENDBRANCH  29  32
ENDBRANCH   1  29
TORSDOF 7
ENDMDL
MODEL 3
REMARK VINA RESULT:      -8.3      1.854      2.146
REMARK  Name = 
REMARK  7 active torsions:
REMARK  status: ('A' for Active; 'I' for Inactive)
REMARK    1  A    between atoms: C_2  and  O_3
REMARK    2  A    between atoms: C_2  and  C_4
REMARK    3  A    between atoms: N_6  and  C_7
REMARK    4  A    between atoms: C_7  and  C_8
REMARK    5  A    between atoms: C_20  and  C_21
REMARK    6  A    between atoms: C_24  and  C_25
REMARK    7  A    between atoms: C_31  and  C_32
REMARK                            x       y       z     vdW  Elec       q    Type
REMARK                         _______ _______ _______ _____ _____    ______ ____
ROOT
ATOM      1  C   UNL     1       2.417   5.284  18.429  0.00  0.00    +0.000 A 
ATOM      2  C   UNL     1       1.913   5.098  19.727  0.00  0.00    +0.000 A 
ATOM      3  C   UNL     1       1.598   6.197  20.531  0.00  0.00    +0.000 A 
ATOM      4  C   UNL     1       1.769   7.487  20.028  0.00  0.00    +0.000 A 
ATOM      5  C   UNL     1       2.267   7.686  18.730  0.00  0.00    +0.000 A 
ATOM      6  C   UNL     1       2.621   6.589  17.950  0.00  0.00    +0.000 A 
ATOM      7  O   UNL     1       2.465   8.927  18.162  0.00  0.00    +0.000 OA
ATOM      8  C   UNL     1       1.653  10.017  18.673  0.00  0.00    +0.000 C 
ATOM      9  C   UNL     1       1.344   9.913  20.112  0.00  0.00    +0.000 A 
ATOM     10  C   UNL     1       1.405   8.670  20.762  0.00  0.00    +0.000 A 
ATOM     11  N   UNL     1       1.062   8.763  22.044  0.00  0.00    +0.000 NA
ATOM     12  O   UNL     1       0.754  10.099  22.236  0.00  0.00    +0.000 OA
ATOM     13  C   UNL     1       0.911  10.804  21.069  0.00  0.00    +0.000 A 
ENDROOT
BRANCH  13  14
ATOM     14  C   UNL     1       0.587  12.193  20.941  0.00  0.00    +0.000 A 
ATOM     15  O   UNL     1       1.317  13.141  21.599  0.00  0.00    +0.000 OA
ATOM     16  N   UNL     1       0.883  14.395  21.272  0.00  0.00    +0.000 NA
ATOM     17  C   UNL     1      -0.151  14.240  20.431  0.00  0.00    +0.000 A 
ATOM     18  C   UNL     1      -0.385  12.844  20.198  0.00  0.00    +0.000 A 
BRANCH  17  19
ATOM     19  C   UNL     1      -0.841  15.427  19.913  0.00  0.00    +0.000 A 
ATOM     20  C   UNL     1      -0.340  16.093  18.780  0.00  0.00    +0.000 A 
ATOM     21  C   UNL     1      -0.950  17.260  18.306  0.00  0.00    +0.000 A 
ATOM     22  C   UNL     1      -2.075  17.769  18.949  0.00  0.00    +0.000 A 
ATOM     23  C   UNL     1      -2.590  17.114  20.063  0.00  0.00    +0.000 A 
ATOM     24  C   UNL     1      -1.970  15.960  20.548  0.00  0.00    +0.000 A 
ENDBRANCH  17  19
BRANCH  18  25
ATOM     25  C   UNL     1      -1.436  12.259  19.343  0.00  0.00    +0.000 C 
ATOM     26  F   UNL     1      -1.537  10.913  19.429  0.00  0.00    +0.000 F 
ATOM     27  F   UNL     1      -2.666  12.731  19.672  0.00  0.00    +0.000 F 
ATOM     28  F   UNL     1      -1.239  12.545  18.033  0.00  0.00    +0.000 F 
ENDBRANCH  18  25
ENDBRANCH  13  14
BRANCH   1  29
ATOM     29  C   UNL     1       2.708   4.102  17.529  0.00  0.00    +0.000 C 
BRANCH  29  32
ATOM     30  C   UNL     1       5.509   4.893  17.256  0.00  0.00    +0.000 C 
ATOM     31  C   UNL     1       4.961   3.578  16.673  0.00  0.00    +0.000 C 
ATOM     32  N   UNL     1       4.013   3.471  17.804  0.00  0.00    +0.000 NA
ATOM     33  C   UNL     1       4.876   4.399  18.579  0.00  0.00    +0.000 C 
BRANCH  30  35
ATOM     34  O   UNL     1       7.850   4.420  16.650  0.00  0.00    +0.000 OA
ATOM     35  C   UNL     1       7.028   5.125  17.227  0.00  0.00    +0.000 C 
BRANCH  35  36
ATOM     36  O   UNL     1       7.439   6.202  17.952  0.00  0.00    +0.000 OA
ATOM     37  H   UNL     1       8.394   6.384  17.879  0.00  0.00    +0.000 HD
ENDBRANCH  35  36
ENDBRANCH  30  35
ENDBRANCH  29  32
ENDBRANCH   1  29
TORSDOF 7
ENDMDL
MODEL 4
REMARK VINA RESULT:      -8.3      0.336      1.191
REMARK  Name = 
REMARK  7 active torsions:
REMARK  status: ('A' for Active; 'I' for Inactive)
REMARK    1  A    between atoms: C_2  and  O_3
REMARK    2  A    between atoms: C_2  and  C_4
REMARK    3  A    between atoms: N_6  and  C_7
REMARK    4  A    between atoms: C_7  and  C_8
REMARK    5  A    between atoms: C_20  and  C_21
REMARK    6  A    between atoms: C_24  and  C_25
REMARK    7  A    between atoms: C_31  and  C_32
REMARK                            x       y       z     vdW  Elec       q    Type
REMARK                         _______ _______ _______ _____ _____    ______ ____
ROOT
ATOM      1  C   UNL     1       2.499   6.139  18.613  0.00  0.00    +0.000 A 
ATOM      2  C   UNL     1       2.231   5.876  19.967  0.00  0.00    +0.000 A 
ATOM      3  C   UNL     1       1.801   6.897  20.817  0.00  0.00    +0.000 A 
ATOM      4  C   UNL     1       1.618   8.184  20.308  0.00  0.00    +0.000 A 
ATOM      5  C   UNL     1       1.878   8.459  18.955  0.00  0.00    +0.000 A 
ATOM      6  C   UNL     1       2.348   7.447  18.123  0.00  0.00    +0.000 A 
ATOM      7  O   UNL     1       1.723   9.701  18.378  0.00  0.00    +0.000 OA
ATOM      8  C   UNL     1       0.774  10.601  19.007  0.00  0.00    +0.000 C 
ATOM      9  C   UNL     1       0.696  10.463  20.474  0.00  0.00    +0.000 A 
ATOM     10  C   UNL     1       1.113   9.276  21.097  0.00  0.00    +0.000 A 
ATOM     11  N   UNL     1       0.938   9.319  22.416  0.00  0.00    +0.000 NA
ATOM     12  O   UNL     1       0.379  10.561  22.662  0.00  0.00    +0.000 OA
ATOM     13  C   UNL     1       0.218  11.260  21.492  0.00  0.00    +0.000 A 
ENDROOT
BRANCH  13  14
ATOM     14  C   UNL     1      -0.412  12.544  21.424  0.00  0.00    +0.000 A 
ATOM     15  O   UNL     1       0.137  13.549  20.681  0.00  0.00    +0.000 OA
ATOM     16  N   UNL     1      -0.668  14.654  20.698  0.00  0.00    +0.000 NA
ATOM     17  C   UNL     1      -1.714  14.360  21.485  0.00  0.00    +0.000 A 
ATOM     18  C   UNL     1      -1.587  13.021  21.983  0.00  0.00    +0.000 A 
BRANCH  17  19
ATOM     19  C   UNL     1      -2.753  15.372  21.709  0.00  0.00    +0.000 A 
ATOM     20  C   UNL     1      -3.984  15.274  21.038  0.00  0.00    +0.000 A 
ATOM     21  C   UNL     1      -4.966  16.259  21.193  0.00  0.00    +0.000 A 
ATOM     22  C   UNL     1      -4.735  17.348  22.030  0.00  0.00    +0.000 A 
ATOM     23  C   UNL     1      -3.526  17.452  22.711  0.00  0.00    +0.000 A 
ATOM     24  C   UNL     1      -2.539  16.478  22.541  0.00  0.00    +0.000 A 
ENDBRANCH  17  19
BRANCH  18  25
ATOM     25  C   UNL     1      -2.523  12.327  22.889  0.00  0.00    +0.000 C 
ATOM     26  F   UNL     1      -2.808  13.008  24.023  0.00  0.00    +0.000 F 
ATOM     27  F   UNL     1      -3.724  12.109  22.293  0.00  0.00    +0.000 F 
ATOM     28  F   UNL     1      -2.048  11.119  23.278  0.00  0.00    +0.000 F 
ENDBRANCH  18  25
ENDBRANCH  13  14
BRANCH   1  29
ATOM     29  C   UNL     1       2.910   5.029  17.669  0.00  0.00    +0.000 C 
BRANCH  29  32
ATOM     30  C   UNL     1       5.614   5.023  16.557  0.00  0.00    +0.000 C 
ATOM     31  C   UNL     1       4.856   3.726  16.895  0.00  0.00    +0.000 C 
ATOM     32  N   UNL     1       4.198   4.406  18.032  0.00  0.00    +0.000 NA
ATOM     33  C   UNL     1       5.280   5.424  18.014  0.00  0.00    +0.000 C 
BRANCH  30  35
ATOM     34  O   UNL     1       7.602   5.396  15.151  0.00  0.00    +0.000 OA
ATOM     35  C   UNL     1       7.095   4.918  16.161  0.00  0.00    +0.000 C 
BRANCH  35  36
ATOM     36  O   UNL     1       7.852   4.190  17.028  0.00  0.00    +0.000 OA
ATOM     37  H   UNL     1       8.676   4.634  17.299  0.00  0.00    +0.000 HD
ENDBRANCH  35  36
ENDBRANCH  30  35
ENDBRANCH  29  32
ENDBRANCH   1  29
TORSDOF 7
ENDMDL
MODEL 5
REMARK VINA RESULT:      -8.3      1.650      2.411
REMARK  Name = 
REMARK  7 active torsions:
REMARK  status: ('A' for Active; 'I' for Inactive)
REMARK    1  A    between atoms: C_2  and  O_3
REMARK    2  A    between atoms: C_2  and  C_4
REMARK    3  A    between atoms: N_6  and  C_7
REMARK    4  A    between atoms: C_7  and  C_8
REMARK    5  A    between atoms: C_20  and  C_21
REMARK    6  A    between atoms: C_24  and  C_25
REMARK    7  A    between atoms: C_31  and  C_32
REMARK                            x       y       z     vdW  Elec       q    Type
REMARK                         _______ _______ _______ _____ _____    ______ ____
ROOT
ATOM      1  C   UNL     1       2.661   6.524  18.984  0.00  0.00    +0.000 A 
ATOM      2  C   UNL     1       2.571   7.344  17.846  0.00  0.00    +0.000 A 
ATOM      3  C   UNL     1       1.963   8.599  17.921  0.00  0.00    +0.000 A 
ATOM      4  C   UNL     1       1.461   9.047  19.143  0.00  0.00    +0.000 A 
ATOM      5  C   UNL     1       1.548   8.239  20.289  0.00  0.00    +0.000 A 
ATOM      6  C   UNL     1       2.116   6.971  20.199  0.00  0.00    +0.000 A 
ATOM      7  O   UNL     1       1.075   8.609  21.530  0.00  0.00    +0.000 OA
ATOM      8  C   UNL     1       0.984  10.033  21.798  0.00  0.00    +0.000 C 
ATOM      9  C   UNL     1       0.644  10.847  20.615  0.00  0.00    +0.000 A 
ATOM     10  C   UNL     1       0.882  10.352  19.323  0.00  0.00    +0.000 A 
ATOM     11  N   UNL     1       0.547  11.234  18.384  0.00  0.00    +0.000 NA
ATOM     12  O   UNL     1       0.092  12.341  19.080  0.00  0.00    +0.000 OA
ATOM     13  C   UNL     1       0.156  12.122  20.433  0.00  0.00    +0.000 A 
ENDROOT
BRANCH  13  14
ATOM     14  C   UNL     1      -0.173  13.119  21.406  0.00  0.00    +0.000 A 
ATOM     15  O   UNL     1       0.810  13.818  22.045  0.00  0.00    +0.000 OA
ATOM     16  N   UNL     1       0.270  14.766  22.869  0.00  0.00    +0.000 NA
ATOM     17  C   UNL     1      -1.063  14.642  22.779  0.00  0.00    +0.000 A 
ATOM     18  C   UNL     1      -1.394  13.591  21.861  0.00  0.00    +0.000 A 
BRANCH  17  19
ATOM     19  C   UNL     1      -1.924  15.528  23.573  0.00  0.00    +0.000 A 
ATOM     20  C   UNL     1      -2.588  15.030  24.707  0.00  0.00    +0.000 A 
ATOM     21  C   UNL     1      -3.459  15.842  25.442  0.00  0.00    +0.000 A 
ATOM     22  C   UNL     1      -3.667  17.165  25.062  0.00  0.00    +0.000 A 
ATOM     23  C   UNL     1      -3.007  17.676  23.949  0.00  0.00    +0.000 A 
ATOM     24  C   UNL     1      -2.152  16.859  23.203  0.00  0.00    +0.000 A 
ENDBRANCH  17  19
BRANCH  18  25
ATOM     25  C   UNL     1      -2.751  13.137  21.497  0.00  0.00    +0.000 C 
ATOM     26  F   UNL     1      -3.657  14.134  21.377  0.00  0.00    +0.000 F 
ATOM     27  F   UNL     1      -2.758  12.501  20.297  0.00  0.00    +0.000 F 
ATOM     28  F   UNL     1      -3.255  12.269  22.408  0.00  0.00    +0.000 F 
ENDBRANCH  18  25
ENDBRANCH  13  14
BRANCH   1  29
ATOM     29  C   UNL     1       3.368   5.187  18.928  0.00  0.00    +0.000 C 
BRANCH  29  32
ATOM     30  C   UNL     1       5.831   4.693  17.433  0.00  0.00    +0.000 C 
ATOM     31  C   UNL     1       5.564   4.071  18.815  0.00  0.00    +0.000 C 
ATOM     32  N   UNL     1       4.812   5.280  19.216  0.00  0.00    +0.000 NA
ATOM     33  C   UNL     1       5.499   6.032  18.135  0.00  0.00    +0.000 C 
BRANCH  30  35
ATOM     34  O   UNL     1       7.531   4.758  15.651  0.00  0.00    +0.000 OA
ATOM     35  C   UNL     1       7.229   4.530  16.818  0.00  0.00    +0.000 C 
BRANCH  35  36
ATOM     36  O   UNL     1       8.165   4.053  17.685  0.00  0.00    +0.000 OA
ATOM     37  H   UNL     1       8.560   3.205  17.412  0.00  0.00    +0.000 HD
ENDBRANCH  35  36
ENDBRANCH  30  35
ENDBRANCH  29  32
ENDBRANCH   1  29
TORSDOF 7
ENDMDL
MODEL 6
REMARK VINA RESULT:      -8.2      1.657      2.301
REMARK  Name = 
REMARK  7 active torsions:
REMARK  status: ('A' for Active; 'I' for Inactive)
REMARK    1  A    between atoms: C_2  and  O_3
REMARK    2  A    between atoms: C_2  and  C_4
REMARK    3  A    between atoms: N_6  and  C_7
REMARK    4  A    between atoms: C_7  and  C_8
REMARK    5  A    between atoms: C_20  and  C_21
REMARK    6  A    between atoms: C_24  and  C_25
REMARK    7  A    between atoms: C_31  and  C_32
REMARK                            x       y       z     vdW  Elec       q    Type
REMARK                         _______ _______ _______ _____ _____    ______ ____
ROOT
ATOM      1  C   UNL     1       2.472   6.017  19.145  0.00  0.00    +0.000 A 
ATOM      2  C   UNL     1       2.554   6.821  17.996  0.00  0.00    +0.000 A 
ATOM      3  C   UNL     1       2.108   8.144  18.022  0.00  0.00    +0.000 A 
ATOM      4  C   UNL     1       1.596   8.673  19.207  0.00  0.00    +0.000 A 
ATOM      5  C   UNL     1       1.513   7.881  20.364  0.00  0.00    +0.000 A 
ATOM      6  C   UNL     1       1.918   6.550  20.320  0.00  0.00    +0.000 A 
ATOM      7  O   UNL     1       1.019   8.328  21.571  0.00  0.00    +0.000 OA
ATOM      8  C   UNL     1       1.094   9.757  21.820  0.00  0.00    +0.000 C 
ATOM      9  C   UNL     1       0.931  10.587  20.611  0.00  0.00    +0.000 A 
ATOM     10  C   UNL     1       1.179  10.044  19.340  0.00  0.00    +0.000 A 
ATOM     11  N   UNL     1       1.015  10.945  18.375  0.00  0.00    +0.000 NA
ATOM     12  O   UNL     1       0.665  12.113  19.031  0.00  0.00    +0.000 OA
ATOM     13  C   UNL     1       0.620  11.910  20.387  0.00  0.00    +0.000 A 
ENDROOT
BRANCH  13  14
ATOM     14  C   UNL     1       0.366  12.958  21.330  0.00  0.00    +0.000 A 
ATOM     15  O   UNL     1       1.360  13.816  21.702  0.00  0.00    +0.000 OA
ATOM     16  N   UNL     1       0.875  14.777  22.545  0.00  0.00    +0.000 NA
ATOM     17  C   UNL     1      -0.424  14.505  22.737  0.00  0.00    +0.000 A 
ATOM     18  C   UNL     1      -0.794  13.339  21.987  0.00  0.00    +0.000 A 
BRANCH  17  19
ATOM     19  C   UNL     1      -1.218  15.368  23.620  0.00  0.00    +0.000 A 
ATOM     20  C   UNL     1      -1.851  16.511  23.101  0.00  0.00    +0.000 A 
ATOM     21  C   UNL     1      -2.563  17.378  23.937  0.00  0.00    +0.000 A 
ATOM     22  C   UNL     1      -2.663  17.108  25.300  0.00  0.00    +0.000 A 
ATOM     23  C   UNL     1      -2.052  15.973  25.826  0.00  0.00    +0.000 A 
ATOM     24  C   UNL     1      -1.325  15.118  24.994  0.00  0.00    +0.000 A 
ENDBRANCH  17  19
BRANCH  18  25
ATOM     25  C   UNL     1      -2.128  12.710  21.940  0.00  0.00    +0.000 C 
ATOM     26  F   UNL     1      -2.286  11.816  20.937  0.00  0.00    +0.000 F 
ATOM     27  F   UNL     1      -2.395  12.021  23.079  0.00  0.00    +0.000 F 
ATOM     28  F   UNL     1      -3.115  13.628  21.792  0.00  0.00    +0.000 F 
ENDBRANCH  18  25
ENDBRANCH  13  14
BRANCH   1  29
ATOM     29  C   UNL     1       3.004   4.599  19.144  0.00  0.00    +0.000 C 
BRANCH  29  32
ATOM     30  C   UNL     1       5.670   4.639  17.944  0.00  0.00    +0.000 C 
ATOM     31  C   UNL     1       5.209   3.522  18.898  0.00  0.00    +0.000 C 
ATOM     32  N   UNL     1       4.388   4.499  19.647  0.00  0.00    +0.000 NA
ATOM     33  C   UNL     1       5.218   5.591  19.077  0.00  0.00    +0.000 C 
BRANCH  30  35
ATOM     34  O   UNL     1       8.098   4.327  18.215  0.00  0.00    +0.000 OA
ATOM     35  C   UNL     1       7.146   4.672  17.522  0.00  0.00    +0.000 C 
BRANCH  35  36
ATOM     36  O   UNL     1       7.356   5.171  16.272  0.00  0.00    +0.000 OA
ATOM     37  H   UNL     1       6.537   5.413  15.802  0.00  0.00    +0.000 HD
ENDBRANCH  35  36
ENDBRANCH  30  35
ENDBRANCH  29  32
ENDBRANCH   1  29
TORSDOF 7
ENDMDL
MODEL 7
REMARK VINA RESULT:      -8.2      2.198      3.028
REMARK  Name = 
REMARK  7 active torsions:
REMARK  status: ('A' for Active; 'I' for Inactive)
REMARK    1  A    between atoms: C_2  and  O_3
REMARK    2  A    between atoms: C_2  and  C_4
REMARK    3  A    between atoms: N_6  and  C_7
REMARK    4  A    between atoms: C_7  and  C_8
REMARK    5  A    between atoms: C_20  and  C_21
REMARK    6  A    between atoms: C_24  and  C_25
REMARK    7  A    between atoms: C_31  and  C_32
REMARK                            x       y       z     vdW  Elec       q    Type
REMARK                         _______ _______ _______ _____ _____    ______ ____
ROOT
ATOM      1  C   UNL     1       4.074   5.228  18.245  0.00  0.00    +0.000 A 
ATOM      2  C   UNL     1       4.107   6.245  17.276  0.00  0.00    +0.000 A 
ATOM      3  C   UNL     1       3.309   7.383  17.412  0.00  0.00    +0.000 A 
ATOM      4  C   UNL     1       2.487   7.515  18.532  0.00  0.00    +0.000 A 
ATOM      5  C   UNL     1       2.448   6.508  19.510  0.00  0.00    +0.000 A 
ATOM      6  C   UNL     1       3.213   5.356  19.347  0.00  0.00    +0.000 A 
ATOM      7  O   UNL     1       1.663   6.563  20.642  0.00  0.00    +0.000 OA
ATOM      8  C   UNL     1       1.293   7.884  21.118  0.00  0.00    +0.000 C 
ATOM      9  C   UNL     1       1.096   8.877  20.044  0.00  0.00    +0.000 A 
ATOM     10  C   UNL     1       1.685   8.683  18.784  0.00  0.00    +0.000 A 
ATOM     11  N   UNL     1       1.429   9.693  17.956  0.00  0.00    +0.000 NA
ATOM     12  O   UNL     1       0.665  10.578  18.697  0.00  0.00    +0.000 OA
ATOM     13  C   UNL     1       0.465  10.099  19.967  0.00  0.00    +0.000 A 
ENDROOT
BRANCH  13  14
ATOM     14  C   UNL     1      -0.220  10.836  20.985  0.00  0.00    +0.000 A 
ATOM     15  O   UNL     1       0.205  10.792  22.282  0.00  0.00    +0.000 OA
ATOM     16  N   UNL     1      -0.545  11.626  23.063  0.00  0.00    +0.000 NA
ATOM     17  C   UNL     1      -1.473  12.174  22.265  0.00  0.00    +0.000 A 
ATOM     18  C   UNL     1      -1.312  11.688  20.925  0.00  0.00    +0.000 A 
BRANCH  17  19
ATOM     19  C   UNL     1      -2.446  13.115  22.832  0.00  0.00    +0.000 A 
ATOM     20  C   UNL     1      -2.234  14.500  22.715  0.00  0.00    +0.000 A 
ATOM     21  C   UNL     1      -3.119  15.413  23.300  0.00  0.00    +0.000 A 
ATOM     22  C   UNL     1      -4.233  14.955  23.998  0.00  0.00    +0.000 A 
ATOM     23  C   UNL     1      -4.463  13.587  24.111  0.00  0.00    +0.000 A 
ATOM     24  C   UNL     1      -3.569  12.675  23.544  0.00  0.00    +0.000 A 
ENDBRANCH  17  19
BRANCH  18  25
ATOM     25  C   UNL     1      -2.140  12.041  19.755  0.00  0.00    +0.000 C 
ATOM     26  F   UNL     1      -3.348  12.567  20.068  0.00  0.00    +0.000 F 
ATOM     27  F   UNL     1      -1.534  12.975  18.978  0.00  0.00    +0.000 F 
ATOM     28  F   UNL     1      -2.384  10.966  18.966  0.00  0.00    +0.000 F 
ENDBRANCH  18  25
ENDBRANCH  13  14
BRANCH   1  29
ATOM     29  C   UNL     1       4.977   4.018  18.137  0.00  0.00    +0.000 C 
BRANCH  29  32
ATOM     30  C   UNL     1       6.813   6.287  17.983  0.00  0.00    +0.000 C 
ATOM     31  C   UNL     1       7.202   4.875  17.509  0.00  0.00    +0.000 C 
ATOM     32  N   UNL     1       6.361   4.285  18.573  0.00  0.00    +0.000 NA
ATOM     33  C   UNL     1       6.425   5.578  19.302  0.00  0.00    +0.000 C 
BRANCH  30  35
ATOM     34  O   UNL     1       8.120   8.216  17.182  0.00  0.00    +0.000 OA
ATOM     35  C   UNL     1       7.908   7.363  18.039  0.00  0.00    +0.000 C 
BRANCH  35  36
ATOM     36  O   UNL     1       8.701   7.292  19.144  0.00  0.00    +0.000 OA
ATOM     37  H   UNL     1       8.351   7.777  19.913  0.00  0.00    +0.000 HD
ENDBRANCH  35  36
ENDBRANCH  30  35
ENDBRANCH  29  32
ENDBRANCH   1  29
TORSDOF 7
ENDMDL
MODEL 8
REMARK VINA RESULT:      -8.2      1.063      1.480
REMARK  Name = 
REMARK  7 active torsions:
REMARK  status: ('A' for Active; 'I' for Inactive)
REMARK    1  A    between atoms: C_2  and  O_3
REMARK    2  A    between atoms: C_2  and  C_4
REMARK    3  A    between atoms: N_6  and  C_7
REMARK    4  A    between atoms: C_7  and  C_8
REMARK    5  A    between atoms: C_20  and  C_21
REMARK    6  A    between atoms: C_24  and  C_25
REMARK    7  A    between atoms: C_31  and  C_32
REMARK                            x       y       z     vdW  Elec       q    Type
REMARK                         _______ _______ _______ _____ _____    ______ ____
ROOT
ATOM      1  C   UNL     1       2.529   6.708  18.730  0.00  0.00    +0.000 A 
ATOM      2  C   UNL     1       2.316   6.472  20.098  0.00  0.00    +0.000 A 
ATOM      3  C   UNL     1       1.782   7.470  20.917  0.00  0.00    +0.000 A 
ATOM      4  C   UNL     1       1.442   8.704  20.362  0.00  0.00    +0.000 A 
ATOM      5  C   UNL     1       1.646   8.951  18.994  0.00  0.00    +0.000 A 
ATOM      6  C   UNL     1       2.219   7.968  18.193  0.00  0.00    +0.000 A 
ATOM      7  O   UNL     1       1.337  10.142  18.372  0.00  0.00    +0.000 OA
ATOM      8  C   UNL     1       0.300  10.951  18.986  0.00  0.00    +0.000 C 
ATOM      9  C   UNL     1       0.262  10.865  20.458  0.00  0.00    +0.000 A 
ATOM     10  C   UNL     1       0.825   9.762  21.118  0.00  0.00    +0.000 A 
ATOM     11  N   UNL     1       0.668   9.838  22.437  0.00  0.00    +0.000 NA
ATOM     12  O   UNL     1      -0.030  11.016  22.646  0.00  0.00    +0.000 OA
ATOM     13  C   UNL     1      -0.290  11.642  21.453  0.00  0.00    +0.000 A 
ENDROOT
BRANCH  13  14
ATOM     14  C   UNL     1      -1.067  12.840  21.348  0.00  0.00    +0.000 A 
ATOM     15  O   UNL     1      -0.724  13.816  20.457  0.00  0.00    +0.000 OA
ATOM     16  N   UNL     1      -1.643  14.827  20.474  0.00  0.00    +0.000 NA
ATOM     17  C   UNL     1      -2.554  14.508  21.406  0.00  0.00    +0.000 A 
ATOM     18  C   UNL     1      -2.220  13.247  22.002  0.00  0.00    +0.000 A 
BRANCH  17  19
ATOM     19  C   UNL     1      -3.672  15.424  21.663  0.00  0.00    +0.000 A 
ATOM     20  C   UNL     1      -3.749  16.110  22.888  0.00  0.00    +0.000 A 
ATOM     21  C   UNL     1      -4.837  16.942  23.177  0.00  0.00    +0.000 A 
ATOM     22  C   UNL     1      -5.855  17.109  22.241  0.00  0.00    +0.000 A 
ATOM     23  C   UNL     1      -5.786  16.445  21.020  0.00  0.00    +0.000 A 
ATOM     24  C   UNL     1      -4.709  15.600  20.739  0.00  0.00    +0.000 A 
ENDBRANCH  17  19
BRANCH  18  25
ATOM     25  C   UNL     1      -2.964  12.556  23.073  0.00  0.00    +0.000 C 
ATOM     26  F   UNL     1      -2.931  13.187  24.270  0.00  0.00    +0.000 F 
ATOM     27  F   UNL     1      -4.281  12.436  22.768  0.00  0.00    +0.000 F 
ATOM     28  F   UNL     1      -2.492  11.303  23.288  0.00  0.00    +0.000 F 
ENDBRANCH  18  25
ENDBRANCH  13  14
BRANCH   1  29
ATOM     29  C   UNL     1       3.053   5.615  17.822  0.00  0.00    +0.000 C 
BRANCH  29  32
ATOM     30  C   UNL     1       5.847   4.820  17.492  0.00  0.00    +0.000 C 
ATOM     31  C   UNL     1       5.427   6.279  17.743  0.00  0.00    +0.000 C 
ATOM     32  N   UNL     1       4.181   6.054  16.978  0.00  0.00    +0.000 NA
ATOM     33  C   UNL     1       4.822   4.879  16.334  0.00  0.00    +0.000 C 
BRANCH  30  35
ATOM     34  O   UNL     1       7.794   4.532  16.011  0.00  0.00    +0.000 OA
ATOM     35  C   UNL     1       7.315   4.534  17.141  0.00  0.00    +0.000 C 
BRANCH  35  36
ATOM     36  O   UNL     1       8.094   4.230  18.215  0.00  0.00    +0.000 OA
ATOM     37  H   UNL     1       7.591   4.065  19.034  0.00  0.00    +0.000 HD
ENDBRANCH  35  36
ENDBRANCH  30  35
ENDBRANCH  29  32
ENDBRANCH   1  29
TORSDOF 7
ENDMDL
MODEL 9
REMARK VINA RESULT:      -8.2      2.448      2.825
REMARK  Name = 
REMARK  7 active torsions:
REMARK  status: ('A' for Active; 'I' for Inactive)
REMARK    1  A    between atoms: C_2  and  O_3
REMARK    2  A    between atoms: C_2  and  C_4
REMARK    3  A    between atoms: N_6  and  C_7
REMARK    4  A    between atoms: C_7  and  C_8
REMARK    5  A    between atoms: C_20  and  C_21
REMARK    6  A    between atoms: C_24  and  C_25
REMARK    7  A    between atoms: C_31  and  C_32
REMARK                            x       y       z     vdW  Elec       q    Type
REMARK                         _______ _______ _______ _____ _____    ______ ____
ROOT
ATOM      1  C   UNL     1       2.967   5.609  18.328  0.00  0.00    +0.000 A 
ATOM      2  C   UNL     1       2.530   5.390  19.645  0.00  0.00    +0.000 A 
ATOM      3  C   UNL     1       2.004   6.439  20.403  0.00  0.00    +0.000 A 
ATOM      4  C   UNL     1       1.895   7.709  19.835  0.00  0.00    +0.000 A 
ATOM      5  C   UNL     1       2.324   7.940  18.517  0.00  0.00    +0.000 A 
ATOM      6  C   UNL     1       2.888   6.902  17.782  0.00  0.00    +0.000 A 
ATOM      7  O   UNL     1       2.251   9.164  17.887  0.00  0.00    +0.000 OA
ATOM      8  C   UNL     1       1.237  10.087  18.365  0.00  0.00    +0.000 C 
ATOM      9  C   UNL     1       0.975   9.996  19.814  0.00  0.00    +0.000 A 
ATOM     10  C   UNL     1       1.303   8.827  20.521  0.00  0.00    +0.000 A 
ATOM     11  N   UNL     1       0.965   8.913  21.805  0.00  0.00    +0.000 NA
ATOM     12  O   UNL     1       0.388  10.164  21.940  0.00  0.00    +0.000 OA
ATOM     13  C   UNL     1       0.379  10.825  20.739  0.00  0.00    +0.000 A 
ENDROOT
BRANCH  13  14
ATOM     14  C   UNL     1      -0.228  12.109  20.553  0.00  0.00    +0.000 A 
ATOM     15  O   UNL     1      -1.573  12.272  20.716  0.00  0.00    +0.000 OA
ATOM     16  N   UNL     1      -1.920  13.586  20.566  0.00  0.00    +0.000 NA
ATOM     17  C   UNL     1      -0.794  14.253  20.270  0.00  0.00    +0.000 A 
ATOM     18  C   UNL     1       0.316  13.345  20.239  0.00  0.00    +0.000 A 
BRANCH  17  19
ATOM     19  C   UNL     1      -0.855  15.700  20.036  0.00  0.00    +0.000 A 
ATOM     20  C   UNL     1      -0.662  16.211  18.741  0.00  0.00    +0.000 A 
ATOM     21  C   UNL     1      -0.658  17.590  18.507  0.00  0.00    +0.000 A 
ATOM     22  C   UNL     1      -0.859  18.477  19.561  0.00  0.00    +0.000 A 
ATOM     23  C   UNL     1      -1.064  17.986  20.847  0.00  0.00    +0.000 A 
ATOM     24  C   UNL     1      -1.049  16.609  21.084  0.00  0.00    +0.000 A 
ENDBRANCH  17  19
BRANCH  18  25
ATOM     25  C   UNL     1       1.721  13.684  19.940  0.00  0.00    +0.000 C 
ATOM     26  F   UNL     1       2.030  14.988  20.126  0.00  0.00    +0.000 F 
ATOM     27  F   UNL     1       2.580  12.996  20.735  0.00  0.00    +0.000 F 
ATOM     28  F   UNL     1       2.048  13.393  18.657  0.00  0.00    +0.000 F 
ENDBRANCH  18  25
ENDBRANCH  13  14
BRANCH   1  29
ATOM     29  C   UNL     1       3.485   4.469  17.478  0.00  0.00    +0.000 C 
BRANCH  29  32
ATOM     30  C   UNL     1       5.487   4.640  15.354  0.00  0.00    +0.000 C 
ATOM     31  C   UNL     1       5.462   3.489  16.376  0.00  0.00    +0.000 C 
ATOM     32  N   UNL     1       4.958   4.418  17.412  0.00  0.00    +0.000 NA
ATOM     33  C   UNL     1       5.472   5.553  16.603  0.00  0.00    +0.000 C 
BRANCH  30  35
ATOM     34  O   UNL     1       7.664   5.470  14.554  0.00  0.00    +0.000 OA
ATOM     35  C   UNL     1       6.688   4.741  14.402  0.00  0.00    +0.000 C 
BRANCH  35  36
ATOM     36  O   UNL     1       6.587   3.957  13.293  0.00  0.00    +0.000 OA
ATOM     37  H   UNL     1       5.973   4.304  12.620  0.00  0.00    +0.000 HD
ENDBRANCH  35  36
ENDBRANCH  30  35
ENDBRANCH  29  32
ENDBRANCH   1  29
TORSDOF 7
ENDMDL
