MODEL 1
REMARK VINA RESULT:      -8.8      0.000      0.000
REMARK  Name = 
REMARK  7 active torsions:
REMARK  status: ('A' for Active; 'I' for Inactive)
REMARK    1  A    between atoms: C_2  and  C_4
REMARK    2  A    between atoms: C_6  and  C_7
REMARK    3  A    between atoms: C_14  and  N_15
REMARK    4  A    between atoms: N_15  and  C_16
REMARK    5  A    between atoms: C_16  and  N_18
REMARK    6  A    between atoms: N_18  and  C_19
REMARK    7  A    between atoms: C_19  and  C_20
REMARK                            x       y       z     vdW  Elec       q    Type
REMARK                         _______ _______ _______ _____ _____    ______ ____
ROOT
ATOM      1  C   UNL     1       5.568   5.004  16.132  0.00  0.00    +0.000 A 
ATOM      2  C   UNL     1       4.442   4.184  16.510  0.00  0.00    +0.000 A 
ATOM      3  C   UNL     1       3.742   4.672  17.600  0.00  0.00    +0.000 A 
ATOM      4  S   UNL     1       4.445   6.132  18.150  0.00  0.00    +0.000 S 
ATOM      5  C   UNL     1       5.605   6.151  16.906  0.00  0.00    +0.000 A 
ENDROOT
BRANCH   3   6
ATOM      6  C   UNL     1       2.617   4.077  18.331  0.00  0.00    +0.000 A 
ATOM      7  C   UNL     1       2.082   2.842  17.920  0.00  0.00    +0.000 A 
ATOM      8  C   UNL     1       1.065   2.227  18.648  0.00  0.00    +0.000 A 
ATOM      9  C   UNL     1       0.555   2.839  19.791  0.00  0.00    +0.000 A 
ATOM     10  C   UNL     1       1.050   4.076  20.197  0.00  0.00    +0.000 A 
ATOM     11  C   UNL     1       2.065   4.694  19.467  0.00  0.00    +0.000 A 
ENDBRANCH   3   6
BRANCH   1  13
ATOM     12  N   UNL     1       6.275   3.563  14.361  0.00  0.00    +0.000 N 
ATOM     13  C   UNL     1       6.534   4.695  15.087  0.00  0.00    +0.000 C 
ATOM     14  O   UNL     1       7.518   5.386  14.850  0.00  0.00    +0.000 OA
ATOM     15  H   UNL     1       6.893   3.361  13.588  0.00  0.00    +0.000 HD
ATOM     16  H   UNL     1       5.357   3.141  14.350  0.00  0.00    +0.000 HD
ENDBRANCH   1  13
BRANCH   5  17
ATOM     17  N   UNL     1       6.523   7.198  16.909  0.00  0.00    +0.000 N 
ATOM     18  H   UNL     1       6.144   8.095  16.614  0.00  0.00    +0.000 HD
BRANCH  17  19
ATOM     19  C   UNL     1       7.632   7.291  17.760  0.00  0.00    +0.000 C 
ATOM     20  S   UNL     1       8.033   6.207  18.981  0.00  0.00    +0.000 S 
BRANCH  19  21
ATOM     21  N   UNL     1       8.328   8.467  17.523  0.00  0.00    +0.000 N 
ATOM     22  H   UNL     1       9.165   8.396  16.960  0.00  0.00    +0.000 HD
BRANCH  21  23
ATOM     23  C   UNL     1       7.989   9.798  18.016  0.00  0.00    +0.000 C 
BRANCH  23  24
ATOM     24  C   UNL     1       9.173  10.524  18.601  0.00  0.00    +0.000 A 
ATOM     25  C   UNL     1      10.162  11.069  17.769  0.00  0.00    +0.000 A 
ATOM     26  C   UNL     1      11.240  11.770  18.315  0.00  0.00    +0.000 A 
ATOM     27  C   UNL     1      11.345  11.932  19.695  0.00  0.00    +0.000 A 
ATOM     28  C   UNL     1      10.370  11.393  20.531  0.00  0.00    +0.000 A 
ATOM     29  C   UNL     1       9.292  10.689  19.989  0.00  0.00    +0.000 A 
ENDBRANCH  23  24
ENDBRANCH  21  23
ENDBRANCH  19  21
ENDBRANCH  17  19
ENDBRANCH   5  17
TORSDOF 7
ENDMDL
MODEL 2
REMARK VINA RESULT:      -8.6      0.782      1.531
REMARK  Name = 
REMARK  7 active torsions:
REMARK  status: ('A' for Active; 'I' for Inactive)
REMARK    1  A    between atoms: C_2  and  C_4
REMARK    2  A    between atoms: C_6  and  C_7
REMARK    3  A    between atoms: C_14  and  N_15
REMARK    4  A    between atoms: N_15  and  C_16
REMARK    5  A    between atoms: C_16  and  N_18
REMARK    6  A    between atoms: N_18  and  C_19
REMARK    7  A    between atoms: C_19  and  C_20
REMARK                            x       y       z     vdW  Elec       q    Type
REMARK                         _______ _______ _______ _____ _____    ______ ____
ROOT
ATOM      1  C   UNL     1       5.607   5.001  16.137  0.00  0.00    +0.000 A 
ATOM      2  C   UNL     1       4.508   4.147  16.519  0.00  0.00    +0.000 A 
ATOM      3  C   UNL     1       3.788   4.621  17.602  0.00  0.00    +0.000 A 
ATOM      4  S   UNL     1       4.439   6.109  18.141  0.00  0.00    +0.000 S 
ATOM      5  C   UNL     1       5.602   6.156  16.901  0.00  0.00    +0.000 A 
ENDROOT
BRANCH   3   6
ATOM      6  C   UNL     1       2.681   3.995  18.335  0.00  0.00    +0.000 A 
ATOM      7  C   UNL     1       2.160   4.611  19.489  0.00  0.00    +0.000 A 
ATOM      8  C   UNL     1       1.060   4.069  20.152  0.00  0.00    +0.000 A 
ATOM      9  C   UNL     1       0.469   2.898  19.684  0.00  0.00    +0.000 A 
ATOM     10  C   UNL     1       0.989   2.257  18.562  0.00  0.00    +0.000 A 
ATOM     11  C   UNL     1       2.091   2.795  17.900  0.00  0.00    +0.000 A 
ENDBRANCH   3   6
BRANCH   1  13
ATOM     12  N   UNL     1       6.323   3.615  14.327  0.00  0.00    +0.000 N 
ATOM     13  C   UNL     1       6.587   4.716  15.098  0.00  0.00    +0.000 C 
ATOM     14  O   UNL     1       7.584   5.399  14.904  0.00  0.00    +0.000 OA
ATOM     15  H   UNL     1       6.951   3.432  13.558  0.00  0.00    +0.000 HD
ATOM     16  H   UNL     1       5.399   3.208  14.284  0.00  0.00    +0.000 HD
ENDBRANCH   1  13
BRANCH   5  17
ATOM     17  N   UNL     1       6.484   7.233  16.897  0.00  0.00    +0.000 N 
ATOM     18  H   UNL     1       6.086   8.106  16.558  0.00  0.00    +0.000 HD
BRANCH  17  19
ATOM     19  C   UNL     1       7.561   7.393  17.780  0.00  0.00    +0.000 C 
ATOM     20  S   UNL     1       8.094   6.259  18.901  0.00  0.00    +0.000 S 
BRANCH  19  21
ATOM     21  N   UNL     1       8.089   8.671  17.675  0.00  0.00    +0.000 N 
ATOM     22  H   UNL     1       8.022   9.119  16.771  0.00  0.00    +0.000 HD
BRANCH  21  23
ATOM     23  C   UNL     1       8.747   9.434  18.730  0.00  0.00    +0.000 C 
BRANCH  23  24
ATOM     24  C   UNL     1       9.252  10.772  18.256  0.00  0.00    +0.000 A 
ATOM     25  C   UNL     1       8.358  11.770  17.841  0.00  0.00    +0.000 A 
ATOM     26  C   UNL     1       8.830  13.020  17.434  0.00  0.00    +0.000 A 
ATOM     27  C   UNL     1      10.198  13.287  17.434  0.00  0.00    +0.000 A 
ATOM     28  C   UNL     1      11.096  12.303  17.842  0.00  0.00    +0.000 A 
ATOM     29  C   UNL     1      10.628  11.051  18.248  0.00  0.00    +0.000 A 
ENDBRANCH  23  24
ENDBRANCH  21  23
ENDBRANCH  19  21
ENDBRANCH  17  19
ENDBRANCH   5  17
TORSDOF 7
ENDMDL
MODEL 3
REMARK VINA RESULT:      -8.5      4.053      6.936
REMARK  Name = 
REMARK  7 active torsions:
REMARK  status: ('A' for Active; 'I' for Inactive)
REMARK    1  A    between atoms: C_2  and  C_4
REMARK    2  A    between atoms: C_6  and  C_7
REMARK    3  A    between atoms: C_14  and  N_15
REMARK    4  A    between atoms: N_15  and  C_16
REMARK    5  A    between atoms: C_16  and  N_18
REMARK    6  A    between atoms: N_18  and  C_19
REMARK    7  A    between atoms: C_19  and  C_20
REMARK                            x       y       z     vdW  Elec       q    Type
REMARK                         _______ _______ _______ _____ _____    ______ ____
ROOT
ATOM      1  C   UNL     1       6.948   5.252  18.121  0.00  0.00    +0.000 A 
ATOM      2  C   UNL     1       7.291   5.422  16.729  0.00  0.00    +0.000 A 
ATOM      3  C   UNL     1       6.505   4.676  15.869  0.00  0.00    +0.000 A 
ATOM      4  S   UNL     1       5.343   3.784  16.752  0.00  0.00    +0.000 S 
ATOM      5  C   UNL     1       5.827   4.448  18.242  0.00  0.00    +0.000 A 
ENDROOT
BRANCH   3   6
ATOM      6  C   UNL     1       6.611   4.507  14.415  0.00  0.00    +0.000 A 
ATOM      7  C   UNL     1       7.578   5.228  13.689  0.00  0.00    +0.000 A 
ATOM      8  C   UNL     1       7.742   5.022  12.320  0.00  0.00    +0.000 A 
ATOM      9  C   UNL     1       6.937   4.104  11.650  0.00  0.00    +0.000 A 
ATOM     10  C   UNL     1       5.954   3.403  12.344  0.00  0.00    +0.000 A 
ATOM     11  C   UNL     1       5.786   3.611  13.713  0.00  0.00    +0.000 A 
ENDBRANCH   3   6
BRANCH   1  13
ATOM     12  N   UNL     1       8.369   6.974  18.975  0.00  0.00    +0.000 N 
ATOM     13  C   UNL     1       7.655   5.838  19.251  0.00  0.00    +0.000 C 
ATOM     14  O   UNL     1       7.629   5.368  20.382  0.00  0.00    +0.000 OA
ATOM     15  H   UNL     1       8.816   7.437  19.753  0.00  0.00    +0.000 HD
ATOM     16  H   UNL     1       8.190   7.521  18.144  0.00  0.00    +0.000 HD
ENDBRANCH   1  13
BRANCH   5  17
ATOM     17  N   UNL     1       5.169   3.999  19.383  0.00  0.00    +0.000 N 
ATOM     18  H   UNL     1       5.783   3.732  20.149  0.00  0.00    +0.000 HD
BRANCH  17  19
ATOM     19  C   UNL     1       3.888   4.403  19.782  0.00  0.00    +0.000 C 
ATOM     20  S   UNL     1       2.657   3.391  20.322  0.00  0.00    +0.000 S 
BRANCH  19  21
ATOM     21  N   UNL     1       3.726   5.766  19.588  0.00  0.00    +0.000 N 
ATOM     22  H   UNL     1       4.061   6.375  20.323  0.00  0.00    +0.000 HD
BRANCH  21  23
ATOM     23  C   UNL     1       3.107   6.418  18.438  0.00  0.00    +0.000 C 
BRANCH  23  24
ATOM     24  C   UNL     1       2.315   7.643  18.816  0.00  0.00    +0.000 A 
ATOM     25  C   UNL     1       2.006   8.621  17.860  0.00  0.00    +0.000 A 
ATOM     26  C   UNL     1       1.244   9.738  18.210  0.00  0.00    +0.000 A 
ATOM     27  C   UNL     1       0.784   9.892  19.515  0.00  0.00    +0.000 A 
ATOM     28  C   UNL     1       1.086   8.928  20.475  0.00  0.00    +0.000 A 
ATOM     29  C   UNL     1       1.850   7.811  20.130  0.00  0.00    +0.000 A 
ENDBRANCH  23  24
ENDBRANCH  21  23
ENDBRANCH  19  21
ENDBRANCH  17  19
ENDBRANCH   5  17
TORSDOF 7
ENDMDL
MODEL 4
REMARK VINA RESULT:      -8.4      3.988      7.030
REMARK  Name = 
REMARK  7 active torsions:
REMARK  status: ('A' for Active; 'I' for Inactive)
REMARK    1  A    between atoms: C_2  and  C_4
REMARK    2  A    between atoms: C_6  and  C_7
REMARK    3  A    between atoms: C_14  and  N_15
REMARK    4  A    between atoms: N_15  and  C_16
REMARK    5  A    between atoms: C_16  and  N_18
REMARK    6  A    between atoms: N_18  and  C_19
REMARK    7  A    between atoms: C_19  and  C_20
REMARK                            x       y       z     vdW  Elec       q    Type
REMARK                         _______ _______ _______ _____ _____    ______ ____
ROOT
ATOM      1  C   UNL     1       6.989   5.287  18.111  0.00  0.00    +0.000 A 
ATOM      2  C   UNL     1       7.316   5.465  16.716  0.00  0.00    +0.000 A 
ATOM      3  C   UNL     1       6.529   4.713  15.861  0.00  0.00    +0.000 A 
ATOM      4  S   UNL     1       5.385   3.806  16.754  0.00  0.00    +0.000 S 
ATOM      5  C   UNL     1       5.878   4.471  18.240  0.00  0.00    +0.000 A 
ENDROOT
BRANCH   3   6
ATOM      6  C   UNL     1       6.621   4.550  14.406  0.00  0.00    +0.000 A 
ATOM      7  C   UNL     1       7.552   5.305  13.668  0.00  0.00    +0.000 A 
ATOM      8  C   UNL     1       7.705   5.108  12.297  0.00  0.00    +0.000 A 
ATOM      9  C   UNL     1       6.924   4.162  11.636  0.00  0.00    +0.000 A 
ATOM     10  C   UNL     1       5.976   3.426  12.342  0.00  0.00    +0.000 A 
ATOM     11  C   UNL     1       5.819   3.626  13.713  0.00  0.00    +0.000 A 
ENDBRANCH   3   6
BRANCH   1  13
ATOM     12  N   UNL     1       8.382   7.033  18.960  0.00  0.00    +0.000 N 
ATOM     13  C   UNL     1       7.702   5.876  19.235  0.00  0.00    +0.000 C 
ATOM     14  O   UNL     1       7.708   5.392  20.360  0.00  0.00    +0.000 OA
ATOM     15  H   UNL     1       8.831   7.498  19.736  0.00  0.00    +0.000 HD
ATOM     16  H   UNL     1       8.175   7.586  18.140  0.00  0.00    +0.000 HD
ENDBRANCH   1  13
BRANCH   5  17
ATOM     17  N   UNL     1       5.237   4.011  19.387  0.00  0.00    +0.000 N 
ATOM     18  H   UNL     1       5.824   3.979  20.218  0.00  0.00    +0.000 HD
BRANCH  17  19
ATOM     19  C   UNL     1       3.868   4.151  19.652  0.00  0.00    +0.000 C 
ATOM     20  S   UNL     1       2.711   2.935  19.538  0.00  0.00    +0.000 S 
BRANCH  19  21
ATOM     21  N   UNL     1       3.561   5.472  19.940  0.00  0.00    +0.000 N 
ATOM     22  H   UNL     1       4.325   6.134  19.909  0.00  0.00    +0.000 HD
BRANCH  21  23
ATOM     23  C   UNL     1       2.253   6.007  20.301  0.00  0.00    +0.000 C 
BRANCH  23  24
ATOM     24  C   UNL     1       1.966   7.338  19.653  0.00  0.00    +0.000 A 
ATOM     25  C   UNL     1       1.336   8.364  20.372  0.00  0.00    +0.000 A 
ATOM     26  C   UNL     1       1.103   9.606  19.777  0.00  0.00    +0.000 A 
ATOM     27  C   UNL     1       1.492   9.836  18.459  0.00  0.00    +0.000 A 
ATOM     28  C   UNL     1       2.117   8.824  17.734  0.00  0.00    +0.000 A 
ATOM     29  C   UNL     1       2.350   7.580  18.325  0.00  0.00    +0.000 A 
ENDBRANCH  23  24
ENDBRANCH  21  23
ENDBRANCH  19  21
ENDBRANCH  17  19
ENDBRANCH   5  17
TORSDOF 7
ENDMDL
MODEL 5
REMARK VINA RESULT:      -8.2      3.987      7.022
REMARK  Name = 
REMARK  7 active torsions:
REMARK  status: ('A' for Active; 'I' for Inactive)
REMARK    1  A    between atoms: C_2  and  C_4
REMARK    2  A    between atoms: C_6  and  C_7
REMARK    3  A    between atoms: C_14  and  N_15
REMARK    4  A    between atoms: N_15  and  C_16
REMARK    5  A    between atoms: C_16  and  N_18
REMARK    6  A    between atoms: N_18  and  C_19
REMARK    7  A    between atoms: C_19  and  C_20
REMARK                            x       y       z     vdW  Elec       q    Type
REMARK                         _______ _______ _______ _____ _____    ______ ____
ROOT
ATOM      1  C   UNL     1       6.879   5.242  18.054  0.00  0.00    +0.000 A 
ATOM      2  C   UNL     1       7.308   5.368  16.682  0.00  0.00    +0.000 A 
ATOM      3  C   UNL     1       6.518   4.667  15.787  0.00  0.00    +0.000 A 
ATOM      4  S   UNL     1       5.249   3.871  16.615  0.00  0.00    +0.000 S 
ATOM      5  C   UNL     1       5.699   4.520  18.122  0.00  0.00    +0.000 A 
ENDROOT
BRANCH   3   6
ATOM      6  C   UNL     1       6.689   4.471  14.343  0.00  0.00    +0.000 A 
ATOM      7  C   UNL     1       5.889   3.539  13.657  0.00  0.00    +0.000 A 
ATOM      8  C   UNL     1       5.986   3.395  12.273  0.00  0.00    +0.000 A 
ATOM      9  C   UNL     1       6.891   4.171  11.553  0.00  0.00    +0.000 A 
ATOM     10  C   UNL     1       7.714   5.077  12.217  0.00  0.00    +0.000 A 
ATOM     11  C   UNL     1       7.621   5.219  13.601  0.00  0.00    +0.000 A 
ENDBRANCH   3   6
BRANCH   1  13
ATOM     12  N   UNL     1       8.330   6.902  18.976  0.00  0.00    +0.000 N 
ATOM     13  C   UNL     1       7.565   5.791  19.215  0.00  0.00    +0.000 C 
ATOM     14  O   UNL     1       7.478   5.315  20.340  0.00  0.00    +0.000 OA
ATOM     15  H   UNL     1       8.765   7.342  19.775  0.00  0.00    +0.000 HD
ATOM     16  H   UNL     1       8.204   7.462  18.144  0.00  0.00    +0.000 HD
ENDBRANCH   1  13
BRANCH   5  17
ATOM     17  N   UNL     1       4.951   4.134  19.230  0.00  0.00    +0.000 N 
ATOM     18  H   UNL     1       5.200   4.607  20.096  0.00  0.00    +0.000 HD
BRANCH  17  19
ATOM     19  C   UNL     1       3.629   3.671  19.184  0.00  0.00    +0.000 C 
ATOM     20  S   UNL     1       3.149   2.074  18.969  0.00  0.00    +0.000 S 
BRANCH  19  21
ATOM     21  N   UNL     1       2.740   4.734  19.249  0.00  0.00    +0.000 N 
ATOM     22  H   UNL     1       1.996   4.748  18.563  0.00  0.00    +0.000 HD
BRANCH  21  23
ATOM     23  C   UNL     1       2.773   5.845  20.193  0.00  0.00    +0.000 C 
BRANCH  23  24
ATOM     24  C   UNL     1       2.287   7.139  19.592  0.00  0.00    +0.000 A 
ATOM     25  C   UNL     1       1.527   8.041  20.350  0.00  0.00    +0.000 A 
ATOM     26  C   UNL     1       1.107   9.253  19.796  0.00  0.00    +0.000 A 
ATOM     27  C   UNL     1       1.439   9.577  18.483  0.00  0.00    +0.000 A 
ATOM     28  C   UNL     1       2.193   8.688  17.719  0.00  0.00    +0.000 A 
ATOM     29  C   UNL     1       2.612   7.474  18.268  0.00  0.00    +0.000 A 
ENDBRANCH  23  24
ENDBRANCH  21  23
ENDBRANCH  19  21
ENDBRANCH  17  19
ENDBRANCH   5  17
TORSDOF 7
ENDMDL
MODEL 6
REMARK VINA RESULT:      -8.2      0.958      1.340
REMARK  Name = 
REMARK  7 active torsions:
REMARK  status: ('A' for Active; 'I' for Inactive)
REMARK    1  A    between atoms: C_2  and  C_4
REMARK    2  A    between atoms: C_6  and  C_7
REMARK    3  A    between atoms: C_14  and  N_15
REMARK    4  A    between atoms: N_15  and  C_16
REMARK    5  A    between atoms: C_16  and  N_18
REMARK    6  A    between atoms: N_18  and  C_19
REMARK    7  A    between atoms: C_19  and  C_20
REMARK                            x       y       z     vdW  Elec       q    Type
REMARK                         _______ _______ _______ _____ _____    ______ ____
ROOT
ATOM      1  C   UNL     1       5.622   5.019  16.106  0.00  0.00    +0.000 A 
ATOM      2  C   UNL     1       4.492   4.199  16.470  0.00  0.00    +0.000 A 
ATOM      3  C   UNL     1       3.782   4.682  17.555  0.00  0.00    +0.000 A 
ATOM      4  S   UNL     1       4.481   6.139  18.119  0.00  0.00    +0.000 S 
ATOM      5  C   UNL     1       5.652   6.163  16.885  0.00  0.00    +0.000 A 
ENDROOT
BRANCH   3   6
ATOM      6  C   UNL     1       2.650   4.085  18.273  0.00  0.00    +0.000 A 
ATOM      7  C   UNL     1       2.149   2.829  17.881  0.00  0.00    +0.000 A 
ATOM      8  C   UNL     1       1.125   2.213  18.599  0.00  0.00    +0.000 A 
ATOM      9  C   UNL     1       0.575   2.845  19.713  0.00  0.00    +0.000 A 
ATOM     10  C   UNL     1       1.036   4.102  20.098  0.00  0.00    +0.000 A 
ATOM     11  C   UNL     1       2.057   4.720  19.378  0.00  0.00    +0.000 A 
ENDBRANCH   3   6
BRANCH   1  13
ATOM     12  N   UNL     1       6.299   3.637  14.278  0.00  0.00    +0.000 N 
ATOM     13  C   UNL     1       6.598   4.715  15.068  0.00  0.00    +0.000 C 
ATOM     14  O   UNL     1       7.621   5.364  14.891  0.00  0.00    +0.000 OA
ATOM     15  H   UNL     1       6.925   3.443  13.509  0.00  0.00    +0.000 HD
ATOM     16  H   UNL     1       5.361   3.265  14.223  0.00  0.00    +0.000 HD
ENDBRANCH   1  13
BRANCH   5  17
ATOM     17  N   UNL     1       6.571   7.209  16.901  0.00  0.00    +0.000 N 
ATOM     18  H   UNL     1       6.240   8.071  16.472  0.00  0.00    +0.000 HD
BRANCH  17  19
ATOM     19  C   UNL     1       7.563   7.392  17.873  0.00  0.00    +0.000 C 
ATOM     20  S   UNL     1       8.098   6.232  18.968  0.00  0.00    +0.000 S 
BRANCH  19  21
ATOM     21  N   UNL     1       7.998   8.709  17.882  0.00  0.00    +0.000 N 
ATOM     22  H   UNL     1       7.515   9.352  17.269  0.00  0.00    +0.000 HD
BRANCH  21  23
ATOM     23  C   UNL     1       9.093   9.262  18.671  0.00  0.00    +0.000 C 
BRANCH  23  24
ATOM     24  C   UNL     1       9.007  10.760  18.822  0.00  0.00    +0.000 A 
ATOM     25  C   UNL     1       9.301  11.375  20.047  0.00  0.00    +0.000 A 
ATOM     26  C   UNL     1       9.251  12.766  20.172  0.00  0.00    +0.000 A 
ATOM     27  C   UNL     1       8.904  13.555  19.078  0.00  0.00    +0.000 A 
ATOM     28  C   UNL     1       8.608  12.955  17.856  0.00  0.00    +0.000 A 
ATOM     29  C   UNL     1       8.654  11.565  17.728  0.00  0.00    +0.000 A 
ENDBRANCH  23  24
ENDBRANCH  21  23
ENDBRANCH  19  21
ENDBRANCH  17  19
ENDBRANCH   5  17
TORSDOF 7
ENDMDL
MODEL 7
REMARK VINA RESULT:      -8.1      4.063      6.348
REMARK  Name = 
REMARK  7 active torsions:
REMARK  status: ('A' for Active; 'I' for Inactive)
REMARK    1  A    between atoms: C_2  and  C_4
REMARK    2  A    between atoms: C_6  and  C_7
REMARK    3  A    between atoms: C_14  and  N_15
REMARK    4  A    between atoms: N_15  and  C_16
REMARK    5  A    between atoms: C_16  and  N_18
REMARK    6  A    between atoms: N_18  and  C_19
REMARK    7  A    between atoms: C_19  and  C_20
REMARK                            x       y       z     vdW  Elec       q    Type
REMARK                         _______ _______ _______ _____ _____    ______ ____
ROOT
ATOM      1  C   UNL     1       2.110   4.724  20.651  0.00  0.00    +0.000 A 
ATOM      2  C   UNL     1       1.380   5.953  20.855  0.00  0.00    +0.000 A 
ATOM      3  C   UNL     1       1.876   7.020  20.125  0.00  0.00    +0.000 A 
ATOM      4  S   UNL     1       3.216   6.522  19.184  0.00  0.00    +0.000 S 
ATOM      5  C   UNL     1       3.079   4.900  19.678  0.00  0.00    +0.000 A 
ENDROOT
BRANCH   3   6
ATOM      6  C   UNL     1       1.473   8.431  20.140  0.00  0.00    +0.000 A 
ATOM      7  C   UNL     1       1.459   9.174  18.945  0.00  0.00    +0.000 A 
ATOM      8  C   UNL     1       1.006  10.493  18.929  0.00  0.00    +0.000 A 
ATOM      9  C   UNL     1       0.572  11.096  20.108  0.00  0.00    +0.000 A 
ATOM     10  C   UNL     1       0.608  10.388  21.306  0.00  0.00    +0.000 A 
ATOM     11  C   UNL     1       1.064   9.070  21.324  0.00  0.00    +0.000 A 
ENDBRANCH   3   6
BRANCH   1  13
ATOM     12  N   UNL     1       0.714   2.819  21.019  0.00  0.00    +0.000 N 
ATOM     13  C   UNL     1       1.874   3.468  21.349  0.00  0.00    +0.000 C 
ATOM     14  O   UNL     1       2.646   3.000  22.177  0.00  0.00    +0.000 OA
ATOM     15  H   UNL     1       0.558   1.914  21.439  0.00  0.00    +0.000 HD
ATOM     16  H   UNL     1       0.213   3.033  20.168  0.00  0.00    +0.000 HD
ENDBRANCH   1  13
BRANCH   5  17
ATOM     17  N   UNL     1       4.024   4.003  19.188  0.00  0.00    +0.000 N 
ATOM     18  H   UNL     1       4.655   3.625  19.891  0.00  0.00    +0.000 HD
BRANCH  17  19
ATOM     19  C   UNL     1       3.844   3.178  18.069  0.00  0.00    +0.000 C 
ATOM     20  S   UNL     1       2.477   2.258  17.732  0.00  0.00    +0.000 S 
BRANCH  19  21
ATOM     21  N   UNL     1       4.998   3.144  17.301  0.00  0.00    +0.000 N 
ATOM     22  H   UNL     1       5.570   2.313  17.376  0.00  0.00    +0.000 HD
BRANCH  21  23
ATOM     23  C   UNL     1       5.483   4.188  16.405  0.00  0.00    +0.000 C 
BRANCH  23  24
ATOM     24  C   UNL     1       6.331   5.216  17.109  0.00  0.00    +0.000 A 
ATOM     25  C   UNL     1       7.248   4.832  18.099  0.00  0.00    +0.000 A 
ATOM     26  C   UNL     1       8.054   5.785  18.725  0.00  0.00    +0.000 A 
ATOM     27  C   UNL     1       7.953   7.130  18.374  0.00  0.00    +0.000 A 
ATOM     28  C   UNL     1       7.044   7.523  17.394  0.00  0.00    +0.000 A 
ATOM     29  C   UNL     1       6.234   6.573  16.767  0.00  0.00    +0.000 A 
ENDBRANCH  23  24
ENDBRANCH  21  23
ENDBRANCH  19  21
ENDBRANCH  17  19
ENDBRANCH   5  17
TORSDOF 7
ENDMDL
MODEL 8
REMARK VINA RESULT:      -8.1      0.467      1.071
REMARK  Name = 
REMARK  7 active torsions:
REMARK  status: ('A' for Active; 'I' for Inactive)
REMARK    1  A    between atoms: C_2  and  C_4
REMARK    2  A    between atoms: C_6  and  C_7
REMARK    3  A    between atoms: C_14  and  N_15
REMARK    4  A    between atoms: N_15  and  C_16
REMARK    5  A    between atoms: C_16  and  N_18
REMARK    6  A    between atoms: N_18  and  C_19
REMARK    7  A    between atoms: C_19  and  C_20
REMARK                            x       y       z     vdW  Elec       q    Type
REMARK                         _______ _______ _______ _____ _____    ______ ____
ROOT
ATOM      1  C   UNL     1       5.725   5.094  16.188  0.00  0.00    +0.000 A 
ATOM      2  C   UNL     1       4.527   4.340  16.473  0.00  0.00    +0.000 A 
ATOM      3  C   UNL     1       3.962   4.638  17.701  0.00  0.00    +0.000 A 
ATOM      4  S   UNL     1       4.880   5.842  18.498  0.00  0.00    +0.000 S 
ATOM      5  C   UNL     1       5.956   6.019  17.192  0.00  0.00    +0.000 A 
ENDROOT
BRANCH   3   6
ATOM      6  C   UNL     1       2.816   4.019  18.377  0.00  0.00    +0.000 A 
ATOM      7  C   UNL     1       2.167   4.696  19.427  0.00  0.00    +0.000 A 
ATOM      8  C   UNL     1       1.031   4.157  20.029  0.00  0.00    +0.000 A 
ATOM      9  C   UNL     1       0.530   2.929  19.602  0.00  0.00    +0.000 A 
ATOM     10  C   UNL     1       1.176   2.229  18.585  0.00  0.00    +0.000 A 
ATOM     11  C   UNL     1       2.315   2.765  17.985  0.00  0.00    +0.000 A 
ENDBRANCH   3   6
BRANCH   1  13
ATOM     12  N   UNL     1       6.070   4.135  14.027  0.00  0.00    +0.000 N 
ATOM     13  C   UNL     1       6.578   4.929  15.020  0.00  0.00    +0.000 C 
ATOM     14  O   UNL     1       7.678   5.457  14.907  0.00  0.00    +0.000 OA
ATOM     15  H   UNL     1       6.612   4.056  13.178  0.00  0.00    +0.000 HD
ATOM     16  H   UNL     1       5.084   3.920  13.974  0.00  0.00    +0.000 HD
ENDBRANCH   1  13
BRANCH   5  17
ATOM     17  N   UNL     1       6.999   6.927  17.347  0.00  0.00    +0.000 N 
ATOM     18  H   UNL     1       6.818   7.852  16.962  0.00  0.00    +0.000 HD
BRANCH  17  19
ATOM     19  C   UNL     1       7.930   6.910  18.394  0.00  0.00    +0.000 C 
ATOM     20  S   UNL     1       8.048   5.735  19.591  0.00  0.00    +0.000 S 
BRANCH  19  21
ATOM     21  N   UNL     1       8.705   8.060  18.373  0.00  0.00    +0.000 N 
ATOM     22  H   UNL     1       9.702   7.940  18.500  0.00  0.00    +0.000 HD
BRANCH  21  23
ATOM     23  C   UNL     1       8.232   9.430  18.205  0.00  0.00    +0.000 C 
BRANCH  23  24
ATOM     24  C   UNL     1       9.198  10.453  18.746  0.00  0.00    +0.000 A 
ATOM     25  C   UNL     1       9.991  11.220  17.880  0.00  0.00    +0.000 A 
ATOM     26  C   UNL     1      10.860  12.189  18.386  0.00  0.00    +0.000 A 
ATOM     27  C   UNL     1      10.950  12.401  19.760  0.00  0.00    +0.000 A 
ATOM     28  C   UNL     1      10.169  11.644  20.631  0.00  0.00    +0.000 A 
ATOM     29  C   UNL     1       9.300  10.672  20.129  0.00  0.00    +0.000 A 
ENDBRANCH  23  24
ENDBRANCH  21  23
ENDBRANCH  19  21
ENDBRANCH  17  19
ENDBRANCH   5  17
TORSDOF 7
ENDMDL
MODEL 9
REMARK VINA RESULT:      -8.0      4.327      6.362
REMARK  Name = 
REMARK  7 active torsions:
REMARK  status: ('A' for Active; 'I' for Inactive)
REMARK    1  A    between atoms: C_2  and  C_4
REMARK    2  A    between atoms: C_6  and  C_7
REMARK    3  A    between atoms: C_14  and  N_15
REMARK    4  A    between atoms: N_15  and  C_16
REMARK    5  A    between atoms: C_16  and  N_18
REMARK    6  A    between atoms: N_18  and  C_19
REMARK    7  A    between atoms: C_19  and  C_20
REMARK                            x       y       z     vdW  Elec       q    Type
REMARK                         _______ _______ _______ _____ _____    ______ ____
ROOT
ATOM      1  C   UNL     1       3.329   3.990  18.265  0.00  0.00    +0.000 A 
ATOM      2  C   UNL     1       2.325   5.021  18.376  0.00  0.00    +0.000 A 
ATOM      3  C   UNL     1       2.846   6.276  18.641  0.00  0.00    +0.000 A 
ATOM      4  S   UNL     1       4.553   6.200  18.739  0.00  0.00    +0.000 S 
ATOM      5  C   UNL     1       4.595   4.544  18.351  0.00  0.00    +0.000 A 
ENDROOT
BRANCH   3   6
ATOM      6  C   UNL     1       2.150   7.538  18.918  0.00  0.00    +0.000 A 
ATOM      7  C   UNL     1       1.881   8.440  17.871  0.00  0.00    +0.000 A 
ATOM      8  C   UNL     1       1.154   9.607  18.103  0.00  0.00    +0.000 A 
ATOM      9  C   UNL     1       0.695   9.900  19.385  0.00  0.00    +0.000 A 
ATOM     10  C   UNL     1       0.977   9.035  20.440  0.00  0.00    +0.000 A 
ATOM     11  C   UNL     1       1.707   7.870  20.210  0.00  0.00    +0.000 A 
ENDBRANCH   3   6
BRANCH   1  13
ATOM     12  N   UNL     1       1.783   2.168  18.307  0.00  0.00    +0.000 N 
ATOM     13  C   UNL     1       3.073   2.568  18.081  0.00  0.00    +0.000 C 
ATOM     14  O   UNL     1       3.934   1.764  17.745  0.00  0.00    +0.000 OA
ATOM     15  H   UNL     1       1.563   1.199  18.124  0.00  0.00    +0.000 HD
ATOM     16  H   UNL     1       1.018   2.828  18.315  0.00  0.00    +0.000 HD
ENDBRANCH   1  13
BRANCH   5  17
ATOM     17  N   UNL     1       5.843   3.928  18.325  0.00  0.00    +0.000 N 
ATOM     18  H   UNL     1       5.829   2.953  18.033  0.00  0.00    +0.000 HD
BRANCH  17  19
ATOM     19  C   UNL     1       7.058   4.585  18.087  0.00  0.00    +0.000 C 
ATOM     20  S   UNL     1       7.947   5.456  19.219  0.00  0.00    +0.000 S 
BRANCH  19  21
ATOM     21  N   UNL     1       7.400   4.503  16.746  0.00  0.00    +0.000 N 
ATOM     22  H   UNL     1       7.954   3.704  16.465  0.00  0.00    +0.000 HD
BRANCH  21  23
ATOM     23  C   UNL     1       7.059   5.458  15.697  0.00  0.00    +0.000 C 
BRANCH  23  24
ATOM     24  C   UNL     1       6.815   4.799  14.363  0.00  0.00    +0.000 A 
ATOM     25  C   UNL     1       5.734   3.923  14.184  0.00  0.00    +0.000 A 
ATOM     26  C   UNL     1       5.494   3.342  12.936  0.00  0.00    +0.000 A 
ATOM     27  C   UNL     1       6.329   3.625  11.858  0.00  0.00    +0.000 A 
ATOM     28  C   UNL     1       7.407   4.492  12.025  0.00  0.00    +0.000 A 
ATOM     29  C   UNL     1       7.652   5.074  13.271  0.00  0.00    +0.000 A 
ENDBRANCH  23  24
ENDBRANCH  21  23
ENDBRANCH  19  21
ENDBRANCH  17  19
ENDBRANCH   5  17
TORSDOF 7
ENDMDL
