MODEL 1
REMARK VINA RESULT:      -6.3      0.000      0.000
REMARK  Name = 
REMARK  12 active torsions:
REMARK  status: ('A' for Active; 'I' for Inactive)
REMARK    1  A    between atoms: C_1  and  C_2
REMARK    2  A    between atoms: C_2  and  C_3
REMARK    3  A    between atoms: C_3  and  C_4
REMARK    4  A    between atoms: C_4  and  C_5
REMARK    5  A    between atoms: C_4  and  C_8
REMARK    6  A    between atoms: C_5  and  C_6
REMARK    7  A    between atoms: C_6  and  C_7
REMARK    8  A    between atoms: N_16  and  C_17
REMARK    9  A    between atoms: C_18  and  C_19
REMARK   10  A    between atoms: C_24  and  O_25
REMARK   11  A    between atoms: O_25  and  C_26
REMARK   12  A    between atoms: N_27  and  C_28
REMARK                            x       y       z     vdW  Elec       q    Type
REMARK                         _______ _______ _______ _____ _____    ______ ____
ROOT
ATOM      1  C   UNL     1      -0.528  10.489  18.818  0.00  0.00    +0.000 A 
ATOM      2  C   UNL     1      -1.246   9.696  17.868  0.00  0.00    +0.000 A 
ATOM      3  C   UNL     1      -2.564   9.926  17.491  0.00  0.00    +0.000 A 
ATOM      4  C   UNL     1      -3.223  11.014  18.019  0.00  0.00    +0.000 A 
ATOM      5 CL   UNL     1      -4.862  11.339  17.660  0.00  0.00    +0.000 Cl
ATOM      6  C   UNL     1      -2.593  11.850  18.952  0.00  0.00    +0.000 A 
ATOM      7  N   UNL     1      -3.114  12.927  19.613  0.00  0.00    +0.000 NA
ATOM      8  C   UNL     1      -2.266  13.212  20.567  0.00  0.00    +0.000 A 
ATOM      9  N   UNL     1      -2.537  13.954  21.669  0.00  0.00    +0.000 N 
ATOM     10  N   UNL     1      -1.070  12.527  20.372  0.00  0.00    +0.000 N 
ATOM     11  C   UNL     1       0.082  12.641  21.232  0.00  0.00    +0.000 C 
ATOM     12  C   UNL     1      -1.277  11.573  19.371  0.00  0.00    +0.000 A 
ATOM     13  H   UNL     1      -1.832  14.167  22.363  0.00  0.00    +0.000 HD
ENDROOT
BRANCH   9  14
ATOM     14  C   UNL     1      -3.828  14.005  22.276  0.00  0.00    +0.000 A 
ATOM     15  C   UNL     1      -4.227  13.116  23.314  0.00  0.00    +0.000 A 
ATOM     16  C   UNL     1      -3.372  12.027  23.913  0.00  0.00    +0.000 C 
ATOM     17  C   UNL     1      -5.512  13.231  23.881  0.00  0.00    +0.000 A 
ATOM     18  C   UNL     1      -6.376  14.244  23.491  0.00  0.00    +0.000 A 
ATOM     19 CL   UNL     1      -7.916  14.382  24.247  0.00  0.00    +0.000 Cl
ATOM     20  C   UNL     1      -5.982  15.162  22.528  0.00  0.00    +0.000 A 
ATOM     21  C   UNL     1      -4.725  15.045  21.917  0.00  0.00    +0.000 A 
BRANCH  21  22
ATOM     22  O   UNL     1      -4.440  16.080  21.059  0.00  0.00    +0.000 OA
ATOM     23  C   UNL     1      -5.300  17.212  21.149  0.00  0.00    +0.000 C 
ENDBRANCH  21  22
ENDBRANCH   9  14
BRANCH   1  24
ATOM     24  C   UNL     1       0.929  10.107  19.150  0.00  0.00    +0.000 C 
BRANCH  24  25
ATOM     25  C   UNL     1       1.080   9.465  20.561  0.00  0.00    +0.000 C 
BRANCH  25  27
ATOM     26  C   UNL     1      -0.293   9.269  22.642  0.00  0.00    +0.000 C 
ATOM     27  C   UNL     1      -0.166   8.834  21.183  0.00  0.00    +0.000 C 
ENDBRANCH  25  27
ENDBRANCH  24  25
BRANCH  24  28
ATOM     28  C   UNL     1       1.552   9.252  18.022  0.00  0.00    +0.000 C 
BRANCH  28  29
ATOM     29  C   UNL     1       2.167   7.914  18.444  0.00  0.00    +0.000 C 
ATOM     30  C   UNL     1       3.403   7.612  17.603  0.00  0.00    +0.000 C 
ENDBRANCH  28  29
ENDBRANCH  24  28
ENDBRANCH   1  24
TORSDOF 7
ENDMDL
MODEL 2
REMARK VINA RESULT:      -6.2      4.844      8.089
REMARK  Name = 
REMARK  12 active torsions:
REMARK  status: ('A' for Active; 'I' for Inactive)
REMARK    1  A    between atoms: C_1  and  C_2
REMARK    2  A    between atoms: C_2  and  C_3
REMARK    3  A    between atoms: C_3  and  C_4
REMARK    4  A    between atoms: C_4  and  C_5
REMARK    5  A    between atoms: C_4  and  C_8
REMARK    6  A    between atoms: C_5  and  C_6
REMARK    7  A    between atoms: C_6  and  C_7
REMARK    8  A    between atoms: N_16  and  C_17
REMARK    9  A    between atoms: C_18  and  C_19
REMARK   10  A    between atoms: C_24  and  O_25
REMARK   11  A    between atoms: O_25  and  C_26
REMARK   12  A    between atoms: N_27  and  C_28
REMARK                            x       y       z     vdW  Elec       q    Type
REMARK                         _______ _______ _______ _____ _____    ______ ____
ROOT
ATOM      1  C   UNL     1       4.634   4.471  17.512  0.00  0.00    +0.000 A 
ATOM      2  C   UNL     1       4.354   3.175  18.050  0.00  0.00    +0.000 A 
ATOM      3  C   UNL     1       3.182   2.838  18.716  0.00  0.00    +0.000 A 
ATOM      4  C   UNL     1       2.191   3.787  18.832  0.00  0.00    +0.000 A 
ATOM      5 CL   UNL     1       0.742   3.481  19.686  0.00  0.00    +0.000 Cl
ATOM      6  C   UNL     1       2.376   5.082  18.327  0.00  0.00    +0.000 A 
ATOM      7  N   UNL     1       1.530   6.152  18.407  0.00  0.00    +0.000 NA
ATOM      8  C   UNL     1       2.232   7.197  18.052  0.00  0.00    +0.000 A 
ATOM      9  N   UNL     1       1.919   8.488  18.322  0.00  0.00    +0.000 N 
ATOM     10  N   UNL     1       3.434   6.798  17.472  0.00  0.00    +0.000 N 
ATOM     11  C   UNL     1       4.424   7.706  16.950  0.00  0.00    +0.000 C 
ATOM     12  C   UNL     1       3.593   5.429  17.706  0.00  0.00    +0.000 A 
ATOM     13  H   UNL     1       2.486   9.261  17.996  0.00  0.00    +0.000 HD
ENDROOT
BRANCH   9  14
ATOM     14  C   UNL     1       1.201   8.888  19.489  0.00  0.00    +0.000 A 
ATOM     15  C   UNL     1       1.367   8.251  20.752  0.00  0.00    +0.000 A 
ATOM     16  C   UNL     1       2.301   7.101  21.038  0.00  0.00    +0.000 C 
ATOM     17  C   UNL     1       0.638   8.706  21.868  0.00  0.00    +0.000 A 
ATOM     18  C   UNL     1      -0.192   9.814  21.775  0.00  0.00    +0.000 A 
ATOM     19 CL   UNL     1      -1.024  10.369  23.176  0.00  0.00    +0.000 Cl
ATOM     20  C   UNL     1      -0.318  10.489  20.570  0.00  0.00    +0.000 A 
ATOM     21  C   UNL     1       0.363  10.032  19.433  0.00  0.00    +0.000 A 
BRANCH  21  22
ATOM     22  O   UNL     1       0.217  10.859  18.344  0.00  0.00    +0.000 OA
ATOM     23  C   UNL     1      -0.936  11.694  18.352  0.00  0.00    +0.000 C 
ENDBRANCH  21  22
ENDBRANCH   9  14
BRANCH   1  24
ATOM     24  C   UNL     1       5.986   4.703  16.808  0.00  0.00    +0.000 C 
BRANCH  24  25
ATOM     25  C   UNL     1       7.200   4.589  17.778  0.00  0.00    +0.000 C 
BRANCH  25  27
ATOM     26  C   UNL     1       7.730   7.028  17.945  0.00  0.00    +0.000 C 
ATOM     27  C   UNL     1       7.445   5.754  18.738  0.00  0.00    +0.000 C 
ENDBRANCH  25  27
ENDBRANCH  24  25
BRANCH  24  28
ATOM     28  C   UNL     1       6.124   3.811  15.553  0.00  0.00    +0.000 C 
BRANCH  28  29
ATOM     29  C   UNL     1       6.563   4.512  14.265  0.00  0.00    +0.000 C 
ATOM     30  C   UNL     1       6.099   3.720  13.047  0.00  0.00    +0.000 C 
ENDBRANCH  28  29
ENDBRANCH  24  28
ENDBRANCH   1  24
TORSDOF 7
ENDMDL
MODEL 3
REMARK VINA RESULT:      -6.0      5.566      8.849
REMARK  Name = 
REMARK  12 active torsions:
REMARK  status: ('A' for Active; 'I' for Inactive)
REMARK    1  A    between atoms: C_1  and  C_2
REMARK    2  A    between atoms: C_2  and  C_3
REMARK    3  A    between atoms: C_3  and  C_4
REMARK    4  A    between atoms: C_4  and  C_5
REMARK    5  A    between atoms: C_4  and  C_8
REMARK    6  A    between atoms: C_5  and  C_6
REMARK    7  A    between atoms: C_6  and  C_7
REMARK    8  A    between atoms: N_16  and  C_17
REMARK    9  A    between atoms: C_18  and  C_19
REMARK   10  A    between atoms: C_24  and  O_25
REMARK   11  A    between atoms: O_25  and  C_26
REMARK   12  A    between atoms: N_27  and  C_28
REMARK                            x       y       z     vdW  Elec       q    Type
REMARK                         _______ _______ _______ _____ _____    ______ ____
ROOT
ATOM      1  C   UNL     1       4.808   4.275  16.896  0.00  0.00    +0.000 A 
ATOM      2  C   UNL     1       4.434   2.943  17.260  0.00  0.00    +0.000 A 
ATOM      3  C   UNL     1       3.222   2.601  17.848  0.00  0.00    +0.000 A 
ATOM      4  C   UNL     1       2.286   3.589  18.057  0.00  0.00    +0.000 A 
ATOM      5 CL   UNL     1       0.794   3.272  18.828  0.00  0.00    +0.000 Cl
ATOM      6  C   UNL     1       2.565   4.922  17.722  0.00  0.00    +0.000 A 
ATOM      7  N   UNL     1       1.781   6.025  17.914  0.00  0.00    +0.000 NA
ATOM      8  C   UNL     1       2.555   7.059  17.711  0.00  0.00    +0.000 A 
ATOM      9  N   UNL     1       2.311   8.325  18.133  0.00  0.00    +0.000 N 
ATOM     10  N   UNL     1       3.750   6.661  17.117  0.00  0.00    +0.000 N 
ATOM     11  C   UNL     1       4.810   7.562  16.738  0.00  0.00    +0.000 C 
ATOM     12  C   UNL     1       3.819   5.265  17.182  0.00  0.00    +0.000 A 
ATOM     13  H   UNL     1       2.933   9.095  17.921  0.00  0.00    +0.000 HD
ENDROOT
BRANCH   9  14
ATOM     14  C   UNL     1       1.579   8.622  19.321  0.00  0.00    +0.000 A 
ATOM     15  C   UNL     1       0.546   9.602  19.366  0.00  0.00    +0.000 A 
ATOM     16  C   UNL     1       0.082  10.440  18.201  0.00  0.00    +0.000 C 
ATOM     17  C   UNL     1      -0.147   9.835  20.570  0.00  0.00    +0.000 A 
ATOM     18  C   UNL     1       0.111   9.075  21.702  0.00  0.00    +0.000 A 
ATOM     19 CL   UNL     1      -0.797   9.356  23.136  0.00  0.00    +0.000 Cl
ATOM     20  C   UNL     1       1.067   8.071  21.661  0.00  0.00    +0.000 A 
ATOM     21  C   UNL     1       1.802   7.845  20.488  0.00  0.00    +0.000 A 
BRANCH  21  22
ATOM     22  O   UNL     1       2.638   6.757  20.572  0.00  0.00    +0.000 OA
ATOM     23  C   UNL     1       2.080   5.594  21.176  0.00  0.00    +0.000 C 
ENDBRANCH  21  22
ENDBRANCH   9  14
BRANCH   1  24
ATOM     24  C   UNL     1       6.194   4.507  16.262  0.00  0.00    +0.000 C 
BRANCH  24  25
ATOM     25  C   UNL     1       7.355   4.421  17.297  0.00  0.00    +0.000 C 
BRANCH  25  27
ATOM     26  C   UNL     1       6.875   5.527  19.489  0.00  0.00    +0.000 C 
ATOM     27  C   UNL     1       7.619   5.655  18.161  0.00  0.00    +0.000 C 
ENDBRANCH  25  27
ENDBRANCH  24  25
BRANCH  24  28
ATOM     28  C   UNL     1       6.407   3.593  15.033  0.00  0.00    +0.000 C 
BRANCH  28  29
ATOM     29  C   UNL     1       6.525   4.293  13.676  0.00  0.00    +0.000 C 
ATOM     30  C   UNL     1       5.930   3.421  12.577  0.00  0.00    +0.000 C 
ENDBRANCH  28  29
ENDBRANCH  24  28
ENDBRANCH   1  24
TORSDOF 7
ENDMDL
MODEL 4
REMARK VINA RESULT:      -5.9      5.371      8.792
REMARK  Name = 
REMARK  12 active torsions:
REMARK  status: ('A' for Active; 'I' for Inactive)
REMARK    1  A    between atoms: C_1  and  C_2
REMARK    2  A    between atoms: C_2  and  C_3
REMARK    3  A    between atoms: C_3  and  C_4
REMARK    4  A    between atoms: C_4  and  C_5
REMARK    5  A    between atoms: C_4  and  C_8
REMARK    6  A    between atoms: C_5  and  C_6
REMARK    7  A    between atoms: C_6  and  C_7
REMARK    8  A    between atoms: N_16  and  C_17
REMARK    9  A    between atoms: C_18  and  C_19
REMARK   10  A    between atoms: C_24  and  O_25
REMARK   11  A    between atoms: O_25  and  C_26
REMARK   12  A    between atoms: N_27  and  C_28
REMARK                            x       y       z     vdW  Elec       q    Type
REMARK                         _______ _______ _______ _____ _____    ______ ____
ROOT
ATOM      1  C   UNL     1       4.885   4.080  16.855  0.00  0.00    +0.000 A 
ATOM      2  C   UNL     1       4.506   2.750  17.222  0.00  0.00    +0.000 A 
ATOM      3  C   UNL     1       3.297   2.415  17.820  0.00  0.00    +0.000 A 
ATOM      4  C   UNL     1       2.369   3.410  18.037  0.00  0.00    +0.000 A 
ATOM      5 CL   UNL     1       0.881   3.102  18.820  0.00  0.00    +0.000 Cl
ATOM      6  C   UNL     1       2.654   4.742  17.701  0.00  0.00    +0.000 A 
ATOM      7  N   UNL     1       1.879   5.850  17.900  0.00  0.00    +0.000 NA
ATOM      8  C   UNL     1       2.659   6.878  17.690  0.00  0.00    +0.000 A 
ATOM      9  N   UNL     1       2.426   8.145  18.115  0.00  0.00    +0.000 N 
ATOM     10  N   UNL     1       3.846   6.472  17.087  0.00  0.00    +0.000 N 
ATOM     11  C   UNL     1       4.908   7.366  16.699  0.00  0.00    +0.000 C 
ATOM     12  C   UNL     1       3.906   5.076  17.150  0.00  0.00    +0.000 A 
ATOM     13  H   UNL     1       3.052   8.911  17.898  0.00  0.00    +0.000 HD
ENDROOT
BRANCH   9  14
ATOM     14  C   UNL     1       1.706   8.447  19.310  0.00  0.00    +0.000 A 
ATOM     15  C   UNL     1       1.781   7.638  20.480  0.00  0.00    +0.000 A 
ATOM     16  C   UNL     1       2.610   6.386  20.628  0.00  0.00    +0.000 C 
ATOM     17  C   UNL     1       1.056   8.001  21.631  0.00  0.00    +0.000 A 
ATOM     18  C   UNL     1       0.321   9.177  21.671  0.00  0.00    +0.000 A 
ATOM     19 CL   UNL     1      -0.506   9.611  23.116  0.00  0.00    +0.000 Cl
ATOM     20  C   UNL     1       0.288  10.013  20.565  0.00  0.00    +0.000 A 
ATOM     21  C   UNL     1       0.965   9.655  19.390  0.00  0.00    +0.000 A 
BRANCH  21  22
ATOM     22  O   UNL     1       0.921  10.627  18.419  0.00  0.00    +0.000 OA
ATOM     23  C   UNL     1       0.369  11.877  18.821  0.00  0.00    +0.000 C 
ENDBRANCH  21  22
ENDBRANCH   9  14
BRANCH   1  24
ATOM     24  C   UNL     1       6.269   4.303  16.211  0.00  0.00    +0.000 C 
BRANCH  24  25
ATOM     25  C   UNL     1       6.178   4.722  14.714  0.00  0.00    +0.000 C 
BRANCH  25  27
ATOM     26  C   UNL     1       6.451   3.643  12.473  0.00  0.00    +0.000 C 
ATOM     27  C   UNL     1       5.589   3.707  13.733  0.00  0.00    +0.000 C 
ENDBRANCH  25  27
ENDBRANCH  24  25
BRANCH  24  28
ATOM     28  C   UNL     1       7.132   5.263  17.060  0.00  0.00    +0.000 C 
BRANCH  28  29
ATOM     29  C   UNL     1       7.740   4.681  18.340  0.00  0.00    +0.000 C 
ATOM     30  C   UNL     1       7.821   5.751  19.422  0.00  0.00    +0.000 C 
ENDBRANCH  28  29
ENDBRANCH  24  28
ENDBRANCH   1  24
TORSDOF 7
ENDMDL
MODEL 5
REMARK VINA RESULT:      -5.9      5.774      9.261
REMARK  Name = 
REMARK  12 active torsions:
REMARK  status: ('A' for Active; 'I' for Inactive)
REMARK    1  A    between atoms: C_1  and  C_2
REMARK    2  A    between atoms: C_2  and  C_3
REMARK    3  A    between atoms: C_3  and  C_4
REMARK    4  A    between atoms: C_4  and  C_5
REMARK    5  A    between atoms: C_4  and  C_8
REMARK    6  A    between atoms: C_5  and  C_6
REMARK    7  A    between atoms: C_6  and  C_7
REMARK    8  A    between atoms: N_16  and  C_17
REMARK    9  A    between atoms: C_18  and  C_19
REMARK   10  A    between atoms: C_24  and  O_25
REMARK   11  A    between atoms: O_25  and  C_26
REMARK   12  A    between atoms: N_27  and  C_28
REMARK                            x       y       z     vdW  Elec       q    Type
REMARK                         _______ _______ _______ _____ _____    ______ ____
ROOT
ATOM      1  C   UNL     1       4.861   3.915  16.829  0.00  0.00    +0.000 A 
ATOM      2  C   UNL     1       4.444   2.601  17.211  0.00  0.00    +0.000 A 
ATOM      3  C   UNL     1       3.218   2.305  17.794  0.00  0.00    +0.000 A 
ATOM      4  C   UNL     1       2.311   3.326  17.981  0.00  0.00    +0.000 A 
ATOM      5 CL   UNL     1       0.805   3.066  18.745  0.00  0.00    +0.000 Cl
ATOM      6  C   UNL     1       2.633   4.644  17.629  0.00  0.00    +0.000 A 
ATOM      7  N   UNL     1       1.883   5.774  17.798  0.00  0.00    +0.000 NA
ATOM      8  C   UNL     1       2.691   6.780  17.585  0.00  0.00    +0.000 A 
ATOM      9  N   UNL     1       2.482   8.059  17.986  0.00  0.00    +0.000 N 
ATOM     10  N   UNL     1       3.877   6.336  17.007  0.00  0.00    +0.000 N 
ATOM     11  C   UNL     1       4.966   7.197  16.622  0.00  0.00    +0.000 C 
ATOM     12  C   UNL     1       3.902   4.940  17.093  0.00  0.00    +0.000 A 
ATOM     13  H   UNL     1       3.130   8.806  17.767  0.00  0.00    +0.000 HD
ENDROOT
BRANCH   9  14
ATOM     14  C   UNL     1       1.752   8.396  19.164  0.00  0.00    +0.000 A 
ATOM     15  C   UNL     1       0.737   9.395  19.182  0.00  0.00    +0.000 A 
ATOM     16  C   UNL     1       0.292  10.215  17.996  0.00  0.00    +0.000 C 
ATOM     17  C   UNL     1       0.043   9.669  20.377  0.00  0.00    +0.000 A 
ATOM     18  C   UNL     1       0.283   8.931  21.527  0.00  0.00    +0.000 A 
ATOM     19 CL   UNL     1      -0.625   9.261  22.951  0.00  0.00    +0.000 Cl
ATOM     20  C   UNL     1       1.221   7.909  21.514  0.00  0.00    +0.000 A 
ATOM     21  C   UNL     1       1.957   7.643  20.350  0.00  0.00    +0.000 A 
BRANCH  21  22
ATOM     22  O   UNL     1       2.773   6.543  20.463  0.00  0.00    +0.000 OA
ATOM     23  C   UNL     1       2.187   5.400  21.078  0.00  0.00    +0.000 C 
ENDBRANCH  21  22
ENDBRANCH   9  14
BRANCH   1  24
ATOM     24  C   UNL     1       6.259   4.094  16.203  0.00  0.00    +0.000 C 
BRANCH  24  25
ATOM     25  C   UNL     1       6.203   4.629  14.741  0.00  0.00    +0.000 C 
BRANCH  25  27
ATOM     26  C   UNL     1       6.772   3.996  12.389  0.00  0.00    +0.000 C 
ATOM     27  C   UNL     1       5.966   3.608  13.628  0.00  0.00    +0.000 C 
ENDBRANCH  25  27
ENDBRANCH  24  25
BRANCH  24  28
ATOM     28  C   UNL     1       7.180   4.931  17.122  0.00  0.00    +0.000 C 
BRANCH  28  29
ATOM     29  C   UNL     1       6.932   4.806  18.628  0.00  0.00    +0.000 C 
ATOM     30  C   UNL     1       7.887   5.711  19.397  0.00  0.00    +0.000 C 
ENDBRANCH  28  29
ENDBRANCH  24  28
ENDBRANCH   1  24
TORSDOF 7
ENDMDL
MODEL 6
REMARK VINA RESULT:      -5.8      2.664      3.596
REMARK  Name = 
REMARK  12 active torsions:
REMARK  status: ('A' for Active; 'I' for Inactive)
REMARK    1  A    between atoms: C_1  and  C_2
REMARK    2  A    between atoms: C_2  and  C_3
REMARK    3  A    between atoms: C_3  and  C_4
REMARK    4  A    between atoms: C_4  and  C_5
REMARK    5  A    between atoms: C_4  and  C_8
REMARK    6  A    between atoms: C_5  and  C_6
REMARK    7  A    between atoms: C_6  and  C_7
REMARK    8  A    between atoms: N_16  and  C_17
REMARK    9  A    between atoms: C_18  and  C_19
REMARK   10  A    between atoms: C_24  and  O_25
REMARK   11  A    between atoms: O_25  and  C_26
REMARK   12  A    between atoms: N_27  and  C_28
REMARK                            x       y       z     vdW  Elec       q    Type
REMARK                         _______ _______ _______ _____ _____    ______ ____
ROOT
ATOM      1  C   UNL     1       0.560  12.146  19.760  0.00  0.00    +0.000 A 
ATOM      2  C   UNL     1       0.984  13.049  18.734  0.00  0.00    +0.000 A 
ATOM      3  C   UNL     1       0.955  14.434  18.846  0.00  0.00    +0.000 A 
ATOM      4  C   UNL     1       0.539  14.993  20.034  0.00  0.00    +0.000 A 
ATOM      5 CL   UNL     1       0.414  16.685  20.242  0.00  0.00    +0.000 Cl
ATOM      6  C   UNL     1       0.114  14.183  21.097  0.00  0.00    +0.000 A 
ATOM      7  N   UNL     1      -0.381  14.569  22.311  0.00  0.00    +0.000 NA
ATOM      8  C   UNL     1      -0.897  13.495  22.850  0.00  0.00    +0.000 A 
ATOM      9  N   UNL     1      -1.797  13.474  23.864  0.00  0.00    +0.000 N 
ATOM     10  N   UNL     1      -0.504  12.361  22.143  0.00  0.00    +0.000 N 
ATOM     11  C   UNL     1      -0.880  11.014  22.493  0.00  0.00    +0.000 C 
ATOM     12  C   UNL     1       0.092  12.782  20.950  0.00  0.00    +0.000 A 
ATOM     13  H   UNL     1      -2.142  12.610  24.263  0.00  0.00    +0.000 HD
ENDROOT
BRANCH   9  14
ATOM     14  C   UNL     1      -2.758  14.508  24.074  0.00  0.00    +0.000 A 
ATOM     15  C   UNL     1      -2.594  15.524  25.059  0.00  0.00    +0.000 A 
ATOM     16  C   UNL     1      -1.416  15.659  25.993  0.00  0.00    +0.000 C 
ATOM     17  C   UNL     1      -3.574  16.526  25.204  0.00  0.00    +0.000 A 
ATOM     18  C   UNL     1      -4.669  16.581  24.354  0.00  0.00    +0.000 A 
ATOM     19 CL   UNL     1      -5.815  17.852  24.530  0.00  0.00    +0.000 Cl
ATOM     20  C   UNL     1      -4.814  15.640  23.345  0.00  0.00    +0.000 A 
ATOM     21  C   UNL     1      -3.876  14.607  23.205  0.00  0.00    +0.000 A 
BRANCH  21  22
ATOM     22  O   UNL     1      -4.100  13.815  22.105  0.00  0.00    +0.000 OA
ATOM     23  C   UNL     1      -4.209  14.500  20.861  0.00  0.00    +0.000 C 
ENDBRANCH  21  22
ENDBRANCH   9  14
BRANCH   1  24
ATOM     24  C   UNL     1       0.637  10.630  19.489  0.00  0.00    +0.000 C 
BRANCH  24  25
ATOM     25  C   UNL     1      -0.757   9.994  19.210  0.00  0.00    +0.000 C 
BRANCH  25  27
ATOM     26  C   UNL     1      -2.015   9.933  17.049  0.00  0.00    +0.000 C 
ATOM     27  C   UNL     1      -1.711  10.763  18.295  0.00  0.00    +0.000 C 
ENDBRANCH  25  27
ENDBRANCH  24  25
BRANCH  24  28
ATOM     28  C   UNL     1       1.681  10.311  18.394  0.00  0.00    +0.000 C 
BRANCH  28  29
ATOM     29  C   UNL     1       1.552   8.949  17.707  0.00  0.00    +0.000 C 
ATOM     30  C   UNL     1       2.393   7.906  18.436  0.00  0.00    +0.000 C 
ENDBRANCH  28  29
ENDBRANCH  24  28
ENDBRANCH   1  24
TORSDOF 7
ENDMDL
MODEL 7
REMARK VINA RESULT:      -5.8      1.025      2.062
REMARK  Name = 
REMARK  12 active torsions:
REMARK  status: ('A' for Active; 'I' for Inactive)
REMARK    1  A    between atoms: C_1  and  C_2
REMARK    2  A    between atoms: C_2  and  C_3
REMARK    3  A    between atoms: C_3  and  C_4
REMARK    4  A    between atoms: C_4  and  C_5
REMARK    5  A    between atoms: C_4  and  C_8
REMARK    6  A    between atoms: C_5  and  C_6
REMARK    7  A    between atoms: C_6  and  C_7
REMARK    8  A    between atoms: N_16  and  C_17
REMARK    9  A    between atoms: C_18  and  C_19
REMARK   10  A    between atoms: C_24  and  O_25
REMARK   11  A    between atoms: O_25  and  C_26
REMARK   12  A    between atoms: N_27  and  C_28
REMARK                            x       y       z     vdW  Elec       q    Type
REMARK                         _______ _______ _______ _____ _____    ______ ____
ROOT
ATOM      1  C   UNL     1      -0.444  10.462  18.882  0.00  0.00    +0.000 A 
ATOM      2  C   UNL     1      -1.196   9.694  17.938  0.00  0.00    +0.000 A 
ATOM      3  C   UNL     1      -2.462  10.035  17.479  0.00  0.00    +0.000 A 
ATOM      4  C   UNL     1      -3.028  11.213  17.913  0.00  0.00    +0.000 A 
ATOM      5 CL   UNL     1      -4.604  11.683  17.450  0.00  0.00    +0.000 Cl
ATOM      6  C   UNL     1      -2.358  12.033  18.834  0.00  0.00    +0.000 A 
ATOM      7  N   UNL     1      -2.795  13.194  19.408  0.00  0.00    +0.000 NA
ATOM      8  C   UNL     1      -1.969  13.444  20.390  0.00  0.00    +0.000 A 
ATOM      9  N   UNL     1      -2.213  14.272  21.437  0.00  0.00    +0.000 N 
ATOM     10  N   UNL     1      -0.843  12.631  20.296  0.00  0.00    +0.000 N 
ATOM     11  C   UNL     1       0.271  12.675  21.210  0.00  0.00    +0.000 C 
ATOM     12  C   UNL     1      -1.101  11.646  19.337  0.00  0.00    +0.000 A 
ATOM     13  H   UNL     1      -1.523  14.452  22.156  0.00  0.00    +0.000 HD
ENDROOT
BRANCH   9  14
ATOM     14  C   UNL     1      -3.519  14.490  21.969  0.00  0.00    +0.000 A 
ATOM     15  C   UNL     1      -4.231  15.711  21.791  0.00  0.00    +0.000 A 
ATOM     16  C   UNL     1      -3.730  16.914  21.031  0.00  0.00    +0.000 C 
ATOM     17  C   UNL     1      -5.524  15.854  22.330  0.00  0.00    +0.000 A 
ATOM     18  C   UNL     1      -6.149  14.798  22.977  0.00  0.00    +0.000 A 
ATOM     19 CL   UNL     1      -7.750  14.998  23.574  0.00  0.00    +0.000 Cl
ATOM     20  C   UNL     1      -5.499  13.579  23.104  0.00  0.00    +0.000 A 
ATOM     21  C   UNL     1      -4.195  13.421  22.614  0.00  0.00    +0.000 A 
BRANCH  21  22
ATOM     22  O   UNL     1      -3.725  12.134  22.726  0.00  0.00    +0.000 OA
ATOM     23  C   UNL     1      -2.679  11.939  23.673  0.00  0.00    +0.000 C 
ENDBRANCH  21  22
ENDBRANCH   9  14
BRANCH   1  24
ATOM     24  C   UNL     1       0.947   9.952  19.312  0.00  0.00    +0.000 C 
BRANCH  24  25
ATOM     25  C   UNL     1       0.874   8.840  20.399  0.00  0.00    +0.000 C 
BRANCH  25  27
ATOM     26  C   UNL     1      -0.357   9.220  22.543  0.00  0.00    +0.000 C 
ATOM     27  C   UNL     1       1.008   9.275  21.859  0.00  0.00    +0.000 C 
ENDBRANCH  25  27
ENDBRANCH  24  25
BRANCH  24  28
ATOM     28  C   UNL     1       1.796   9.549  18.084  0.00  0.00    +0.000 C 
BRANCH  28  29
ATOM     29  C   UNL     1       1.964   8.047  17.836  0.00  0.00    +0.000 C 
ATOM     30  C   UNL     1       3.441   7.694  17.706  0.00  0.00    +0.000 C 
ENDBRANCH  28  29
ENDBRANCH  24  28
ENDBRANCH   1  24
TORSDOF 7
ENDMDL
MODEL 8
REMARK VINA RESULT:      -5.8      1.657      2.520
REMARK  Name = 
REMARK  12 active torsions:
REMARK  status: ('A' for Active; 'I' for Inactive)
REMARK    1  A    between atoms: C_1  and  C_2
REMARK    2  A    between atoms: C_2  and  C_3
REMARK    3  A    between atoms: C_3  and  C_4
REMARK    4  A    between atoms: C_4  and  C_5
REMARK    5  A    between atoms: C_4  and  C_8
REMARK    6  A    between atoms: C_5  and  C_6
REMARK    7  A    between atoms: C_6  and  C_7
REMARK    8  A    between atoms: N_16  and  C_17
REMARK    9  A    between atoms: C_18  and  C_19
REMARK   10  A    between atoms: C_24  and  O_25
REMARK   11  A    between atoms: O_25  and  C_26
REMARK   12  A    between atoms: N_27  and  C_28
REMARK                            x       y       z     vdW  Elec       q    Type
REMARK                         _______ _______ _______ _____ _____    ______ ____
ROOT
ATOM      1  C   UNL     1      -0.150  10.347  18.794  0.00  0.00    +0.000 A 
ATOM      2  C   UNL     1      -1.180   9.618  18.119  0.00  0.00    +0.000 A 
ATOM      3  C   UNL     1      -2.462  10.101  17.888  0.00  0.00    +0.000 A 
ATOM      4  C   UNL     1      -2.766  11.385  18.284  0.00  0.00    +0.000 A 
ATOM      5 CL   UNL     1      -4.333  12.041  18.095  0.00  0.00    +0.000 Cl
ATOM      6  C   UNL     1      -1.815  12.175  18.946  0.00  0.00    +0.000 A 
ATOM      7  N   UNL     1      -1.966  13.434  19.454  0.00  0.00    +0.000 NA
ATOM      8  C   UNL     1      -0.921  13.646  20.212  0.00  0.00    +0.000 A 
ATOM      9  N   UNL     1      -0.826  14.592  21.180  0.00  0.00    +0.000 N 
ATOM     10  N   UNL     1       0.045  12.669  19.990  0.00  0.00    +0.000 N 
ATOM     11  C   UNL     1       1.327  12.628  20.648  0.00  0.00    +0.000 C 
ATOM     12  C   UNL     1      -0.538  11.652  19.227  0.00  0.00    +0.000 A 
ATOM     13  H   UNL     1       0.020  14.730  21.718  0.00  0.00    +0.000 HD
ENDROOT
BRANCH   9  14
ATOM     14  C   UNL     1      -1.947  15.049  21.936  0.00  0.00    +0.000 A 
ATOM     15  C   UNL     1      -2.722  16.182  21.556  0.00  0.00    +0.000 A 
ATOM     16  C   UNL     1      -2.486  17.036  20.336  0.00  0.00    +0.000 C 
ATOM     17  C   UNL     1      -3.826  16.570  22.340  0.00  0.00    +0.000 A 
ATOM     18  C   UNL     1      -4.217  15.824  23.442  0.00  0.00    +0.000 A 
ATOM     19 CL   UNL     1      -5.605  16.303  24.340  0.00  0.00    +0.000 Cl
ATOM     20  C   UNL     1      -3.516  14.680  23.791  0.00  0.00    +0.000 A 
ATOM     21  C   UNL     1      -2.387  14.293  23.054  0.00  0.00    +0.000 A 
BRANCH  21  22
ATOM     22  O   UNL     1      -1.860  13.090  23.459  0.00  0.00    +0.000 OA
ATOM     23  C   UNL     1      -2.727  11.966  23.347  0.00  0.00    +0.000 C 
ENDBRANCH  21  22
ENDBRANCH   9  14
BRANCH   1  24
ATOM     24  C   UNL     1       1.224   9.676  18.991  0.00  0.00    +0.000 C 
BRANCH  24  25
ATOM     25  C   UNL     1       1.378   9.013  20.391  0.00  0.00    +0.000 C 
BRANCH  25  27
ATOM     26  C   UNL     1       0.061   9.465  22.469  0.00  0.00    +0.000 C 
ATOM     27  C   UNL     1       0.097   8.682  21.158  0.00  0.00    +0.000 C 
ENDBRANCH  25  27
ENDBRANCH  24  25
BRANCH  24  28
ATOM     28  C   UNL     1       1.549   8.715  17.823  0.00  0.00    +0.000 C 
BRANCH  28  29
ATOM     29  C   UNL     1       2.878   7.960  17.913  0.00  0.00    +0.000 C 
ATOM     30  C   UNL     1       2.627   6.473  18.139  0.00  0.00    +0.000 C 
ENDBRANCH  28  29
ENDBRANCH  24  28
ENDBRANCH   1  24
TORSDOF 7
ENDMDL
MODEL 9
REMARK VINA RESULT:      -5.5      9.875     11.236
REMARK  Name = 
REMARK  12 active torsions:
REMARK  status: ('A' for Active; 'I' for Inactive)
REMARK    1  A    between atoms: C_1  and  C_2
REMARK    2  A    between atoms: C_2  and  C_3
REMARK    3  A    between atoms: C_3  and  C_4
REMARK    4  A    between atoms: C_4  and  C_5
REMARK    5  A    between atoms: C_4  and  C_8
REMARK    6  A    between atoms: C_5  and  C_6
REMARK    7  A    between atoms: C_6  and  C_7
REMARK    8  A    between atoms: N_16  and  C_17
REMARK    9  A    between atoms: C_18  and  C_19
REMARK   10  A    between atoms: C_24  and  O_25
REMARK   11  A    between atoms: O_25  and  C_26
REMARK   12  A    between atoms: N_27  and  C_28
REMARK                            x       y       z     vdW  Elec       q    Type
REMARK                         _______ _______ _______ _____ _____    ______ ____
ROOT
ATOM      1  C   UNL     1       8.766  12.681  18.339  0.00  0.00    +0.000 A 
ATOM      2  C   UNL     1       7.831  13.150  17.363  0.00  0.00    +0.000 A 
ATOM      3  C   UNL     1       6.998  14.248  17.537  0.00  0.00    +0.000 A 
ATOM      4  C   UNL     1       7.100  14.977  18.702  0.00  0.00    +0.000 A 
ATOM      5 CL   UNL     1       6.075  16.305  19.028  0.00  0.00    +0.000 Cl
ATOM      6  C   UNL     1       7.995  14.594  19.711  0.00  0.00    +0.000 A 
ATOM      7  N   UNL     1       8.180  15.162  20.940  0.00  0.00    +0.000 NA
ATOM      8  C   UNL     1       8.898  14.313  21.627  0.00  0.00    +0.000 A 
ATOM      9  N   UNL     1       9.016  14.289  22.978  0.00  0.00    +0.000 N 
ATOM     10  N   UNL     1       9.424  13.333  20.789  0.00  0.00    +0.000 N 
ATOM     11  C   UNL     1      10.283  12.262  21.229  0.00  0.00    +0.000 C 
ATOM     12  C   UNL     1       8.791  13.444  19.547  0.00  0.00    +0.000 A 
ATOM     13  H   UNL     1       9.612  13.625  23.457  0.00  0.00    +0.000 HD
ENDROOT
BRANCH   9  14
ATOM     14  C   UNL     1       7.975  14.710  23.859  0.00  0.00    +0.000 A 
ATOM     15  C   UNL     1       7.917  16.022  24.412  0.00  0.00    +0.000 A 
ATOM     16  C   UNL     1       8.911  17.127  24.154  0.00  0.00    +0.000 C 
ATOM     17  C   UNL     1       6.852  16.377  25.263  0.00  0.00    +0.000 A 
ATOM     18  C   UNL     1       5.816  15.491  25.518  0.00  0.00    +0.000 A 
ATOM     19 CL   UNL     1       4.507  15.984  26.520  0.00  0.00    +0.000 Cl
ATOM     20  C   UNL     1       5.819  14.232  24.936  0.00  0.00    +0.000 A 
ATOM     21  C   UNL     1       6.888  13.836  24.119  0.00  0.00    +0.000 A 
BRANCH  21  22
ATOM     22  O   UNL     1       6.701  12.604  23.540  0.00  0.00    +0.000 OA
ATOM     23  C   UNL     1       7.236  11.496  24.257  0.00  0.00    +0.000 C 
ENDBRANCH  21  22
ENDBRANCH   9  14
BRANCH   1  24
ATOM     24  C   UNL     1       9.617  11.438  18.012  0.00  0.00    +0.000 C 
BRANCH  24  25
ATOM     25  C   UNL     1      11.135  11.654  18.286  0.00  0.00    +0.000 C 
BRANCH  25  27
ATOM     26  C   UNL     1      11.594  13.239  16.407  0.00  0.00    +0.000 C 
ATOM     27  C   UNL     1      11.731  13.011  17.911  0.00  0.00    +0.000 C 
ENDBRANCH  25  27
ENDBRANCH  24  25
BRANCH  24  28
ATOM     28  C   UNL     1       9.048  10.175  18.699  0.00  0.00    +0.000 C 
BRANCH  28  29
ATOM     29  C   UNL     1       8.064   9.338  17.878  0.00  0.00    +0.000 C 
ATOM     30  C   UNL     1       8.189   7.863  18.243  0.00  0.00    +0.000 C 
ENDBRANCH  28  29
ENDBRANCH  24  28
ENDBRANCH   1  24
TORSDOF 7
ENDMDL
