MODEL 1
REMARK VINA RESULT:      -7.8      0.000      0.000
REMARK  Name = 
REMARK  5 active torsions:
REMARK  status: ('A' for Active; 'I' for Inactive)
REMARK    1  A    between atoms: C_1  and  C_2
REMARK    2  A    between atoms: C_2  and  O_3
REMARK    3  A    between atoms: C_2  and  C_20
REMARK    4  A    between atoms: O_3  and  C_4
REMARK    5  A    between atoms: C_10  and  C_11
REMARK                            x       y       z     vdW  Elec       q    Type
REMARK                         _______ _______ _______ _____ _____    ______ ____
ROOT
ATOM      1  C   UNL     1       0.537  10.317  20.275  0.00  0.00    +0.000 A 
ATOM      2  C   UNL     1       0.266   9.618  21.467  0.00  0.00    +0.000 A 
ATOM      3  N   UNL     1      -0.518  10.186  22.473  0.00  0.00    +0.000 N 
ATOM      4  N   UNL     1       0.716   8.380  21.767  0.00  0.00    +0.000 NA
ATOM      5  C   UNL     1       1.431   7.693  20.854  0.00  0.00    +0.000 A 
ATOM      6  C   UNL     1       1.681   8.248  19.603  0.00  0.00    +0.000 A 
ATOM      7  C   UNL     1       2.296   7.793  18.406  0.00  0.00    +0.000 A 
ATOM      8  C   UNL     1       2.224   8.833  17.510  0.00  0.00    +0.000 A 
ATOM      9  O   UNL     1       1.591   9.897  18.071  0.00  0.00    +0.000 OA
ATOM     10  C   UNL     1       1.246   9.547  19.348  0.00  0.00    +0.000 A 
ATOM     11  H   UNL     1      -1.407  10.501  22.093  0.00  0.00    +0.000 HD
ATOM     12  H   UNL     1      -0.636   9.470  23.187  0.00  0.00    +0.000 HD
ENDROOT
BRANCH   7  13
ATOM     13  C   UNL     1       2.860   6.510  18.167  0.00  0.00    +0.000 C 
ATOM     14  C   UNL     1       2.150   5.368  18.169  0.00  0.00    +0.000 C 
ATOM     15  C   UNL     1       2.746   4.032  17.837  0.00  0.00    +0.000 C 
ATOM     16  N   UNL     1       4.086   4.099  17.252  0.00  0.00    +0.000 NA
ATOM     17  C   UNL     1       4.918   5.083  17.952  0.00  0.00    +0.000 C 
ATOM     18  C   UNL     1       4.335   6.502  17.847  0.00  0.00    +0.000 C 
ATOM     19  H   UNL     1       3.999   4.374  16.274  0.00  0.00    +0.000 HD
ENDBRANCH   7  13
BRANCH   1  20
ATOM     20  O   UNL     1      -0.003  11.574  20.089  0.00  0.00    +0.000 OA
BRANCH  20  22
ATOM     21  C   UNL     1      -0.359  13.304  18.342  0.00  0.00    +0.000 C 
ATOM     22  C   UNL     1      -0.635  11.878  18.833  0.00  0.00    +0.000 C 
BRANCH  22  23
ATOM     23  C   UNL     1      -2.163  11.745  18.941  0.00  0.00    +0.000 A 
ATOM     24  C   UNL     1      -2.874  10.984  17.978  0.00  0.00    +0.000 A 
ATOM     25 CL   UNL     1      -2.083  10.053  16.748  0.00  0.00    +0.000 Cl
ATOM     26  C   UNL     1      -4.276  10.984  17.930  0.00  0.00    +0.000 A 
ATOM     27  C   UNL     1      -5.007  11.733  18.841  0.00  0.00    +0.000 A 
ATOM     28  C   UNL     1      -4.334  12.470  19.804  0.00  0.00    +0.000 A 
ATOM     29  F   UNL     1      -5.064  13.201  20.661  0.00  0.00    +0.000 F 
ATOM     30  C   UNL     1      -2.932  12.491  19.864  0.00  0.00    +0.000 A 
ATOM     31 CL   UNL     1      -2.238  13.528  21.064  0.00  0.00    +0.000 Cl
ENDBRANCH  22  23
ENDBRANCH  20  22
ENDBRANCH   1  20
TORSDOF 4
ENDMDL
MODEL 2
REMARK VINA RESULT:      -7.5      0.836      1.916
REMARK  Name = 
REMARK  5 active torsions:
REMARK  status: ('A' for Active; 'I' for Inactive)
REMARK    1  A    between atoms: C_1  and  C_2
REMARK    2  A    between atoms: C_2  and  O_3
REMARK    3  A    between atoms: C_2  and  C_20
REMARK    4  A    between atoms: O_3  and  C_4
REMARK    5  A    between atoms: C_10  and  C_11
REMARK                            x       y       z     vdW  Elec       q    Type
REMARK                         _______ _______ _______ _____ _____    ______ ____
ROOT
ATOM      1  C   UNL     1       0.468  10.350  20.386  0.00  0.00    +0.000 A 
ATOM      2  C   UNL     1       0.303   9.630  21.585  0.00  0.00    +0.000 A 
ATOM      3  N   UNL     1      -0.447  10.152  22.641  0.00  0.00    +0.000 N 
ATOM      4  N   UNL     1       0.830   8.415  21.846  0.00  0.00    +0.000 NA
ATOM      5  C   UNL     1       1.523   7.770  20.885  0.00  0.00    +0.000 A 
ATOM      6  C   UNL     1       1.670   8.345  19.627  0.00  0.00    +0.000 A 
ATOM      7  C   UNL     1       2.234   7.930  18.391  0.00  0.00    +0.000 A 
ATOM      8  C   UNL     1       2.058   8.972  17.512  0.00  0.00    +0.000 A 
ATOM      9  O   UNL     1       1.408   9.998  18.120  0.00  0.00    +0.000 OA
ATOM     10  C   UNL     1       1.156   9.623  19.411  0.00  0.00    +0.000 A 
ATOM     11  H   UNL     1      -1.371  10.424  22.317  0.00  0.00    +0.000 HD
ATOM     12  H   UNL     1      -0.487   9.425  23.354  0.00  0.00    +0.000 HD
ENDROOT
BRANCH   7  13
ATOM     13  C   UNL     1       2.846   6.678  18.106  0.00  0.00    +0.000 C 
ATOM     14  C   UNL     1       2.220   5.494  18.230  0.00  0.00    +0.000 C 
ATOM     15  C   UNL     1       2.854   4.189  17.849  0.00  0.00    +0.000 C 
ATOM     16  N   UNL     1       4.097   4.323  17.087  0.00  0.00    +0.000 NA
ATOM     17  C   UNL     1       4.948   5.378  17.648  0.00  0.00    +0.000 C 
ATOM     18  C   UNL     1       4.262   6.754  17.591  0.00  0.00    +0.000 C 
ATOM     19  H   UNL     1       3.863   4.561  16.124  0.00  0.00    +0.000 HD
ENDBRANCH   7  13
BRANCH   1  20
ATOM     20  O   UNL     1      -0.145  11.580  20.245  0.00  0.00    +0.000 OA
BRANCH  20  22
ATOM     21  C   UNL     1      -0.112  13.298  18.450  0.00  0.00    +0.000 C 
ATOM     22  C   UNL     1      -0.656  11.955  18.954  0.00  0.00    +0.000 C 
BRANCH  22  23
ATOM     23  C   UNL     1      -2.186  12.093  18.988  0.00  0.00    +0.000 A 
ATOM     24  C   UNL     1      -2.813  12.717  20.097  0.00  0.00    +0.000 A 
ATOM     25 CL   UNL     1      -1.920  13.482  21.371  0.00  0.00    +0.000 Cl
ATOM     26  C   UNL     1      -4.207  12.704  20.258  0.00  0.00    +0.000 A 
ATOM     27  C   UNL     1      -5.013  12.077  19.319  0.00  0.00    +0.000 A 
ATOM     28  C   UNL     1      -4.424  11.477  18.216  0.00  0.00    +0.000 A 
ATOM     29  F   UNL     1      -5.225  10.861  17.333  0.00  0.00    +0.000 F 
ATOM     30  C   UNL     1      -3.032  11.471  18.041  0.00  0.00    +0.000 A 
ATOM     31 CL   UNL     1      -2.443  10.604  16.663  0.00  0.00    +0.000 Cl
ENDBRANCH  22  23
ENDBRANCH  20  22
ENDBRANCH   1  20
TORSDOF 4
ENDMDL
MODEL 3
REMARK VINA RESULT:      -7.4      2.560      3.531
REMARK  Name = 
REMARK  5 active torsions:
REMARK  status: ('A' for Active; 'I' for Inactive)
REMARK    1  A    between atoms: C_1  and  C_2
REMARK    2  A    between atoms: C_2  and  O_3
REMARK    3  A    between atoms: C_2  and  C_20
REMARK    4  A    between atoms: O_3  and  C_4
REMARK    5  A    between atoms: C_10  and  C_11
REMARK                            x       y       z     vdW  Elec       q    Type
REMARK                         _______ _______ _______ _____ _____    ______ ____
ROOT
ATOM      1  C   UNL     1       1.519   9.461  19.317  0.00  0.00    +0.000 A 
ATOM      2  C   UNL     1       2.097   9.779  18.073  0.00  0.00    +0.000 A 
ATOM      3  N   UNL     1       2.145  11.099  17.619  0.00  0.00    +0.000 N 
ATOM      4  N   UNL     1       2.638   8.892  17.212  0.00  0.00    +0.000 NA
ATOM      5  C   UNL     1       2.714   7.591  17.557  0.00  0.00    +0.000 A 
ATOM      6  C   UNL     1       2.260   7.174  18.804  0.00  0.00    +0.000 A 
ATOM      7  C   UNL     1       2.266   5.945  19.517  0.00  0.00    +0.000 A 
ATOM      8  C   UNL     1       1.657   6.191  20.725  0.00  0.00    +0.000 A 
ATOM      9  O   UNL     1       1.288   7.496  20.810  0.00  0.00    +0.000 OA
ATOM     10  C   UNL     1       1.661   8.109  19.645  0.00  0.00    +0.000 A 
ATOM     11  H   UNL     1       2.574  11.698  18.319  0.00  0.00    +0.000 HD
ATOM     12  H   UNL     1       2.673  11.086  16.747  0.00  0.00    +0.000 HD
ENDROOT
BRANCH   7  13
ATOM     13  C   UNL     1       2.810   4.705  19.083  0.00  0.00    +0.000 C 
ATOM     14  C   UNL     1       2.173   3.858  18.254  0.00  0.00    +0.000 C 
ATOM     15  C   UNL     1       2.792   2.592  17.742  0.00  0.00    +0.000 C 
ATOM     16  N   UNL     1       4.231   2.480  17.994  0.00  0.00    +0.000 NA
ATOM     17  C   UNL     1       4.563   2.924  19.352  0.00  0.00    +0.000 C 
ATOM     18  C   UNL     1       4.205   4.404  19.573  0.00  0.00    +0.000 C 
ATOM     19  H   UNL     1       4.724   3.067  17.323  0.00  0.00    +0.000 HD
ENDBRANCH   7  13
BRANCH   1  20
ATOM     20  O   UNL     1       1.017  10.473  20.111  0.00  0.00    +0.000 OA
BRANCH  20  22
ATOM     21  C   UNL     1      -1.240  10.447  19.073  0.00  0.00    +0.000 C 
ATOM     22  C   UNL     1      -0.399  10.524  20.354  0.00  0.00    +0.000 C 
BRANCH  22  23
ATOM     23  C   UNL     1      -0.790  11.838  21.050  0.00  0.00    +0.000 A 
ATOM     24  C   UNL     1      -1.213  11.819  22.404  0.00  0.00    +0.000 A 
ATOM     25 CL   UNL     1      -1.169  10.388  23.381  0.00  0.00    +0.000 Cl
ATOM     26  C   UNL     1      -1.750  12.959  23.023  0.00  0.00    +0.000 A 
ATOM     27  C   UNL     1      -1.873  14.146  22.315  0.00  0.00    +0.000 A 
ATOM     28  C   UNL     1      -1.448  14.193  20.996  0.00  0.00    +0.000 A 
ATOM     29  F   UNL     1      -1.596  15.348  20.328  0.00  0.00    +0.000 F 
ATOM     30  C   UNL     1      -0.917  13.063  20.355  0.00  0.00    +0.000 A 
ATOM     31 CL   UNL     1      -0.516  13.255  18.683  0.00  0.00    +0.000 Cl
ENDBRANCH  22  23
ENDBRANCH  20  22
ENDBRANCH   1  20
TORSDOF 4
ENDMDL
MODEL 4
REMARK VINA RESULT:      -7.2      2.582      3.344
REMARK  Name = 
REMARK  5 active torsions:
REMARK  status: ('A' for Active; 'I' for Inactive)
REMARK    1  A    between atoms: C_1  and  C_2
REMARK    2  A    between atoms: C_2  and  O_3
REMARK    3  A    between atoms: C_2  and  C_20
REMARK    4  A    between atoms: O_3  and  C_4
REMARK    5  A    between atoms: C_10  and  C_11
REMARK                            x       y       z     vdW  Elec       q    Type
REMARK                         _______ _______ _______ _____ _____    ______ ____
ROOT
ATOM      1  C   UNL     1       1.471   9.586  19.309  0.00  0.00    +0.000 A 
ATOM      2  C   UNL     1       2.100   9.919  18.094  0.00  0.00    +0.000 A 
ATOM      3  N   UNL     1       2.150  11.241  17.649  0.00  0.00    +0.000 N 
ATOM      4  N   UNL     1       2.691   9.043  17.254  0.00  0.00    +0.000 NA
ATOM      5  C   UNL     1       2.769   7.741  17.597  0.00  0.00    +0.000 A 
ATOM      6  C   UNL     1       2.265   7.312  18.820  0.00  0.00    +0.000 A 
ATOM      7  C   UNL     1       2.256   6.079  19.527  0.00  0.00    +0.000 A 
ATOM      8  C   UNL     1       1.590   6.311  20.707  0.00  0.00    +0.000 A 
ATOM      9  O   UNL     1       1.200   7.610  20.782  0.00  0.00    +0.000 OA
ATOM     10  C   UNL     1       1.616   8.235  19.638  0.00  0.00    +0.000 A 
ATOM     11  H   UNL     1       2.540  11.842  18.370  0.00  0.00    +0.000 HD
ATOM     12  H   UNL     1       2.717  11.240  16.802  0.00  0.00    +0.000 HD
ENDROOT
BRANCH   7  13
ATOM     13  C   UNL     1       2.835   4.849  19.111  0.00  0.00    +0.000 C 
ATOM     14  C   UNL     1       2.208   3.954  18.327  0.00  0.00    +0.000 C 
ATOM     15  C   UNL     1       2.862   2.698  17.833  0.00  0.00    +0.000 C 
ATOM     16  N   UNL     1       4.310   2.649  18.044  0.00  0.00    +0.000 NA
ATOM     17  C   UNL     1       4.664   3.146  19.378  0.00  0.00    +0.000 C 
ATOM     18  C   UNL     1       4.254   4.616  19.567  0.00  0.00    +0.000 C 
ATOM     19  H   UNL     1       4.761   3.235  17.342  0.00  0.00    +0.000 HD
ENDBRANCH   7  13
BRANCH   1  20
ATOM     20  O   UNL     1       0.920  10.587  20.084  0.00  0.00    +0.000 OA
BRANCH  20  22
ATOM     21  C   UNL     1      -1.285  10.424  18.952  0.00  0.00    +0.000 C 
ATOM     22  C   UNL     1      -0.507  10.622  20.260  0.00  0.00    +0.000 C 
BRANCH  22  23
ATOM     23  C   UNL     1      -0.958  11.974  20.832  0.00  0.00    +0.000 A 
ATOM     24  C   UNL     1      -0.905  13.136  20.021  0.00  0.00    +0.000 A 
ATOM     25 CL   UNL     1      -0.493  13.087  18.337  0.00  0.00    +0.000 Cl
ATOM     26  C   UNL     1      -1.132  14.415  20.551  0.00  0.00    +0.000 A 
ATOM     27  C   UNL     1      -1.423  14.572  21.899  0.00  0.00    +0.000 A 
ATOM     28  C   UNL     1      -1.500  13.448  22.708  0.00  0.00    +0.000 A 
ATOM     29  F   UNL     1      -1.764  13.629  24.011  0.00  0.00    +0.000 F 
ATOM     30  C   UNL     1      -1.267  12.162  22.200  0.00  0.00    +0.000 A 
ATOM     31 CL   UNL     1      -1.309  10.870  23.351  0.00  0.00    +0.000 Cl
ENDBRANCH  22  23
ENDBRANCH  20  22
ENDBRANCH   1  20
TORSDOF 4
ENDMDL
MODEL 5
REMARK VINA RESULT:      -7.1      1.035      1.346
REMARK  Name = 
REMARK  5 active torsions:
REMARK  status: ('A' for Active; 'I' for Inactive)
REMARK    1  A    between atoms: C_1  and  C_2
REMARK    2  A    between atoms: C_2  and  O_3
REMARK    3  A    between atoms: C_2  and  C_20
REMARK    4  A    between atoms: O_3  and  C_4
REMARK    5  A    between atoms: C_10  and  C_11
REMARK                            x       y       z     vdW  Elec       q    Type
REMARK                         _______ _______ _______ _____ _____    ______ ____
ROOT
ATOM      1  C   UNL     1      -0.329  10.468  20.745  0.00  0.00    +0.000 A 
ATOM      2  C   UNL     1      -0.187   9.886  22.019  0.00  0.00    +0.000 A 
ATOM      3  N   UNL     1      -0.948  10.329  23.103  0.00  0.00    +0.000 N 
ATOM      4  N   UNL     1       0.665   8.886  22.331  0.00  0.00    +0.000 NA
ATOM      5  C   UNL     1       1.413   8.322  21.361  0.00  0.00    +0.000 A 
ATOM      6  C   UNL     1       1.286   8.754  20.045  0.00  0.00    +0.000 A 
ATOM      7  C   UNL     1       1.824   8.343  18.796  0.00  0.00    +0.000 A 
ATOM      8  C   UNL     1       1.299   9.188  17.847  0.00  0.00    +0.000 A 
ATOM      9  O   UNL     1       0.459  10.084  18.427  0.00  0.00    +0.000 OA
ATOM     10  C   UNL     1       0.435   9.823  19.770  0.00  0.00    +0.000 A 
ATOM     11  H   UNL     1      -1.937  10.316  22.868  0.00  0.00    +0.000 HD
ATOM     12  H   UNL     1      -0.729   9.711  23.883  0.00  0.00    +0.000 HD
ENDROOT
BRANCH   7  13
ATOM     13  C   UNL     1       2.717   7.261  18.562  0.00  0.00    +0.000 C 
ATOM     14  C   UNL     1       3.700   7.287  17.644  0.00  0.00    +0.000 C 
ATOM     15  C   UNL     1       4.682   6.168  17.464  0.00  0.00    +0.000 C 
ATOM     16  N   UNL     1       4.661   5.169  18.535  0.00  0.00    +0.000 NA
ATOM     17  C   UNL     1       3.284   4.838  18.918  0.00  0.00    +0.000 C 
ATOM     18  C   UNL     1       2.533   6.065  19.462  0.00  0.00    +0.000 C 
ATOM     19  H   UNL     1       5.148   5.551  19.344  0.00  0.00    +0.000 HD
ENDBRANCH   7  13
BRANCH   1  20
ATOM     20  O   UNL     1      -1.256  11.476  20.560  0.00  0.00    +0.000 OA
BRANCH  20  22
ATOM     21  C   UNL     1      -1.082  13.403  19.002  0.00  0.00    +0.000 C 
ATOM     22  C   UNL     1      -1.510  11.947  19.225  0.00  0.00    +0.000 C 
BRANCH  22  23
ATOM     23  C   UNL     1      -3.009  11.880  18.895  0.00  0.00    +0.000 A 
ATOM     24  C   UNL     1      -3.433  11.385  17.636  0.00  0.00    +0.000 A 
ATOM     25 CL   UNL     1      -2.337  10.696  16.482  0.00  0.00    +0.000 Cl
ATOM     26  C   UNL     1      -4.770  11.473  17.222  0.00  0.00    +0.000 A 
ATOM     27  C   UNL     1      -5.721  12.051  18.051  0.00  0.00    +0.000 A 
ATOM     28  C   UNL     1      -5.335  12.525  19.295  0.00  0.00    +0.000 A 
ATOM     29  F   UNL     1      -6.271  13.096  20.069  0.00  0.00    +0.000 F 
ATOM     30  C   UNL     1      -4.001  12.454  19.725  0.00  0.00    +0.000 A 
ATOM     31 CL   UNL     1      -3.659  13.169  21.263  0.00  0.00    +0.000 Cl
ENDBRANCH  22  23
ENDBRANCH  20  22
ENDBRANCH   1  20
TORSDOF 4
ENDMDL
MODEL 6
REMARK VINA RESULT:      -7.1      3.108      3.844
REMARK  Name = 
REMARK  5 active torsions:
REMARK  status: ('A' for Active; 'I' for Inactive)
REMARK    1  A    between atoms: C_1  and  C_2
REMARK    2  A    between atoms: C_2  and  O_3
REMARK    3  A    between atoms: C_2  and  C_20
REMARK    4  A    between atoms: O_3  and  C_4
REMARK    5  A    between atoms: C_10  and  C_11
REMARK                            x       y       z     vdW  Elec       q    Type
REMARK                         _______ _______ _______ _____ _____    ______ ____
ROOT
ATOM      1  C   UNL     1       0.638   9.640  19.627  0.00  0.00    +0.000 A 
ATOM      2  C   UNL     1       1.105  10.302  18.475  0.00  0.00    +0.000 A 
ATOM      3  N   UNL     1       0.713  11.611  18.188  0.00  0.00    +0.000 N 
ATOM      4  N   UNL     1       1.939   9.774  17.554  0.00  0.00    +0.000 NA
ATOM      5  C   UNL     1       2.444   8.538  17.744  0.00  0.00    +0.000 A 
ATOM      6  C   UNL     1       2.127   7.826  18.895  0.00  0.00    +0.000 A 
ATOM      7  C   UNL     1       2.533   6.584  19.453  0.00  0.00    +0.000 A 
ATOM      8  C   UNL     1       1.844   6.443  20.635  0.00  0.00    +0.000 A 
ATOM      9  O   UNL     1       1.051   7.524  20.851  0.00  0.00    +0.000 OA
ATOM     10  C   UNL     1       1.223   8.382  19.799  0.00  0.00    +0.000 A 
ATOM     11  H   UNL     1       0.894  12.216  18.984  0.00  0.00    +0.000 HD
ATOM     12  H   UNL     1       1.236  11.895  17.361  0.00  0.00    +0.000 HD
ENDROOT
BRANCH   7  13
ATOM     13  C   UNL     1       3.477   5.669  18.912  0.00  0.00    +0.000 C 
ATOM     14  C   UNL     1       4.755   5.582  19.323  0.00  0.00    +0.000 C 
ATOM     15  C   UNL     1       5.716   4.558  18.796  0.00  0.00    +0.000 C 
ATOM     16  N   UNL     1       5.092   3.496  18.005  0.00  0.00    +0.000 NA
ATOM     17  C   UNL     1       4.082   4.043  17.093  0.00  0.00    +0.000 C 
ATOM     18  C   UNL     1       2.940   4.735  17.855  0.00  0.00    +0.000 C 
ATOM     19  H   UNL     1       4.643   2.838  18.642  0.00  0.00    +0.000 HD
ENDBRANCH   7  13
BRANCH   1  20
ATOM     20  O   UNL     1      -0.200  10.307  20.499  0.00  0.00    +0.000 OA
BRANCH  20  22
ATOM     21  C   UNL     1      -0.089  10.081  22.971  0.00  0.00    +0.000 C 
ATOM     22  C   UNL     1       0.351  10.844  21.714  0.00  0.00    +0.000 C 
BRANCH  22  23
ATOM     23  C   UNL     1      -0.087  12.303  21.918  0.00  0.00    +0.000 A 
ATOM     24  C   UNL     1       0.773  13.359  21.521  0.00  0.00    +0.000 A 
ATOM     25 CL   UNL     1       2.257  13.089  20.666  0.00  0.00    +0.000 Cl
ATOM     26  C   UNL     1       0.498  14.695  21.850  0.00  0.00    +0.000 A 
ATOM     27  C   UNL     1      -0.641  15.016  22.575  0.00  0.00    +0.000 A 
ATOM     28  C   UNL     1      -1.507  14.002  22.957  0.00  0.00    +0.000 A 
ATOM     29  F   UNL     1      -2.591  14.338  23.674  0.00  0.00    +0.000 F 
ATOM     30  C   UNL     1      -1.246  12.659  22.646  0.00  0.00    +0.000 A 
ATOM     31 CL   UNL     1      -2.372  11.501  23.269  0.00  0.00    +0.000 Cl
ENDBRANCH  22  23
ENDBRANCH  20  22
ENDBRANCH   1  20
TORSDOF 4
ENDMDL
MODEL 7
REMARK VINA RESULT:      -7.1      4.427      8.552
REMARK  Name = 
REMARK  5 active torsions:
REMARK  status: ('A' for Active; 'I' for Inactive)
REMARK    1  A    between atoms: C_1  and  C_2
REMARK    2  A    between atoms: C_2  and  O_3
REMARK    3  A    between atoms: C_2  and  C_20
REMARK    4  A    between atoms: O_3  and  C_4
REMARK    5  A    between atoms: C_10  and  C_11
REMARK                            x       y       z     vdW  Elec       q    Type
REMARK                         _______ _______ _______ _____ _____    ______ ____
ROOT
ATOM      1  C   UNL     1       2.151   7.901  19.550  0.00  0.00    +0.000 A 
ATOM      2  C   UNL     1       2.057   8.463  18.263  0.00  0.00    +0.000 A 
ATOM      3  N   UNL     1       2.680   7.862  17.168  0.00  0.00    +0.000 N 
ATOM      4  N   UNL     1       1.392   9.596  17.951  0.00  0.00    +0.000 NA
ATOM      5  C   UNL     1       0.692  10.241  18.906  0.00  0.00    +0.000 A 
ATOM      6  C   UNL     1       0.635   9.726  20.196  0.00  0.00    +0.000 A 
ATOM      7  C   UNL     1      -0.055  10.073  21.388  0.00  0.00    +0.000 A 
ATOM      8  C   UNL     1       0.318   9.151  22.338  0.00  0.00    +0.000 A 
ATOM      9  O   UNL     1       1.181   8.247  21.805  0.00  0.00    +0.000 OA
ATOM     10  C   UNL     1       1.375   8.582  20.493  0.00  0.00    +0.000 A 
ATOM     11  H   UNL     1       2.406   6.886  17.097  0.00  0.00    +0.000 HD
ATOM     12  H   UNL     1       2.405   8.399  16.347  0.00  0.00    +0.000 HD
ENDROOT
BRANCH   7  13
ATOM     13  C   UNL     1      -0.966  11.149  21.568  0.00  0.00    +0.000 C 
ATOM     14  C   UNL     1      -1.554  11.809  20.554  0.00  0.00    +0.000 C 
ATOM     15  C   UNL     1      -2.573  12.889  20.762  0.00  0.00    +0.000 C 
ATOM     16  N   UNL     1      -3.077  12.987  22.134  0.00  0.00    +0.000 NA
ATOM     17  C   UNL     1      -1.986  12.857  23.105  0.00  0.00    +0.000 C 
ATOM     18  C   UNL     1      -1.291  11.489  23.002  0.00  0.00    +0.000 C 
ATOM     19  H   UNL     1      -3.749  12.237  22.286  0.00  0.00    +0.000 HD
ENDBRANCH   7  13
BRANCH   1  20
ATOM     20  O   UNL     1       2.850   6.723  19.727  0.00  0.00    +0.000 OA
BRANCH  20  22
ATOM     21  C   UNL     1       2.228   4.814  21.190  0.00  0.00    +0.000 C 
ATOM     22  C   UNL     1       2.116   5.489  19.817  0.00  0.00    +0.000 C 
BRANCH  22  23
ATOM     23  C   UNL     1       2.629   4.469  18.788  0.00  0.00    +0.000 A 
ATOM     24  C   UNL     1       1.888   3.286  18.539  0.00  0.00    +0.000 A 
ATOM     25 CL   UNL     1       0.327   2.992  19.235  0.00  0.00    +0.000 Cl
ATOM     26  C   UNL     1       2.404   2.246  17.750  0.00  0.00    +0.000 A 
ATOM     27  C   UNL     1       3.666   2.359  17.184  0.00  0.00    +0.000 A 
ATOM     28  C   UNL     1       4.401   3.515  17.397  0.00  0.00    +0.000 A 
ATOM     29  F   UNL     1       5.626   3.591  16.854  0.00  0.00    +0.000 F 
ATOM     30  C   UNL     1       3.908   4.562  18.190  0.00  0.00    +0.000 A 
ATOM     31 CL   UNL     1       4.978   5.900  18.437  0.00  0.00    +0.000 Cl
ENDBRANCH  22  23
ENDBRANCH  20  22
ENDBRANCH   1  20
TORSDOF 4
ENDMDL
MODEL 8
REMARK VINA RESULT:      -6.8      2.942      3.853
REMARK  Name = 
REMARK  5 active torsions:
REMARK  status: ('A' for Active; 'I' for Inactive)
REMARK    1  A    between atoms: C_1  and  C_2
REMARK    2  A    between atoms: C_2  and  O_3
REMARK    3  A    between atoms: C_2  and  C_20
REMARK    4  A    between atoms: O_3  and  C_4
REMARK    5  A    between atoms: C_10  and  C_11
REMARK                            x       y       z     vdW  Elec       q    Type
REMARK                         _______ _______ _______ _____ _____    ______ ____
ROOT
ATOM      1  C   UNL     1       1.492  10.309  19.578  0.00  0.00    +0.000 A 
ATOM      2  C   UNL     1       1.905  10.587  18.260  0.00  0.00    +0.000 A 
ATOM      3  N   UNL     1       1.955  11.898  17.783  0.00  0.00    +0.000 N 
ATOM      4  N   UNL     1       2.275   9.665  17.346  0.00  0.00    +0.000 NA
ATOM      5  C   UNL     1       2.332   8.364  17.699  0.00  0.00    +0.000 A 
ATOM      6  C   UNL     1       2.037   7.982  19.003  0.00  0.00    +0.000 A 
ATOM      7  C   UNL     1       2.081   6.761  19.728  0.00  0.00    +0.000 A 
ATOM      8  C   UNL     1       1.660   7.049  21.004  0.00  0.00    +0.000 A 
ATOM      9  O   UNL     1       1.373   8.372  21.120  0.00  0.00    +0.000 OA
ATOM     10  C   UNL     1       1.609   8.955  19.905  0.00  0.00    +0.000 A 
ATOM     11  H   UNL     1       2.508  12.480  18.407  0.00  0.00    +0.000 HD
ATOM     12  H   UNL     1       2.354  11.850  16.847  0.00  0.00    +0.000 HD
ENDROOT
BRANCH   7  13
ATOM     13  C   UNL     1       2.495   5.491  19.241  0.00  0.00    +0.000 C 
ATOM     14  C   UNL     1       1.678   4.629  18.609  0.00  0.00    +0.000 C 
ATOM     15  C   UNL     1       2.149   3.327  18.032  0.00  0.00    +0.000 C 
ATOM     16  N   UNL     1       3.605   3.187  17.971  0.00  0.00    +0.000 NA
ATOM     17  C   UNL     1       4.233   3.676  19.203  0.00  0.00    +0.000 C 
ATOM     18  C   UNL     1       3.958   5.172  19.430  0.00  0.00    +0.000 C 
ATOM     19  H   UNL     1       3.951   3.734  17.183  0.00  0.00    +0.000 HD
ENDBRANCH   7  13
BRANCH   1  20
ATOM     20  O   UNL     1       1.157  11.353  20.418  0.00  0.00    +0.000 OA
BRANCH  20  22
ATOM     21  C   UNL     1      -1.184  11.703  19.664  0.00  0.00    +0.000 C 
ATOM     22  C   UNL     1      -0.212  11.497  20.833  0.00  0.00    +0.000 C 
BRANCH  22  23
ATOM     23  C   UNL     1      -0.381  12.713  21.757  0.00  0.00    +0.000 A 
ATOM     24  C   UNL     1      -1.236  12.628  22.885  0.00  0.00    +0.000 A 
ATOM     25 CL   UNL     1      -1.999  11.149  23.374  0.00  0.00    +0.000 Cl
ATOM     26  C   UNL     1      -1.562  13.758  23.649  0.00  0.00    +0.000 A 
ATOM     27  C   UNL     1      -1.042  15.001  23.315  0.00  0.00    +0.000 A 
ATOM     28  C   UNL     1      -0.189  15.106  22.228  0.00  0.00    +0.000 A 
ATOM     29  F   UNL     1       0.285  16.322  21.914  0.00  0.00    +0.000 F 
ATOM     30  C   UNL     1       0.143  13.989  21.445  0.00  0.00    +0.000 A 
ATOM     31 CL   UNL     1       1.146  14.295  20.069  0.00  0.00    +0.000 Cl
ENDBRANCH  22  23
ENDBRANCH  20  22
ENDBRANCH   1  20
TORSDOF 4
ENDMDL
MODEL 9
REMARK VINA RESULT:      -6.8      2.632      3.650
REMARK  Name = 
REMARK  5 active torsions:
REMARK  status: ('A' for Active; 'I' for Inactive)
REMARK    1  A    between atoms: C_1  and  C_2
REMARK    2  A    between atoms: C_2  and  O_3
REMARK    3  A    between atoms: C_2  and  C_20
REMARK    4  A    between atoms: O_3  and  C_4
REMARK    5  A    between atoms: C_10  and  C_11
REMARK                            x       y       z     vdW  Elec       q    Type
REMARK                         _______ _______ _______ _____ _____    ______ ____
ROOT
ATOM      1  C   UNL     1       1.096  10.515  19.577  0.00  0.00    +0.000 A 
ATOM      2  C   UNL     1       1.773  10.674  18.353  0.00  0.00    +0.000 A 
ATOM      3  N   UNL     1       1.890  11.930  17.753  0.00  0.00    +0.000 N 
ATOM      4  N   UNL     1       2.355   9.682  17.646  0.00  0.00    +0.000 NA
ATOM      5  C   UNL     1       2.370   8.430  18.145  0.00  0.00    +0.000 A 
ATOM      6  C   UNL     1       1.813   8.171  19.393  0.00  0.00    +0.000 A 
ATOM      7  C   UNL     1       1.733   7.035  20.243  0.00  0.00    +0.000 A 
ATOM      8  C   UNL     1       1.041   7.433  21.363  0.00  0.00    +0.000 A 
ATOM      9  O   UNL     1       0.701   8.745  21.266  0.00  0.00    +0.000 OA
ATOM     10  C   UNL     1       1.176   9.210  20.070  0.00  0.00    +0.000 A 
ATOM     11  H   UNL     1       2.281  12.600  18.410  0.00  0.00    +0.000 HD
ATOM     12  H   UNL     1       2.481  11.805  16.933  0.00  0.00    +0.000 HD
ENDROOT
BRANCH   7  13
ATOM     13  C   UNL     1       2.275   5.743  20.000  0.00  0.00    +0.000 C 
ATOM     14  C   UNL     1       3.524   5.529  19.549  0.00  0.00    +0.000 C 
ATOM     15  C   UNL     1       4.107   4.158  19.372  0.00  0.00    +0.000 C 
ATOM     16  N   UNL     1       3.316   3.085  19.978  0.00  0.00    +0.000 NA
ATOM     17  C   UNL     1       1.885   3.276  19.721  0.00  0.00    +0.000 C 
ATOM     18  C   UNL     1       1.365   4.587  20.335  0.00  0.00    +0.000 C 
ATOM     19  H   UNL     1       3.477   3.092  20.985  0.00  0.00    +0.000 HD
ENDBRANCH   7  13
BRANCH   1  20
ATOM     20  O   UNL     1       0.561  11.623  20.205  0.00  0.00    +0.000 OA
BRANCH  20  22
ATOM     21  C   UNL     1      -1.699  11.411  19.196  0.00  0.00    +0.000 C 
ATOM     22  C   UNL     1      -0.855  11.663  20.452  0.00  0.00    +0.000 C 
BRANCH  22  23
ATOM     23  C   UNL     1      -1.279  13.038  20.991  0.00  0.00    +0.000 A 
ATOM     24  C   UNL     1      -2.006  13.126  22.206  0.00  0.00    +0.000 A 
ATOM     25 CL   UNL     1      -2.319  11.750  23.213  0.00  0.00    +0.000 Cl
ATOM     26  C   UNL     1      -2.569  14.335  22.641  0.00  0.00    +0.000 A 
ATOM     27  C   UNL     1      -2.419  15.488  21.885  0.00  0.00    +0.000 A 
ATOM     28  C   UNL     1      -1.695  15.432  20.703  0.00  0.00    +0.000 A 
ATOM     29  F   UNL     1      -1.580  16.557  19.981  0.00  0.00    +0.000 F 
ATOM     30  C   UNL     1      -1.132  14.231  20.246  0.00  0.00    +0.000 A 
ATOM     31 CL   UNL     1      -0.335  14.301  18.710  0.00  0.00    +0.000 Cl
ENDBRANCH  22  23
ENDBRANCH  20  22
ENDBRANCH   1  20
TORSDOF 4
ENDMDL
