MODEL 1
REMARK VINA RESULT:      -7.8      0.000      0.000
REMARK  Name = 
REMARK  4 active torsions:
REMARK  status: ('A' for Active; 'I' for Inactive)
REMARK    1  A    between atoms: C_1  and  C_2
REMARK    2  A    between atoms: C_5  and  N_6
REMARK    3  A    between atoms: N_17  and  C_18
REMARK    4  A    between atoms: N_17  and  C_19
REMARK                            x       y       z     vdW  Elec       q    Type
REMARK                         _______ _______ _______ _____ _____    ______ ____
ROOT
ATOM      1  N   UNL     1       1.297   9.215  19.311  0.00  0.00    +0.000 N 
ATOM      2  C   UNL     1       1.988   9.069  18.102  0.00  0.00    +0.000 A 
ATOM      3  C   UNL     1       2.685   7.964  17.783  0.00  0.00    +0.000 A 
ATOM      4  C   UNL     1       2.755   6.854  18.675  0.00  0.00    +0.000 A 
ATOM      5  C   UNL     1       2.029   6.984  19.856  0.00  0.00    +0.000 A 
ATOM      6  S   UNL     1       2.063   5.586  20.798  0.00  0.00    +0.000 S 
ATOM      7  C   UNL     1       3.086   4.807  19.686  0.00  0.00    +0.000 A 
ATOM      8  N   UNL     1       3.448   3.542  19.965  0.00  0.00    +0.000 NA
ATOM      9  C   UNL     1       4.240   3.030  19.044  0.00  0.00    +0.000 A 
ATOM     10  N   UNL     1       4.698   3.644  17.945  0.00  0.00    +0.000 NA
ATOM     11  C   UNL     1       4.324   4.920  17.645  0.00  0.00    +0.000 A 
ATOM     12  N   UNL     1       4.766   5.420  16.412  0.00  0.00    +0.000 N 
ATOM     13  C   UNL     1       5.415   6.725  16.375  0.00  0.00    +0.000 C 
ATOM     14  C   UNL     1       5.381   4.439  15.504  0.00  0.00    +0.000 C 
ATOM     15  C   UNL     1       3.446   5.574  18.574  0.00  0.00    +0.000 A 
ATOM     16  C   UNL     1       1.282   8.174  20.268  0.00  0.00    +0.000 A 
ATOM     17  O   UNL     1       0.682   8.239  21.340  0.00  0.00    +0.000 OA
ENDROOT
BRANCH   1  22
ATOM     18  C   UNL     1      -1.651  13.988  20.564  0.00  0.00    +0.000 C 
ATOM     19  C   UNL     1      -0.886  12.743  20.218  0.00  0.00    +0.000 A 
ATOM     20  C   UNL     1      -1.483  11.712  19.475  0.00  0.00    +0.000 A 
ATOM     21  C   UNL     1      -0.755  10.565  19.150  0.00  0.00    +0.000 A 
ATOM     22  C   UNL     1       0.569  10.415  19.582  0.00  0.00    +0.000 A 
ATOM     23  C   UNL     1       1.157  11.444  20.332  0.00  0.00    +0.000 A 
ATOM     24  C   UNL     1       0.444  12.608  20.628  0.00  0.00    +0.000 A 
ENDBRANCH   1  22
TORSDOF 1
ENDMDL
MODEL 2
REMARK VINA RESULT:      -7.7      2.215      7.752
REMARK  Name = 
REMARK  4 active torsions:
REMARK  status: ('A' for Active; 'I' for Inactive)
REMARK    1  A    between atoms: C_1  and  C_2
REMARK    2  A    between atoms: C_5  and  N_6
REMARK    3  A    between atoms: N_17  and  C_18
REMARK    4  A    between atoms: N_17  and  C_19
REMARK                            x       y       z     vdW  Elec       q    Type
REMARK                         _______ _______ _______ _____ _____    ______ ____
ROOT
ATOM      1  N   UNL     1       2.204   7.865  18.704  0.00  0.00    +0.000 N 
ATOM      2  C   UNL     1       1.906   9.049  18.018  0.00  0.00    +0.000 A 
ATOM      3  C   UNL     1       1.231  10.071  18.576  0.00  0.00    +0.000 A 
ATOM      4  C   UNL     1       0.778  10.004  19.927  0.00  0.00    +0.000 A 
ATOM      5  C   UNL     1       1.118   8.844  20.620  0.00  0.00    +0.000 A 
ATOM      6  S   UNL     1       0.655   8.896  22.240  0.00  0.00    +0.000 S 
ATOM      7  C   UNL     1      -0.052  10.428  22.037  0.00  0.00    +0.000 A 
ATOM      8  N   UNL     1      -0.609  10.997  23.121  0.00  0.00    +0.000 NA
ATOM      9  C   UNL     1      -1.128  12.180  22.858  0.00  0.00    +0.000 A 
ATOM     10  N   UNL     1      -1.163  12.798  21.670  0.00  0.00    +0.000 NA
ATOM     11  C   UNL     1      -0.588  12.237  20.569  0.00  0.00    +0.000 A 
ATOM     12  N   UNL     1      -0.577  13.023  19.409  0.00  0.00    +0.000 N 
ATOM     13  C   UNL     1      -1.048  12.438  18.160  0.00  0.00    +0.000 C 
ATOM     14  C   UNL     1      -0.981  14.427  19.581  0.00  0.00    +0.000 C 
ATOM     15  C   UNL     1       0.025  10.950  20.742  0.00  0.00    +0.000 A 
ATOM     16  C   UNL     1       1.819   7.691  20.054  0.00  0.00    +0.000 A 
ATOM     17  O   UNL     1       2.065   6.680  20.710  0.00  0.00    +0.000 OA
ENDROOT
BRANCH   1  22
ATOM     18  C   UNL     1       5.176   3.608  16.235  0.00  0.00    +0.000 C 
ATOM     19  C   UNL     1       4.402   4.731  16.864  0.00  0.00    +0.000 A 
ATOM     20  C   UNL     1       4.913   6.038  16.883  0.00  0.00    +0.000 A 
ATOM     21  C   UNL     1       4.177   7.075  17.461  0.00  0.00    +0.000 A 
ATOM     22  C   UNL     1       2.932   6.822  18.051  0.00  0.00    +0.000 A 
ATOM     23  C   UNL     1       2.430   5.512  18.038  0.00  0.00    +0.000 A 
ATOM     24  C   UNL     1       3.147   4.479  17.429  0.00  0.00    +0.000 A 
ENDBRANCH   1  22
TORSDOF 1
ENDMDL
MODEL 3
REMARK VINA RESULT:      -7.2      1.563      2.891
REMARK  Name = 
REMARK  4 active torsions:
REMARK  status: ('A' for Active; 'I' for Inactive)
REMARK    1  A    between atoms: C_1  and  C_2
REMARK    2  A    between atoms: C_5  and  N_6
REMARK    3  A    between atoms: N_17  and  C_18
REMARK    4  A    between atoms: N_17  and  C_19
REMARK                            x       y       z     vdW  Elec       q    Type
REMARK                         _______ _______ _______ _____ _____    ______ ____
ROOT
ATOM      1  N   UNL     1       1.142   9.302  19.628  0.00  0.00    +0.000 N 
ATOM      2  C   UNL     1       0.991   8.282  20.574  0.00  0.00    +0.000 A 
ATOM      3  C   UNL     1       1.576   7.077  20.455  0.00  0.00    +0.000 A 
ATOM      4  C   UNL     1       2.405   6.768  19.336  0.00  0.00    +0.000 A 
ATOM      5  C   UNL     1       2.591   7.801  18.421  0.00  0.00    +0.000 A 
ATOM      6  S   UNL     1       3.678   7.398  17.197  0.00  0.00    +0.000 S 
ATOM      7  C   UNL     1       3.876   5.831  17.826  0.00  0.00    +0.000 A 
ATOM      8  N   UNL     1       4.728   5.013  17.182  0.00  0.00    +0.000 NA
ATOM      9  C   UNL     1       4.809   3.825  17.748  0.00  0.00    +0.000 A 
ATOM     10  N   UNL     1       4.133   3.397  18.823  0.00  0.00    +0.000 NA
ATOM     11  C   UNL     1       3.280   4.224  19.492  0.00  0.00    +0.000 A 
ATOM     12  N   UNL     1       2.719   3.711  20.669  0.00  0.00    +0.000 N 
ATOM     13  C   UNL     1       1.276   3.803  20.858  0.00  0.00    +0.000 C 
ATOM     14  C   UNL     1       3.289   2.445  21.154  0.00  0.00    +0.000 C 
ATOM     15  C   UNL     1       3.124   5.553  18.972  0.00  0.00    +0.000 A 
ATOM     16  C   UNL     1       1.953   9.117  18.484  0.00  0.00    +0.000 A 
ATOM     17  O   UNL     1       2.135   9.981  17.626  0.00  0.00    +0.000 OA
ENDROOT
BRANCH   1  22
ATOM     18  C   UNL     1      -1.486  14.328  20.570  0.00  0.00    +0.000 C 
ATOM     19  C   UNL     1      -0.803  13.017  20.305  0.00  0.00    +0.000 A 
ATOM     20  C   UNL     1      -1.430  12.017  19.544  0.00  0.00    +0.000 A 
ATOM     21  C   UNL     1      -0.778  10.807  19.295  0.00  0.00    +0.000 A 
ATOM     22  C   UNL     1       0.497  10.564  19.822  0.00  0.00    +0.000 A 
ATOM     23  C   UNL     1       1.115  11.562  20.589  0.00  0.00    +0.000 A 
ATOM     24  C   UNL     1       0.481  12.788  20.809  0.00  0.00    +0.000 A 
ENDBRANCH   1  22
TORSDOF 1
ENDMDL
MODEL 4
REMARK VINA RESULT:      -7.2      1.938      3.100
REMARK  Name = 
REMARK  4 active torsions:
REMARK  status: ('A' for Active; 'I' for Inactive)
REMARK    1  A    between atoms: C_1  and  C_2
REMARK    2  A    between atoms: C_5  and  N_6
REMARK    3  A    between atoms: N_17  and  C_18
REMARK    4  A    between atoms: N_17  and  C_19
REMARK                            x       y       z     vdW  Elec       q    Type
REMARK                         _______ _______ _______ _____ _____    ______ ____
ROOT
ATOM      1  N   UNL     1       0.890   8.546  20.602  0.00  0.00    +0.000 N 
ATOM      2  C   UNL     1       1.062   7.309  21.234  0.00  0.00    +0.000 A 
ATOM      3  C   UNL     1       1.814   6.319  20.718  0.00  0.00    +0.000 A 
ATOM      4  C   UNL     1       2.495   6.482  19.475  0.00  0.00    +0.000 A 
ATOM      5  C   UNL     1       2.358   7.730  18.873  0.00  0.00    +0.000 A 
ATOM      6  S   UNL     1       3.290   7.883  17.476  0.00  0.00    +0.000 S 
ATOM      7  C   UNL     1       3.843   6.281  17.614  0.00  0.00    +0.000 A 
ATOM      8  N   UNL     1       4.706   5.846  16.679  0.00  0.00    +0.000 NA
ATOM      9  C   UNL     1       5.072   4.595  16.876  0.00  0.00    +0.000 A 
ATOM     10  N   UNL     1       4.655   3.778  17.853  0.00  0.00    +0.000 NA
ATOM     11  C   UNL     1       3.793   4.215  18.815  0.00  0.00    +0.000 A 
ATOM     12  N   UNL     1       3.519   3.315  19.854  0.00  0.00    +0.000 N 
ATOM     13  C   UNL     1       2.130   3.061  20.214  0.00  0.00    +0.000 C 
ATOM     14  C   UNL     1       4.361   2.110  19.899  0.00  0.00    +0.000 C 
ATOM     15  C   UNL     1       3.339   5.573  18.709  0.00  0.00    +0.000 A 
ATOM     16  C   UNL     1       1.529   8.828  19.371  0.00  0.00    +0.000 A 
ATOM     17  O   UNL     1       1.426   9.901  18.778  0.00  0.00    +0.000 OA
ENDROOT
BRANCH   1  22
ATOM     18  C   UNL     1      -2.221  12.722  23.037  0.00  0.00    +0.000 C 
ATOM     19  C   UNL     1      -1.419  11.618  22.410  0.00  0.00    +0.000 A 
ATOM     20  C   UNL     1      -0.896  10.574  23.188  0.00  0.00    +0.000 A 
ATOM     21  C   UNL     1      -0.163   9.547  22.589  0.00  0.00    +0.000 A 
ATOM     22  C   UNL     1       0.084   9.558  21.211  0.00  0.00    +0.000 A 
ATOM     23  C   UNL     1      -0.433  10.609  20.438  0.00  0.00    +0.000 A 
ATOM     24  C   UNL     1      -1.198  11.618  21.028  0.00  0.00    +0.000 A 
ENDBRANCH   1  22
TORSDOF 1
ENDMDL
MODEL 5
REMARK VINA RESULT:      -7.2      1.529      1.706
REMARK  Name = 
REMARK  4 active torsions:
REMARK  status: ('A' for Active; 'I' for Inactive)
REMARK    1  A    between atoms: C_1  and  C_2
REMARK    2  A    between atoms: C_5  and  N_6
REMARK    3  A    between atoms: N_17  and  C_18
REMARK    4  A    between atoms: N_17  and  C_19
REMARK                            x       y       z     vdW  Elec       q    Type
REMARK                         _______ _______ _______ _____ _____    ______ ____
ROOT
ATOM      1  N   UNL     1       1.396  10.365  18.889  0.00  0.00    +0.000 N 
ATOM      2  C   UNL     1       2.080   9.785  17.814  0.00  0.00    +0.000 A 
ATOM      3  C   UNL     1       2.504   8.508  17.817  0.00  0.00    +0.000 A 
ATOM      4  C   UNL     1       2.269   7.656  18.936  0.00  0.00    +0.000 A 
ATOM      5  C   UNL     1       1.547   8.223  19.983  0.00  0.00    +0.000 A 
ATOM      6  S   UNL     1       1.206   7.118  21.210  0.00  0.00    +0.000 S 
ATOM      7  C   UNL     1       2.057   5.888  20.403  0.00  0.00    +0.000 A 
ATOM      8  N   UNL     1       2.093   4.678  20.989  0.00  0.00    +0.000 NA
ATOM      9  C   UNL     1       2.776   3.798  20.285  0.00  0.00    +0.000 A 
ATOM     10  N   UNL     1       3.412   4.013  19.126  0.00  0.00    +0.000 NA
ATOM     11  C   UNL     1       3.369   5.231  18.515  0.00  0.00    +0.000 A 
ATOM     12  N   UNL     1       3.968   5.311  17.251  0.00  0.00    +0.000 N 
ATOM     13  C   UNL     1       4.912   6.390  16.988  0.00  0.00    +0.000 C 
ATOM     14  C   UNL     1       4.365   4.031  16.647  0.00  0.00    +0.000 C 
ATOM     15  C   UNL     1       2.636   6.267  19.188  0.00  0.00    +0.000 A 
ATOM     16  C   UNL     1       1.092   9.613  20.048  0.00  0.00    +0.000 A 
ATOM     17  O   UNL     1       0.482  10.064  21.016  0.00  0.00    +0.000 OA
ENDROOT
BRANCH   1  22
ATOM     18  C   UNL     1      -0.316  15.852  18.766  0.00  0.00    +0.000 C 
ATOM     19  C   UNL     1       0.122  14.415  18.781  0.00  0.00    +0.000 A 
ATOM     20  C   UNL     1      -0.803  13.376  18.596  0.00  0.00    +0.000 A 
ATOM     21  C   UNL     1      -0.380  12.045  18.600  0.00  0.00    +0.000 A 
ATOM     22  C   UNL     1       0.967  11.727  18.816  0.00  0.00    +0.000 A 
ATOM     23  C   UNL     1       1.886  12.769  19.010  0.00  0.00    +0.000 A 
ATOM     24  C   UNL     1       1.472  14.102  18.970  0.00  0.00    +0.000 A 
ENDBRANCH   1  22
TORSDOF 1
ENDMDL
MODEL 6
REMARK VINA RESULT:      -7.2      1.375      1.730
REMARK  Name = 
REMARK  4 active torsions:
REMARK  status: ('A' for Active; 'I' for Inactive)
REMARK    1  A    between atoms: C_1  and  C_2
REMARK    2  A    between atoms: C_5  and  N_6
REMARK    3  A    between atoms: N_17  and  C_18
REMARK    4  A    between atoms: N_17  and  C_19
REMARK                            x       y       z     vdW  Elec       q    Type
REMARK                         _______ _______ _______ _____ _____    ______ ____
ROOT
ATOM      1  N   UNL     1       1.436  10.150  18.950  0.00  0.00    +0.000 N 
ATOM      2  C   UNL     1       2.141   9.648  17.850  0.00  0.00    +0.000 A 
ATOM      3  C   UNL     1       2.606   8.386  17.789  0.00  0.00    +0.000 A 
ATOM      4  C   UNL     1       2.396   7.471  18.862  0.00  0.00    +0.000 A 
ATOM      5  C   UNL     1       1.654   7.960  19.935  0.00  0.00    +0.000 A 
ATOM      6  S   UNL     1       1.346   6.784  21.102  0.00  0.00    +0.000 S 
ATOM      7  C   UNL     1       2.237   5.625  20.236  0.00  0.00    +0.000 A 
ATOM      8  N   UNL     1       2.311   4.388  20.760  0.00  0.00    +0.000 NA
ATOM      9  C   UNL     1       3.023   3.567  20.014  0.00  0.00    +0.000 A 
ATOM     10  N   UNL     1       3.655   3.862  18.870  0.00  0.00    +0.000 NA
ATOM     11  C   UNL     1       3.573   5.107  18.323  0.00  0.00    +0.000 A 
ATOM     12  N   UNL     1       4.172   5.271  17.066  0.00  0.00    +0.000 N 
ATOM     13  C   UNL     1       5.082   6.391  16.862  0.00  0.00    +0.000 C 
ATOM     14  C   UNL     1       4.612   4.036  16.399  0.00  0.00    +0.000 C 
ATOM     15  C   UNL     1       2.806   6.084  19.044  0.00  0.00    +0.000 A 
ATOM     16  C   UNL     1       1.155   9.330  20.068  0.00  0.00    +0.000 A 
ATOM     17  O   UNL     1       0.528   9.711  21.056  0.00  0.00    +0.000 OA
ENDROOT
BRANCH   1  22
ATOM     18  C   UNL     1      -0.457  15.574  18.759  0.00  0.00    +0.000 C 
ATOM     19  C   UNL     1       0.045  14.161  18.827  0.00  0.00    +0.000 A 
ATOM     20  C   UNL     1       1.368  13.881  19.200  0.00  0.00    +0.000 A 
ATOM     21  C   UNL     1       1.818  12.561  19.271  0.00  0.00    +0.000 A 
ATOM     22  C   UNL     1       0.964  11.499  18.946  0.00  0.00    +0.000 A 
ATOM     23  C   UNL     1      -0.356  11.784  18.564  0.00  0.00    +0.000 A 
ATOM     24  C   UNL     1      -0.819  13.102  18.528  0.00  0.00    +0.000 A 
ENDBRANCH   1  22
TORSDOF 1
ENDMDL
MODEL 7
REMARK VINA RESULT:      -7.2      1.974      3.075
REMARK  Name = 
REMARK  4 active torsions:
REMARK  status: ('A' for Active; 'I' for Inactive)
REMARK    1  A    between atoms: C_1  and  C_2
REMARK    2  A    between atoms: C_5  and  N_6
REMARK    3  A    between atoms: N_17  and  C_18
REMARK    4  A    between atoms: N_17  and  C_19
REMARK                            x       y       z     vdW  Elec       q    Type
REMARK                         _______ _______ _______ _____ _____    ______ ____
ROOT
ATOM      1  N   UNL     1       1.118   8.284  20.502  0.00  0.00    +0.000 N 
ATOM      2  C   UNL     1       1.195   7.001  21.055  0.00  0.00    +0.000 A 
ATOM      3  C   UNL     1       1.887   5.996  20.486  0.00  0.00    +0.000 A 
ATOM      4  C   UNL     1       2.597   6.190  19.265  0.00  0.00    +0.000 A 
ATOM      5  C   UNL     1       2.556   7.480  18.742  0.00  0.00    +0.000 A 
ATOM      6  S   UNL     1       3.519   7.657  17.370  0.00  0.00    +0.000 S 
ATOM      7  C   UNL     1       3.960   6.016  17.412  0.00  0.00    +0.000 A 
ATOM      8  N   UNL     1       4.807   5.582  16.461  0.00  0.00    +0.000 NA
ATOM      9  C   UNL     1       5.084   4.299  16.582  0.00  0.00    +0.000 A 
ATOM     10  N   UNL     1       4.597   3.453  17.499  0.00  0.00    +0.000 NA
ATOM     11  C   UNL     1       3.751   3.886  18.476  0.00  0.00    +0.000 A 
ATOM     12  N   UNL     1       3.399   2.943  19.452  0.00  0.00    +0.000 N 
ATOM     13  C   UNL     1       1.990   2.763  19.779  0.00  0.00    +0.000 C 
ATOM     14  C   UNL     1       4.157   1.683  19.430  0.00  0.00    +0.000 C 
ATOM     15  C   UNL     1       3.391   5.275  18.453  0.00  0.00    +0.000 A 
ATOM     16  C   UNL     1       1.795   8.599  19.300  0.00  0.00    +0.000 A 
ATOM     17  O   UNL     1       1.774   9.712  18.775  0.00  0.00    +0.000 OA
ENDROOT
BRANCH   1  22
ATOM     18  C   UNL     1      -2.012  12.290  23.187  0.00  0.00    +0.000 C 
ATOM     19  C   UNL     1      -1.185  11.258  22.476  0.00  0.00    +0.000 A 
ATOM     20  C   UNL     1      -1.017  11.301  21.083  0.00  0.00    +0.000 A 
ATOM     21  C   UNL     1      -0.234  10.341  20.437  0.00  0.00    +0.000 A 
ATOM     22  C   UNL     1       0.371   9.308  21.164  0.00  0.00    +0.000 A 
ATOM     23  C   UNL     1       0.192   9.264  22.555  0.00  0.00    +0.000 A 
ATOM     24  C   UNL     1      -0.560  10.243  23.209  0.00  0.00    +0.000 A 
ENDBRANCH   1  22
TORSDOF 1
ENDMDL
MODEL 8
REMARK VINA RESULT:      -7.1      2.562      8.126
REMARK  Name = 
REMARK  4 active torsions:
REMARK  status: ('A' for Active; 'I' for Inactive)
REMARK    1  A    between atoms: C_1  and  C_2
REMARK    2  A    between atoms: C_5  and  N_6
REMARK    3  A    between atoms: N_17  and  C_18
REMARK    4  A    between atoms: N_17  and  C_19
REMARK                            x       y       z     vdW  Elec       q    Type
REMARK                         _______ _______ _______ _____ _____    ______ ____
ROOT
ATOM      1  N   UNL     1       2.165   6.331  19.463  0.00  0.00    +0.000 N 
ATOM      2  C   UNL     1       1.359   6.499  20.595  0.00  0.00    +0.000 A 
ATOM      3  C   UNL     1       0.842   7.686  20.960  0.00  0.00    +0.000 A 
ATOM      4  C   UNL     1       1.088   8.863  20.193  0.00  0.00    +0.000 A 
ATOM      5  C   UNL     1       1.851   8.684  19.042  0.00  0.00    +0.000 A 
ATOM      6  S   UNL     1       1.992  10.094  18.129  0.00  0.00    +0.000 S 
ATOM      7  C   UNL     1       1.095  10.978  19.271  0.00  0.00    +0.000 A 
ATOM      8  N   UNL     1       0.874  12.278  19.006  0.00  0.00    +0.000 NA
ATOM      9  C   UNL     1       0.171  12.871  19.951  0.00  0.00    +0.000 A 
ATOM     10  N   UNL     1      -0.281  12.319  21.085  0.00  0.00    +0.000 NA
ATOM     11  C   UNL     1      -0.076  10.999  21.354  0.00  0.00    +0.000 A 
ATOM     12  N   UNL     1      -0.695  10.500  22.509  0.00  0.00    +0.000 N 
ATOM     13  C   UNL     1       0.102   9.732  23.457  0.00  0.00    +0.000 C 
ATOM     14  C   UNL     1      -1.664  11.397  23.156  0.00  0.00    +0.000 C 
ATOM     15  C   UNL     1       0.667  10.246  20.383  0.00  0.00    +0.000 A 
ATOM     16  C   UNL     1       2.464   7.425  18.617  0.00  0.00    +0.000 A 
ATOM     17  O   UNL     1       3.154   7.335  17.602  0.00  0.00    +0.000 OA
ENDROOT
BRANCH   1  22
ATOM     18  C   UNL     1       4.104   1.061  18.232  0.00  0.00    +0.000 C 
ATOM     19  C   UNL     1       3.615   2.445  18.548  0.00  0.00    +0.000 A 
ATOM     20  C   UNL     1       4.376   3.317  19.342  0.00  0.00    +0.000 A 
ATOM     21  C   UNL     1       3.914   4.606  19.618  0.00  0.00    +0.000 A 
ATOM     22  C   UNL     1       2.674   5.038  19.129  0.00  0.00    +0.000 A 
ATOM     23  C   UNL     1       1.913   4.160  18.343  0.00  0.00    +0.000 A 
ATOM     24  C   UNL     1       2.389   2.883  18.035  0.00  0.00    +0.000 A 
ENDBRANCH   1  22
TORSDOF 1
ENDMDL
MODEL 9
REMARK VINA RESULT:      -6.4      2.055      3.379
REMARK  Name = 
REMARK  4 active torsions:
REMARK  status: ('A' for Active; 'I' for Inactive)
REMARK    1  A    between atoms: C_1  and  C_2
REMARK    2  A    between atoms: C_5  and  N_6
REMARK    3  A    between atoms: N_17  and  C_18
REMARK    4  A    between atoms: N_17  and  C_19
REMARK                            x       y       z     vdW  Elec       q    Type
REMARK                         _______ _______ _______ _____ _____    ______ ____
ROOT
ATOM      1  N   UNL     1       0.072   9.996  20.757  0.00  0.00    +0.000 N 
ATOM      2  C   UNL     1       0.181   8.785  21.451  0.00  0.00    +0.000 A 
ATOM      3  C   UNL     1       0.924   7.752  21.014  0.00  0.00    +0.000 A 
ATOM      4  C   UNL     1       1.661   7.838  19.796  0.00  0.00    +0.000 A 
ATOM      5  C   UNL     1       1.586   9.060  19.132  0.00  0.00    +0.000 A 
ATOM      6  S   UNL     1       2.579   9.122  17.771  0.00  0.00    +0.000 S 
ATOM      7  C   UNL     1       3.079   7.515  18.005  0.00  0.00    +0.000 A 
ATOM      8  N   UNL     1       3.967   7.013  17.128  0.00  0.00    +0.000 NA
ATOM      9  C   UNL     1       4.288   5.763  17.397  0.00  0.00    +0.000 A 
ATOM     10  N   UNL     1       3.808   5.004  18.392  0.00  0.00    +0.000 NA
ATOM     11  C   UNL     1       2.920   5.508  19.295  0.00  0.00    +0.000 A 
ATOM     12  N   UNL     1       2.576   4.666  20.361  0.00  0.00    +0.000 N 
ATOM     13  C   UNL     1       1.166   4.467  20.672  0.00  0.00    +0.000 C 
ATOM     14  C   UNL     1       3.380   3.442  20.496  0.00  0.00    +0.000 C 
ATOM     15  C   UNL     1       2.509   6.872  19.108  0.00  0.00    +0.000 A 
ATOM     16  C   UNL     1       0.769  10.203  19.544  0.00  0.00    +0.000 A 
ATOM     17  O   UNL     1       0.723  11.249  18.898  0.00  0.00    +0.000 OA
ENDROOT
BRANCH   1  22
ATOM     18  C   UNL     1      -3.254  14.141  22.949  0.00  0.00    +0.000 C 
ATOM     19  C   UNL     1      -2.379  13.071  22.362  0.00  0.00    +0.000 A 
ATOM     20  C   UNL     1      -2.438  12.759  20.995  0.00  0.00    +0.000 A 
ATOM     21  C   UNL     1      -1.610  11.769  20.461  0.00  0.00    +0.000 A 
ATOM     22  C   UNL     1      -0.730  11.056  21.284  0.00  0.00    +0.000 A 
ATOM     23  C   UNL     1      -0.682  11.364  22.652  0.00  0.00    +0.000 A 
ATOM     24  C   UNL     1      -1.482  12.379  23.183  0.00  0.00    +0.000 A 
ENDBRANCH   1  22
TORSDOF 1
ENDMDL
