MODEL 1
REMARK VINA RESULT:      -7.5      0.000      0.000
REMARK  Name = 
REMARK  6 active torsions:
REMARK  status: ('A' for Active; 'I' for Inactive)
REMARK    1  A    between atoms: C_1  and  O_2
REMARK    2  A    between atoms: O_2  and  C_3
REMARK    3  A    between atoms: C_6  and  C_7
REMARK    4  A    between atoms: C_7  and  C_9
REMARK    5  A    between atoms: C_9  and  C_10
REMARK    6  A    between atoms: C_10  and  O_11
REMARK                            x       y       z     vdW  Elec       q    Type
REMARK                         _______ _______ _______ _____ _____    ______ ____
ROOT
ATOM      1  C   UNL     1       3.331   3.155  17.724  0.00  0.00    +0.000 C 
ATOM      2  C   UNL     1       3.054   1.906  18.613  0.00  0.00    +0.000 C 
ATOM      3  O   UNL     1       3.743   0.908  18.738  0.00  0.00    +0.000 OA
ATOM      4  N   UNL     1       1.923   2.210  19.387  0.00  0.00    +0.000 N 
ATOM      5  C   UNL     1       1.944   3.600  19.554  0.00  0.00    +0.000 A 
ATOM      6  C   UNL     1       1.194   4.272  20.510  0.00  0.00    +0.000 A 
ATOM      7  C   UNL     1       1.501   5.605  20.722  0.00  0.00    +0.000 A 
ATOM      8  C   UNL     1       2.510   6.229  19.964  0.00  0.00    +0.000 A 
ATOM      9  C   UNL     1       3.186   5.538  18.933  0.00  0.00    +0.000 A 
ATOM     10  C   UNL     1       2.886   4.212  18.708  0.00  0.00    +0.000 A 
ATOM     11  H   UNL     1       1.065   1.937  18.915  0.00  0.00    +0.000 HD
ENDROOT
BRANCH   1  12
ATOM     12  O   UNL     1       2.307   3.102  16.704  0.00  0.00    +0.000 OA
ATOM     13  H   UNL     1       2.705   2.682  15.917  0.00  0.00    +0.000 HD
ENDBRANCH   1  12
BRANCH   1  14
ATOM     14  C   UNL     1       4.711   3.012  17.075  0.00  0.00    +0.000 C 
BRANCH  14  15
ATOM     15  C   UNL     1       5.209   4.236  16.322  0.00  0.00    +0.000 C 
ATOM     16  O   UNL     1       4.789   4.473  15.179  0.00  0.00    +0.000 OA
BRANCH  15  20
ATOM     17  C   UNL     1       7.834   7.045  18.238  0.00  0.00    +0.000 A 
ATOM     18  C   UNL     1       7.101   7.416  17.105  0.00  0.00    +0.000 A 
ATOM     19  C   UNL     1       6.261   6.484  16.483  0.00  0.00    +0.000 A 
ATOM     20  C   UNL     1       6.157   5.175  16.973  0.00  0.00    +0.000 A 
ATOM     21  C   UNL     1       6.955   4.795  18.054  0.00  0.00    +0.000 A 
ATOM     22  C   UNL     1       7.778   5.728  18.694  0.00  0.00    +0.000 A 
BRANCH  17  24
ATOM     23  C   UNL     1       8.444   9.327  18.230  0.00  0.00    +0.000 C 
ATOM     24  O   UNL     1       8.600   8.031  18.796  0.00  0.00    +0.000 OA
ENDBRANCH  17  24
ENDBRANCH  15  20
ENDBRANCH  14  15
ENDBRANCH   1  14
TORSDOF 5
ENDMDL
MODEL 2
REMARK VINA RESULT:      -7.4      0.185      1.033
REMARK  Name = 
REMARK  6 active torsions:
REMARK  status: ('A' for Active; 'I' for Inactive)
REMARK    1  A    between atoms: C_1  and  O_2
REMARK    2  A    between atoms: O_2  and  C_3
REMARK    3  A    between atoms: C_6  and  C_7
REMARK    4  A    between atoms: C_7  and  C_9
REMARK    5  A    between atoms: C_9  and  C_10
REMARK    6  A    between atoms: C_10  and  O_11
REMARK                            x       y       z     vdW  Elec       q    Type
REMARK                         _______ _______ _______ _____ _____    ______ ____
ROOT
ATOM      1  C   UNL     1       3.338   3.218  17.720  0.00  0.00    +0.000 C 
ATOM      2  C   UNL     1       3.013   1.945  18.556  0.00  0.00    +0.000 C 
ATOM      3  O   UNL     1       3.679   0.929  18.665  0.00  0.00    +0.000 OA
ATOM      4  N   UNL     1       1.865   2.243  19.307  0.00  0.00    +0.000 N 
ATOM      5  C   UNL     1       1.907   3.626  19.524  0.00  0.00    +0.000 A 
ATOM      6  C   UNL     1       1.141   4.280  20.481  0.00  0.00    +0.000 A 
ATOM      7  C   UNL     1       1.467   5.598  20.748  0.00  0.00    +0.000 A 
ATOM      8  C   UNL     1       2.509   6.228  20.042  0.00  0.00    +0.000 A 
ATOM      9  C   UNL     1       3.202   5.560  19.007  0.00  0.00    +0.000 A 
ATOM     10  C   UNL     1       2.884   4.249  18.727  0.00  0.00    +0.000 A 
ATOM     11  H   UNL     1       1.016   2.003  18.802  0.00  0.00    +0.000 HD
ENDROOT
BRANCH   1  12
ATOM     12  O   UNL     1       2.343   3.219  16.669  0.00  0.00    +0.000 OA
ATOM     13  H   UNL     1       2.820   3.155  15.819  0.00  0.00    +0.000 HD
ENDBRANCH   1  12
BRANCH   1  14
ATOM     14  C   UNL     1       4.734   3.070  17.105  0.00  0.00    +0.000 C 
BRANCH  14  15
ATOM     15  C   UNL     1       5.221   4.262  16.297  0.00  0.00    +0.000 C 
ATOM     16  O   UNL     1       4.896   4.377  15.105  0.00  0.00    +0.000 OA
BRANCH  15  20
ATOM     17  C   UNL     1       7.717   7.247  18.118  0.00  0.00    +0.000 A 
ATOM     18  C   UNL     1       7.824   5.903  18.495  0.00  0.00    +0.000 A 
ATOM     19  C   UNL     1       6.993   4.945  17.903  0.00  0.00    +0.000 A 
ATOM     20  C   UNL     1       6.040   5.317  16.946  0.00  0.00    +0.000 A 
ATOM     21  C   UNL     1       5.888   6.671  16.638  0.00  0.00    +0.000 A 
ATOM     22  C   UNL     1       6.731   7.630  17.208  0.00  0.00    +0.000 A 
BRANCH  17  24
ATOM     23  C   UNL     1       8.540   9.455  18.282  0.00  0.00    +0.000 C 
ATOM     24  O   UNL     1       8.592   8.104  18.726  0.00  0.00    +0.000 OA
ENDBRANCH  17  24
ENDBRANCH  15  20
ENDBRANCH  14  15
ENDBRANCH   1  14
TORSDOF 5
ENDMDL
MODEL 3
REMARK VINA RESULT:      -7.3      2.579      4.466
REMARK  Name = 
REMARK  6 active torsions:
REMARK  status: ('A' for Active; 'I' for Inactive)
REMARK    1  A    between atoms: C_1  and  O_2
REMARK    2  A    between atoms: O_2  and  C_3
REMARK    3  A    between atoms: C_6  and  C_7
REMARK    4  A    between atoms: C_7  and  C_9
REMARK    5  A    between atoms: C_9  and  C_10
REMARK    6  A    between atoms: C_10  and  O_11
REMARK                            x       y       z     vdW  Elec       q    Type
REMARK                         _______ _______ _______ _____ _____    ______ ____
ROOT
ATOM      1  C   UNL     1       3.614   5.721  18.947  0.00  0.00    +0.000 C 
ATOM      2  C   UNL     1       2.586   6.627  19.688  0.00  0.00    +0.000 C 
ATOM      3  O   UNL     1       2.347   7.806  19.490  0.00  0.00    +0.000 OA
ATOM      4  N   UNL     1       1.852   5.785  20.538  0.00  0.00    +0.000 N 
ATOM      5  C   UNL     1       1.847   4.532  19.913  0.00  0.00    +0.000 A 
ATOM      6  C   UNL     1       0.974   3.505  20.252  0.00  0.00    +0.000 A 
ATOM      7  C   UNL     1       0.920   2.423  19.391  0.00  0.00    +0.000 A 
ATOM      8  C   UNL     1       1.745   2.380  18.252  0.00  0.00    +0.000 A 
ATOM      9  C   UNL     1       2.690   3.398  17.992  0.00  0.00    +0.000 A 
ATOM     10  C   UNL     1       2.759   4.479  18.844  0.00  0.00    +0.000 A 
ATOM     11  H   UNL     1       2.287   5.707  21.453  0.00  0.00    +0.000 HD
ENDROOT
BRANCH   1  12
ATOM     12  O   UNL     1       4.620   5.432  19.946  0.00  0.00    +0.000 OA
ATOM     13  H   UNL     1       4.153   5.270  20.788  0.00  0.00    +0.000 HD
ENDBRANCH   1  12
BRANCH   1  14
ATOM     14  C   UNL     1       4.244   6.515  17.798  0.00  0.00    +0.000 C 
BRANCH  14  15
ATOM     15  C   UNL     1       5.633   6.063  17.377  0.00  0.00    +0.000 C 
ATOM     16  O   UNL     1       6.593   6.210  18.150  0.00  0.00    +0.000 OA
BRANCH  15  20
ATOM     17  C   UNL     1       6.322   4.054  13.643  0.00  0.00    +0.000 A 
ATOM     18  C   UNL     1       7.337   4.808  14.243  0.00  0.00    +0.000 A 
ATOM     19  C   UNL     1       7.093   5.469  15.452  0.00  0.00    +0.000 A 
ATOM     20  C   UNL     1       5.834   5.399  16.064  0.00  0.00    +0.000 A 
ATOM     21  C   UNL     1       4.807   4.711  15.415  0.00  0.00    +0.000 A 
ATOM     22  C   UNL     1       5.052   4.028  14.219  0.00  0.00    +0.000 A 
BRANCH  17  24
ATOM     23  C   UNL     1       5.606   2.741  11.815  0.00  0.00    +0.000 C 
ATOM     24  O   UNL     1       6.665   3.418  12.482  0.00  0.00    +0.000 OA
ENDBRANCH  17  24
ENDBRANCH  15  20
ENDBRANCH  14  15
ENDBRANCH   1  14
TORSDOF 5
ENDMDL
MODEL 4
REMARK VINA RESULT:      -7.3      3.255      5.542
REMARK  Name = 
REMARK  6 active torsions:
REMARK  status: ('A' for Active; 'I' for Inactive)
REMARK    1  A    between atoms: C_1  and  O_2
REMARK    2  A    between atoms: O_2  and  C_3
REMARK    3  A    between atoms: C_6  and  C_7
REMARK    4  A    between atoms: C_7  and  C_9
REMARK    5  A    between atoms: C_9  and  C_10
REMARK    6  A    between atoms: C_10  and  O_11
REMARK                            x       y       z     vdW  Elec       q    Type
REMARK                         _______ _______ _______ _____ _____    ______ ____
ROOT
ATOM      1  C   UNL     1       4.199   5.321  18.166  0.00  0.00    +0.000 C 
ATOM      2  C   UNL     1       5.372   4.585  18.880  0.00  0.00    +0.000 C 
ATOM      3  O   UNL     1       6.237   5.067  19.590  0.00  0.00    +0.000 OA
ATOM      4  N   UNL     1       5.158   3.211  18.686  0.00  0.00    +0.000 N 
ATOM      5  C   UNL     1       3.771   3.058  18.576  0.00  0.00    +0.000 A 
ATOM      6  C   UNL     1       3.118   1.838  18.695  0.00  0.00    +0.000 A 
ATOM      7  C   UNL     1       1.739   1.876  18.811  0.00  0.00    +0.000 A 
ATOM      8  C   UNL     1       1.057   3.106  18.773  0.00  0.00    +0.000 A 
ATOM      9  C   UNL     1       1.747   4.320  18.554  0.00  0.00    +0.000 A 
ATOM     10  C   UNL     1       3.120   4.297  18.431  0.00  0.00    +0.000 A 
ATOM     11  H   UNL     1       5.605   2.881  17.835  0.00  0.00    +0.000 HD
ENDROOT
BRANCH   1  12
ATOM     12  O   UNL     1       4.514   5.214  16.758  0.00  0.00    +0.000 OA
ATOM     13  H   UNL     1       4.368   4.284  16.499  0.00  0.00    +0.000 HD
ENDBRANCH   1  12
BRANCH   1  14
ATOM     14  C   UNL     1       4.205   6.795  18.583  0.00  0.00    +0.000 C 
BRANCH  14  15
ATOM     15  C   UNL     1       3.075   7.639  18.014  0.00  0.00    +0.000 C 
ATOM     16  O   UNL     1       2.966   7.781  16.786  0.00  0.00    +0.000 OA
BRANCH  15  20
ATOM     17  C   UNL     1       0.286   9.438  20.741  0.00  0.00    +0.000 A 
ATOM     18  C   UNL     1       0.996   8.289  21.106  0.00  0.00    +0.000 A 
ATOM     19  C   UNL     1       1.890   7.705  20.200  0.00  0.00    +0.000 A 
ATOM     20  C   UNL     1       2.072   8.251  18.922  0.00  0.00    +0.000 A 
ATOM     21  C   UNL     1       1.299   9.349  18.542  0.00  0.00    +0.000 A 
ATOM     22  C   UNL     1       0.421   9.951  19.451  0.00  0.00    +0.000 A 
BRANCH  17  24
ATOM     23  C   UNL     1      -0.227   9.589  23.042  0.00  0.00    +0.000 C 
ATOM     24  O   UNL     1      -0.538   9.955  21.703  0.00  0.00    +0.000 OA
ENDBRANCH  17  24
ENDBRANCH  15  20
ENDBRANCH  14  15
ENDBRANCH   1  14
TORSDOF 5
ENDMDL
MODEL 5
REMARK VINA RESULT:      -7.2      2.327      3.331
REMARK  Name = 
REMARK  6 active torsions:
REMARK  status: ('A' for Active; 'I' for Inactive)
REMARK    1  A    between atoms: C_1  and  O_2
REMARK    2  A    between atoms: O_2  and  C_3
REMARK    3  A    between atoms: C_6  and  C_7
REMARK    4  A    between atoms: C_7  and  C_9
REMARK    5  A    between atoms: C_9  and  C_10
REMARK    6  A    between atoms: C_10  and  O_11
REMARK                            x       y       z     vdW  Elec       q    Type
REMARK                         _______ _______ _______ _____ _____    ______ ____
ROOT
ATOM      1  C   UNL     1       2.536   3.901  18.942  0.00  0.00    +0.000 C 
ATOM      2  C   UNL     1       2.535   3.567  20.463  0.00  0.00    +0.000 C 
ATOM      3  O   UNL     1       3.212   2.740  21.049  0.00  0.00    +0.000 OA
ATOM      4  N   UNL     1       1.711   4.522  21.081  0.00  0.00    +0.000 N 
ATOM      5  C   UNL     1       1.805   5.671  20.286  0.00  0.00    +0.000 A 
ATOM      6  C   UNL     1       1.406   6.933  20.706  0.00  0.00    +0.000 A 
ATOM      7  C   UNL     1       1.785   8.003  19.914  0.00  0.00    +0.000 A 
ATOM      8  C   UNL     1       2.512   7.787  18.729  0.00  0.00    +0.000 A 
ATOM      9  C   UNL     1       2.817   6.480  18.284  0.00  0.00    +0.000 A 
ATOM     10  C   UNL     1       2.440   5.405  19.059  0.00  0.00    +0.000 A 
ATOM     11  H   UNL     1       0.744   4.211  21.117  0.00  0.00    +0.000 HD
ENDROOT
BRANCH   1  12
ATOM     12  O   UNL     1       1.240   3.454  18.477  0.00  0.00    +0.000 OA
ATOM     13  H   UNL     1       1.376   3.029  17.609  0.00  0.00    +0.000 HD
ENDBRANCH   1  12
BRANCH   1  14
ATOM     14  C   UNL     1       3.637   3.090  18.252  0.00  0.00    +0.000 C 
BRANCH  14  15
ATOM     15  C   UNL     1       5.012   3.740  18.234  0.00  0.00    +0.000 C 
ATOM     16  O   UNL     1       5.651   3.865  19.290  0.00  0.00    +0.000 OA
BRANCH  15  20
ATOM     17  C   UNL     1       6.864   4.906  14.538  0.00  0.00    +0.000 A 
ATOM     18  C   UNL     1       7.512   5.126  15.758  0.00  0.00    +0.000 A 
ATOM     19  C   UNL     1       6.889   4.755  16.955  0.00  0.00    +0.000 A 
ATOM     20  C   UNL     1       5.613   4.176  16.948  0.00  0.00    +0.000 A 
ATOM     21  C   UNL     1       4.943   4.036  15.730  0.00  0.00    +0.000 A 
ATOM     22  C   UNL     1       5.570   4.384  14.529  0.00  0.00    +0.000 A 
BRANCH  17  24
ATOM     23  C   UNL     1       7.267   4.536  12.239  0.00  0.00    +0.000 C 
ATOM     24  O   UNL     1       7.565   5.271  13.421  0.00  0.00    +0.000 OA
ENDBRANCH  17  24
ENDBRANCH  15  20
ENDBRANCH  14  15
ENDBRANCH   1  14
TORSDOF 5
ENDMDL
MODEL 6
REMARK VINA RESULT:      -7.2      3.096      6.202
REMARK  Name = 
REMARK  6 active torsions:
REMARK  status: ('A' for Active; 'I' for Inactive)
REMARK    1  A    between atoms: C_1  and  O_2
REMARK    2  A    between atoms: O_2  and  C_3
REMARK    3  A    between atoms: C_6  and  C_7
REMARK    4  A    between atoms: C_7  and  C_9
REMARK    5  A    between atoms: C_9  and  C_10
REMARK    6  A    between atoms: C_10  and  O_11
REMARK                            x       y       z     vdW  Elec       q    Type
REMARK                         _______ _______ _______ _____ _____    ______ ____
ROOT
ATOM      1  C   UNL     1       5.489   4.749  16.149  0.00  0.00    +0.000 C 
ATOM      2  C   UNL     1       6.966   4.978  16.585  0.00  0.00    +0.000 C 
ATOM      3  O   UNL     1       7.490   4.677  17.643  0.00  0.00    +0.000 OA
ATOM      4  N   UNL     1       7.646   5.461  15.455  0.00  0.00    +0.000 N 
ATOM      5  C   UNL     1       6.978   4.914  14.352  0.00  0.00    +0.000 A 
ATOM      6  C   UNL     1       7.510   4.878  13.069  0.00  0.00    +0.000 A 
ATOM      7  C   UNL     1       6.848   4.094  12.141  0.00  0.00    +0.000 A 
ATOM      8  C   UNL     1       5.677   3.402  12.503  0.00  0.00    +0.000 A 
ATOM      9  C   UNL     1       5.112   3.540  13.791  0.00  0.00    +0.000 A 
ATOM     10  C   UNL     1       5.757   4.323  14.724  0.00  0.00    +0.000 A 
ATOM     11  H   UNL     1       7.612   6.476  15.405  0.00  0.00    +0.000 HD
ENDROOT
BRANCH   1  12
ATOM     12  O   UNL     1       4.929   6.081  16.069  0.00  0.00    +0.000 OA
ATOM     13  H   UNL     1       5.666   6.711  16.189  0.00  0.00    +0.000 HD
ENDBRANCH   1  12
BRANCH   1  14
ATOM     14  C   UNL     1       4.763   3.952  17.237  0.00  0.00    +0.000 C 
BRANCH  14  15
ATOM     15  C   UNL     1       3.267   4.202  17.341  0.00  0.00    +0.000 C 
ATOM     16  O   UNL     1       2.481   3.558  16.629  0.00  0.00    +0.000 OA
BRANCH  15  20
ATOM     17  C   UNL     1       1.854   6.977  20.300  0.00  0.00    +0.000 A 
ATOM     18  C   UNL     1       1.797   5.598  20.534  0.00  0.00    +0.000 A 
ATOM     19  C   UNL     1       2.247   4.706  19.553  0.00  0.00    +0.000 A 
ATOM     20  C   UNL     1       2.742   5.177  18.330  0.00  0.00    +0.000 A 
ATOM     21  C   UNL     1       2.718   6.551  18.077  0.00  0.00    +0.000 A 
ATOM     22  C   UNL     1       2.292   7.449  19.062  0.00  0.00    +0.000 A 
BRANCH  17  24
ATOM     23  C   UNL     1       0.835   9.008  20.946  0.00  0.00    +0.000 C 
ATOM     24  O   UNL     1       1.423   7.770  21.328  0.00  0.00    +0.000 OA
ENDBRANCH  17  24
ENDBRANCH  15  20
ENDBRANCH  14  15
ENDBRANCH   1  14
TORSDOF 5
ENDMDL
MODEL 7
REMARK VINA RESULT:      -7.1      1.748      2.902
REMARK  Name = 
REMARK  6 active torsions:
REMARK  status: ('A' for Active; 'I' for Inactive)
REMARK    1  A    between atoms: C_1  and  O_2
REMARK    2  A    between atoms: O_2  and  C_3
REMARK    3  A    between atoms: C_6  and  C_7
REMARK    4  A    between atoms: C_7  and  C_9
REMARK    5  A    between atoms: C_9  and  C_10
REMARK    6  A    between atoms: C_10  and  O_11
REMARK                            x       y       z     vdW  Elec       q    Type
REMARK                         _______ _______ _______ _____ _____    ______ ____
ROOT
ATOM      1  C   UNL     1       1.642   3.485  19.445  0.00  0.00    +0.000 C 
ATOM      2  C   UNL     1       2.335   3.439  20.839  0.00  0.00    +0.000 C 
ATOM      3  O   UNL     1       3.053   2.564  21.290  0.00  0.00    +0.000 OA
ATOM      4  N   UNL     1       2.110   4.689  21.438  0.00  0.00    +0.000 N 
ATOM      5  C   UNL     1       2.001   5.599  20.379  0.00  0.00    +0.000 A 
ATOM      6  C   UNL     1       2.094   6.976  20.534  0.00  0.00    +0.000 A 
ATOM      7  C   UNL     1       2.215   7.728  19.378  0.00  0.00    +0.000 A 
ATOM      8  C   UNL     1       2.208   7.099  18.119  0.00  0.00    +0.000 A 
ATOM      9  C   UNL     1       2.014   5.705  17.997  0.00  0.00    +0.000 A 
ATOM     10  C   UNL     1       1.886   4.944  19.139  0.00  0.00    +0.000 A 
ATOM     11  H   UNL     1       1.250   4.693  21.980  0.00  0.00    +0.000 HD
ENDROOT
BRANCH   1  12
ATOM     12  O   UNL     1       0.230   3.370  19.744  0.00  0.00    +0.000 OA
ATOM     13  H   UNL     1      -0.256   3.779  19.002  0.00  0.00    +0.000 HD
ENDBRANCH   1  12
BRANCH   1  14
ATOM     14  C   UNL     1       2.092   2.274  18.622  0.00  0.00    +0.000 C 
BRANCH  14  15
ATOM     15  C   UNL     1       3.595   2.127  18.446  0.00  0.00    +0.000 C 
ATOM     16  O   UNL     1       4.136   1.026  18.632  0.00  0.00    +0.000 OA
BRANCH  15  20
ATOM     17  C   UNL     1       5.823   5.548  17.110  0.00  0.00    +0.000 A 
ATOM     18  C   UNL     1       5.097   4.774  16.199  0.00  0.00    +0.000 A 
ATOM     19  C   UNL     1       4.388   3.652  16.648  0.00  0.00    +0.000 A 
ATOM     20  C   UNL     1       4.410   3.286  18.000  0.00  0.00    +0.000 A 
ATOM     21  C   UNL     1       5.203   4.020  18.884  0.00  0.00    +0.000 A 
ATOM     22  C   UNL     1       5.894   5.155  18.447  0.00  0.00    +0.000 A 
BRANCH  17  24
ATOM     23  C   UNL     1       7.406   7.271  17.436  0.00  0.00    +0.000 C 
ATOM     24  O   UNL     1       6.455   6.642  16.585  0.00  0.00    +0.000 OA
ENDBRANCH  17  24
ENDBRANCH  15  20
ENDBRANCH  14  15
ENDBRANCH   1  14
TORSDOF 5
ENDMDL
MODEL 8
REMARK VINA RESULT:      -7.1      1.761      3.049
REMARK  Name = 
REMARK  6 active torsions:
REMARK  status: ('A' for Active; 'I' for Inactive)
REMARK    1  A    between atoms: C_1  and  O_2
REMARK    2  A    between atoms: O_2  and  C_3
REMARK    3  A    between atoms: C_6  and  C_7
REMARK    4  A    between atoms: C_7  and  C_9
REMARK    5  A    between atoms: C_9  and  C_10
REMARK    6  A    between atoms: C_10  and  O_11
REMARK                            x       y       z     vdW  Elec       q    Type
REMARK                         _______ _______ _______ _____ _____    ______ ____
ROOT
ATOM      1  C   UNL     1       1.701   3.424  19.575  0.00  0.00    +0.000 C 
ATOM      2  C   UNL     1       2.407   3.442  20.964  0.00  0.00    +0.000 C 
ATOM      3  O   UNL     1       3.150   2.600  21.438  0.00  0.00    +0.000 OA
ATOM      4  N   UNL     1       2.158   4.707  21.522  0.00  0.00    +0.000 N 
ATOM      5  C   UNL     1       2.018   5.577  20.434  0.00  0.00    +0.000 A 
ATOM      6  C   UNL     1       2.081   6.960  20.540  0.00  0.00    +0.000 A 
ATOM      7  C   UNL     1       2.173   7.674  19.358  0.00  0.00    +0.000 A 
ATOM      8  C   UNL     1       2.170   7.003  18.121  0.00  0.00    +0.000 A 
ATOM      9  C   UNL     1       2.008   5.601  18.049  0.00  0.00    +0.000 A 
ATOM     10  C   UNL     1       1.909   4.877  19.218  0.00  0.00    +0.000 A 
ATOM     11  H   UNL     1       1.303   4.709  22.072  0.00  0.00    +0.000 HD
ENDROOT
BRANCH   1  12
ATOM     12  O   UNL     1       0.295   3.287  19.891  0.00  0.00    +0.000 OA
ATOM     13  H   UNL     1       0.220   3.254  20.864  0.00  0.00    +0.000 HD
ENDBRANCH   1  12
BRANCH   1  14
ATOM     14  C   UNL     1       2.173   2.196  18.790  0.00  0.00    +0.000 C 
BRANCH  14  15
ATOM     15  C   UNL     1       3.673   2.106  18.560  0.00  0.00    +0.000 C 
ATOM     16  O   UNL     1       4.277   1.052  18.816  0.00  0.00    +0.000 OA
BRANCH  15  20
ATOM     17  C   UNL     1       5.931   5.375  16.926  0.00  0.00    +0.000 A 
ATOM     18  C   UNL     1       5.963   5.105  18.299  0.00  0.00    +0.000 A 
ATOM     19  C   UNL     1       5.209   4.046  18.818  0.00  0.00    +0.000 A 
ATOM     20  C   UNL     1       4.409   3.258  17.980  0.00  0.00    +0.000 A 
ATOM     21  C   UNL     1       4.323   3.588  16.626  0.00  0.00    +0.000 A 
ATOM     22  C   UNL     1       5.092   4.631  16.097  0.00  0.00    +0.000 A 
BRANCH  17  24
ATOM     23  C   UNL     1       7.493   7.044  17.522  0.00  0.00    +0.000 C 
ATOM     24  O   UNL     1       6.725   6.407  16.508  0.00  0.00    +0.000 OA
ENDBRANCH  17  24
ENDBRANCH  15  20
ENDBRANCH  14  15
ENDBRANCH   1  14
TORSDOF 5
ENDMDL
MODEL 9
REMARK VINA RESULT:      -7.1      3.151      5.561
REMARK  Name = 
REMARK  6 active torsions:
REMARK  status: ('A' for Active; 'I' for Inactive)
REMARK    1  A    between atoms: C_1  and  O_2
REMARK    2  A    between atoms: O_2  and  C_3
REMARK    3  A    between atoms: C_6  and  C_7
REMARK    4  A    between atoms: C_7  and  C_9
REMARK    5  A    between atoms: C_9  and  C_10
REMARK    6  A    between atoms: C_10  and  O_11
REMARK                            x       y       z     vdW  Elec       q    Type
REMARK                         _______ _______ _______ _____ _____    ______ ____
ROOT
ATOM      1  C   UNL     1       3.479   4.285  18.410  0.00  0.00    +0.000 C 
ATOM      2  C   UNL     1       3.367   2.830  17.865  0.00  0.00    +0.000 C 
ATOM      3  O   UNL     1       2.391   2.100  17.876  0.00  0.00    +0.000 OA
ATOM      4  N   UNL     1       4.572   2.559  17.199  0.00  0.00    +0.000 N 
ATOM      5  C   UNL     1       5.027   3.796  16.726  0.00  0.00    +0.000 A 
ATOM      6  C   UNL     1       6.007   3.935  15.751  0.00  0.00    +0.000 A 
ATOM      7  C   UNL     1       6.175   5.198  15.211  0.00  0.00    +0.000 A 
ATOM      8  C   UNL     1       5.396   6.276  15.671  0.00  0.00    +0.000 A 
ATOM      9  C   UNL     1       4.476   6.116  16.732  0.00  0.00    +0.000 A 
ATOM     10  C   UNL     1       4.303   4.865  17.284  0.00  0.00    +0.000 A 
ATOM     11  H   UNL     1       5.264   2.160  17.828  0.00  0.00    +0.000 HD
ENDROOT
BRANCH   1  12
ATOM     12  O   UNL     1       4.373   4.174  19.543  0.00  0.00    +0.000 OA
ATOM     13  H   UNL     1       4.775   5.054  19.680  0.00  0.00    +0.000 HD
ENDBRANCH   1  12
BRANCH   1  14
ATOM     14  C   UNL     1       2.100   4.749  18.888  0.00  0.00    +0.000 C 
BRANCH  14  15
ATOM     15  C   UNL     1       2.102   5.641  20.120  0.00  0.00    +0.000 C 
ATOM     16  O   UNL     1       2.401   5.167  21.227  0.00  0.00    +0.000 OA
BRANCH  15  20
ATOM     17  C   UNL     1       1.123   9.795  19.638  0.00  0.00    +0.000 A 
ATOM     18  C   UNL     1       1.721   9.080  18.594  0.00  0.00    +0.000 A 
ATOM     19  C   UNL     1       2.048   7.731  18.772  0.00  0.00    +0.000 A 
ATOM     20  C   UNL     1       1.797   7.088  19.992  0.00  0.00    +0.000 A 
ATOM     21  C   UNL     1       1.275   7.834  21.051  0.00  0.00    +0.000 A 
ATOM     22  C   UNL     1       0.924   9.176  20.872  0.00  0.00    +0.000 A 
BRANCH  17  24
ATOM     23  C   UNL     1      -0.413  11.300  18.660  0.00  0.00    +0.000 C 
ATOM     24  O   UNL     1       0.809  11.097  19.359  0.00  0.00    +0.000 OA
ENDBRANCH  17  24
ENDBRANCH  15  20
ENDBRANCH  14  15
ENDBRANCH   1  14
TORSDOF 5
ENDMDL
