MODEL 1
REMARK VINA RESULT:      -6.3      0.000      0.000
REMARK  Name = 
REMARK  4 active torsions:
REMARK  status: ('A' for Active; 'I' for Inactive)
REMARK    1  A    between atoms: C_1  and  C_2
REMARK    2  A    between atoms: C_2  and  C_3
REMARK    3  A    between atoms: C_8  and  S_9
REMARK    4  A    between atoms: S_9  and  C_12
REMARK                            x       y       z     vdW  Elec       q    Type
REMARK                         _______ _______ _______ _____ _____    ______ ____
ROOT
ATOM      1  C   UNL     1       3.063   5.685  17.808  0.00  0.00    +0.000 A 
ATOM      2  C   UNL     1       1.987   4.877  18.237  0.00  0.00    +0.000 A 
ATOM      3  C   UNL     1       1.997   3.491  18.075  0.00  0.00    +0.000 A 
ATOM      4  C   UNL     1       3.087   2.879  17.471  0.00  0.00    +0.000 A 
ATOM      5  C   UNL     1       4.159   3.653  17.036  0.00  0.00    +0.000 A 
ATOM      6  C   UNL     1       4.153   5.059  17.165  0.00  0.00    +0.000 A 
ENDROOT
BRANCH   6   7
ATOM      7  S   UNL     1       5.645   5.898  16.628  0.00  0.00    +0.000 S 
ATOM      8  O   UNL     1       5.332   6.804  15.538  0.00  0.00    +0.000 OA
ATOM      9  O   UNL     1       6.292   6.401  17.826  0.00  0.00    +0.000 OA
BRANCH   7  10
ATOM     10  C   UNL     1       6.812   4.730  15.882  0.00  0.00    +0.000 C 
ATOM     11  C   UNL     1       6.595   4.423  14.427  0.00  0.00    +0.000 C 
ATOM     12  O   UNL     1       7.626   5.322  14.867  0.00  0.00    +0.000 OA
ENDBRANCH   7  10
ENDBRANCH   6   7
BRANCH   1  14
ATOM     13  C   UNL     1       2.284   7.414  19.457  0.00  0.00    +0.000 C 
ATOM     14  C   UNL     1       2.928   7.161  18.102  0.00  0.00    +0.000 C 
ENDBRANCH   1  14
TORSDOF 3
ENDMDL
MODEL 2
REMARK VINA RESULT:      -6.3      2.290      3.422
REMARK  Name = 
REMARK  4 active torsions:
REMARK  status: ('A' for Active; 'I' for Inactive)
REMARK    1  A    between atoms: C_1  and  C_2
REMARK    2  A    between atoms: C_2  and  C_3
REMARK    3  A    between atoms: C_8  and  S_9
REMARK    4  A    between atoms: S_9  and  C_12
REMARK                            x       y       z     vdW  Elec       q    Type
REMARK                         _______ _______ _______ _____ _____    ______ ____
ROOT
ATOM      1  C   UNL     1       4.705   4.178  16.890  0.00  0.00    +0.000 A 
ATOM      2  C   UNL     1       3.486   3.465  16.859  0.00  0.00    +0.000 A 
ATOM      3  C   UNL     1       2.942   2.887  18.007  0.00  0.00    +0.000 A 
ATOM      4  C   UNL     1       3.613   3.004  19.217  0.00  0.00    +0.000 A 
ATOM      5  C   UNL     1       4.817   3.699  19.273  0.00  0.00    +0.000 A 
ATOM      6  C   UNL     1       5.397   4.265  18.118  0.00  0.00    +0.000 A 
ENDROOT
BRANCH   6   7
ATOM      7  S   UNL     1       6.909   5.195  18.377  0.00  0.00    +0.000 S 
ATOM      8  O   UNL     1       7.091   5.449  19.795  0.00  0.00    +0.000 OA
ATOM      9  O   UNL     1       7.947   4.516  17.623  0.00  0.00    +0.000 OA
BRANCH   7  10
ATOM     10  C   UNL     1       6.779   6.856  17.666  0.00  0.00    +0.000 C 
ATOM     11  C   UNL     1       7.960   7.759  17.882  0.00  0.00    +0.000 C 
ATOM     12  O   UNL     1       7.731   7.098  16.628  0.00  0.00    +0.000 OA
ENDBRANCH   7  10
ENDBRANCH   6   7
BRANCH   1  14
ATOM     13  C   UNL     1       6.063   3.872  14.797  0.00  0.00    +0.000 C 
ATOM     14  C   UNL     1       5.135   4.791  15.577  0.00  0.00    +0.000 C 
ENDBRANCH   1  14
TORSDOF 3
ENDMDL
MODEL 3
REMARK VINA RESULT:      -6.1      1.521      2.127
REMARK  Name = 
REMARK  4 active torsions:
REMARK  status: ('A' for Active; 'I' for Inactive)
REMARK    1  A    between atoms: C_1  and  C_2
REMARK    2  A    between atoms: C_2  and  C_3
REMARK    3  A    between atoms: C_8  and  S_9
REMARK    4  A    between atoms: S_9  and  C_12
REMARK                            x       y       z     vdW  Elec       q    Type
REMARK                         _______ _______ _______ _____ _____    ______ ____
ROOT
ATOM      1  C   UNL     1       3.395   5.871  17.601  0.00  0.00    +0.000 A 
ATOM      2  C   UNL     1       2.139   5.395  18.037  0.00  0.00    +0.000 A 
ATOM      3  C   UNL     1       1.806   4.041  17.982  0.00  0.00    +0.000 A 
ATOM      4  C   UNL     1       2.725   3.129  17.482  0.00  0.00    +0.000 A 
ATOM      5  C   UNL     1       3.969   3.572  17.043  0.00  0.00    +0.000 A 
ATOM      6  C   UNL     1       4.312   4.941  17.064  0.00  0.00    +0.000 A 
ENDROOT
BRANCH   6   7
ATOM      7  S   UNL     1       5.982   5.336  16.539  0.00  0.00    +0.000 S 
ATOM      8  O   UNL     1       6.664   4.124  16.122  0.00  0.00    +0.000 OA
ATOM      9  O   UNL     1       5.875   6.459  15.626  0.00  0.00    +0.000 OA
BRANCH   7  10
ATOM     10  C   UNL     1       6.979   5.919  17.935  0.00  0.00    +0.000 C 
ATOM     11  C   UNL     1       6.602   5.376  19.285  0.00  0.00    +0.000 C 
ATOM     12  O   UNL     1       7.736   4.879  18.556  0.00  0.00    +0.000 OA
ENDBRANCH   7  10
ENDBRANCH   6   7
BRANCH   1  14
ATOM     13  C   UNL     1       2.321   8.117  17.942  0.00  0.00    +0.000 C 
ATOM     14  C   UNL     1       3.626   7.354  17.774  0.00  0.00    +0.000 C 
ENDBRANCH   1  14
TORSDOF 3
ENDMDL
MODEL 4
REMARK VINA RESULT:      -6.0      1.303      2.733
REMARK  Name = 
REMARK  4 active torsions:
REMARK  status: ('A' for Active; 'I' for Inactive)
REMARK    1  A    between atoms: C_1  and  C_2
REMARK    2  A    between atoms: C_2  and  C_3
REMARK    3  A    between atoms: C_8  and  S_9
REMARK    4  A    between atoms: S_9  and  C_12
REMARK                            x       y       z     vdW  Elec       q    Type
REMARK                         _______ _______ _______ _____ _____    ______ ____
ROOT
ATOM      1  C   UNL     1       4.159   4.748  17.846  0.00  0.00    +0.000 A 
ATOM      2  C   UNL     1       2.831   5.173  18.075  0.00  0.00    +0.000 A 
ATOM      3  C   UNL     1       2.466   6.517  17.991  0.00  0.00    +0.000 A 
ATOM      4  C   UNL     1       3.425   7.471  17.683  0.00  0.00    +0.000 A 
ATOM      5  C   UNL     1       4.741   7.079  17.456  0.00  0.00    +0.000 A 
ATOM      6  C   UNL     1       5.136   5.728  17.564  0.00  0.00    +0.000 A 
ENDROOT
BRANCH   6   7
ATOM      7  S   UNL     1       6.849   5.380  17.162  0.00  0.00    +0.000 S 
ATOM      8  O   UNL     1       7.534   6.615  16.827  0.00  0.00    +0.000 OA
ATOM      9  O   UNL     1       7.360   4.532  18.224  0.00  0.00    +0.000 OA
BRANCH   7  10
ATOM     10  C   UNL     1       6.973   4.406  15.640  0.00  0.00    +0.000 C 
ATOM     11  C   UNL     1       6.065   4.822  14.517  0.00  0.00    +0.000 C 
ATOM     12  O   UNL     1       7.462   5.160  14.529  0.00  0.00    +0.000 OA
ENDBRANCH   7  10
ENDBRANCH   6   7
BRANCH   1  14
ATOM     13  C   UNL     1       4.168   2.715  19.324  0.00  0.00    +0.000 C 
ATOM     14  C   UNL     1       4.387   3.256  17.919  0.00  0.00    +0.000 C 
ENDBRANCH   1  14
TORSDOF 3
ENDMDL
MODEL 5
REMARK VINA RESULT:      -6.0      0.943      1.106
REMARK  Name = 
REMARK  4 active torsions:
REMARK  status: ('A' for Active; 'I' for Inactive)
REMARK    1  A    between atoms: C_1  and  C_2
REMARK    2  A    between atoms: C_2  and  C_3
REMARK    3  A    between atoms: C_8  and  S_9
REMARK    4  A    between atoms: S_9  and  C_12
REMARK                            x       y       z     vdW  Elec       q    Type
REMARK                         _______ _______ _______ _____ _____    ______ ____
ROOT
ATOM      1  C   UNL     1       3.002   5.240  18.448  0.00  0.00    +0.000 A 
ATOM      2  C   UNL     1       1.788   4.518  18.459  0.00  0.00    +0.000 A 
ATOM      3  C   UNL     1       1.706   3.208  17.983  0.00  0.00    +0.000 A 
ATOM      4  C   UNL     1       2.841   2.591  17.476  0.00  0.00    +0.000 A 
ATOM      5  C   UNL     1       4.048   3.282  17.450  0.00  0.00    +0.000 A 
ATOM      6  C   UNL     1       4.144   4.616  17.900  0.00  0.00    +0.000 A 
ENDROOT
BRANCH   6   7
ATOM      7  S   UNL     1       5.789   5.334  17.873  0.00  0.00    +0.000 S 
ATOM      8  O   UNL     1       5.710   6.725  17.469  0.00  0.00    +0.000 OA
ATOM      9  O   UNL     1       6.417   4.978  19.133  0.00  0.00    +0.000 OA
BRANCH   7  10
ATOM     10  C   UNL     1       6.804   4.577  16.577  0.00  0.00    +0.000 C 
ATOM     11  C   UNL     1       6.386   4.865  15.162  0.00  0.00    +0.000 C 
ATOM     12  O   UNL     1       7.498   5.536  15.777  0.00  0.00    +0.000 OA
ENDBRANCH   7  10
ENDBRANCH   6   7
BRANCH   1  14
ATOM     13  C   UNL     1       2.417   7.652  18.053  0.00  0.00    +0.000 C 
ATOM     14  C   UNL     1       2.942   6.626  19.046  0.00  0.00    +0.000 C 
ENDBRANCH   1  14
TORSDOF 3
ENDMDL
MODEL 6
REMARK VINA RESULT:      -6.0      3.183      4.666
REMARK  Name = 
REMARK  4 active torsions:
REMARK  status: ('A' for Active; 'I' for Inactive)
REMARK    1  A    between atoms: C_1  and  C_2
REMARK    2  A    between atoms: C_2  and  C_3
REMARK    3  A    between atoms: C_8  and  S_9
REMARK    4  A    between atoms: S_9  and  C_12
REMARK                            x       y       z     vdW  Elec       q    Type
REMARK                         _______ _______ _______ _____ _____    ______ ____
ROOT
ATOM      1  C   UNL     1       3.597   5.952  17.544  0.00  0.00    +0.000 A 
ATOM      2  C   UNL     1       4.581   6.691  16.851  0.00  0.00    +0.000 A 
ATOM      3  C   UNL     1       5.541   6.069  16.052  0.00  0.00    +0.000 A 
ATOM      4  C   UNL     1       5.543   4.686  15.934  0.00  0.00    +0.000 A 
ATOM      5  C   UNL     1       4.586   3.935  16.610  0.00  0.00    +0.000 A 
ATOM      6  C   UNL     1       3.625   4.544  17.445  0.00  0.00    +0.000 A 
ENDROOT
BRANCH   6   7
ATOM      7  S   UNL     1       2.416   3.441  18.178  0.00  0.00    +0.000 S 
ATOM      8  O   UNL     1       1.088   3.780  17.699  0.00  0.00    +0.000 OA
ATOM      9  O   UNL     1       2.927   2.093  18.008  0.00  0.00    +0.000 OA
BRANCH   7  10
ATOM     10  C   UNL     1       2.296   3.708  19.967  0.00  0.00    +0.000 C 
ATOM     11  C   UNL     1       1.395   2.766  20.714  0.00  0.00    +0.000 C 
ATOM     12  O   UNL     1       2.824   2.623  20.732  0.00  0.00    +0.000 OA
ENDBRANCH   7  10
ENDBRANCH   6   7
BRANCH   1  14
ATOM     13  C   UNL     1       2.573   8.224  17.871  0.00  0.00    +0.000 C 
ATOM     14  C   UNL     1       2.595   6.772  18.323  0.00  0.00    +0.000 C 
ENDBRANCH   1  14
TORSDOF 3
ENDMDL
MODEL 7
REMARK VINA RESULT:      -6.0      1.413      2.933
REMARK  Name = 
REMARK  4 active torsions:
REMARK  status: ('A' for Active; 'I' for Inactive)
REMARK    1  A    between atoms: C_1  and  C_2
REMARK    2  A    between atoms: C_2  and  C_3
REMARK    3  A    between atoms: C_8  and  S_9
REMARK    4  A    between atoms: S_9  and  C_12
REMARK                            x       y       z     vdW  Elec       q    Type
REMARK                         _______ _______ _______ _____ _____    ______ ____
ROOT
ATOM      1  C   UNL     1       3.665   4.459  17.866  0.00  0.00    +0.000 A 
ATOM      2  C   UNL     1       2.669   4.619  18.856  0.00  0.00    +0.000 A 
ATOM      3  C   UNL     1       2.202   5.878  19.232  0.00  0.00    +0.000 A 
ATOM      4  C   UNL     1       2.726   7.013  18.629  0.00  0.00    +0.000 A 
ATOM      5  C   UNL     1       3.711   6.883  17.653  0.00  0.00    +0.000 A 
ATOM      6  C   UNL     1       4.217   5.619  17.281  0.00  0.00    +0.000 A 
ENDROOT
BRANCH   6   7
ATOM      7  S   UNL     1       5.424   5.622  15.953  0.00  0.00    +0.000 S 
ATOM      8  O   UNL     1       5.374   4.357  15.242  0.00  0.00    +0.000 OA
ATOM      9  O   UNL     1       5.243   6.868  15.231  0.00  0.00    +0.000 OA
BRANCH   7  10
ATOM     10  C   UNL     1       7.111   5.666  16.613  0.00  0.00    +0.000 C 
ATOM     11  C   UNL     1       7.417   4.679  17.704  0.00  0.00    +0.000 C 
ATOM     12  O   UNL     1       7.847   4.469  16.349  0.00  0.00    +0.000 OA
ENDBRANCH   7  10
ENDBRANCH   6   7
BRANCH   1  14
ATOM     13  C   UNL     1       2.933   2.055  17.938  0.00  0.00    +0.000 C 
ATOM     14  C   UNL     1       4.027   3.031  17.530  0.00  0.00    +0.000 C 
ENDBRANCH   1  14
TORSDOF 3
ENDMDL
MODEL 8
REMARK VINA RESULT:      -5.9      3.256      4.859
REMARK  Name = 
REMARK  4 active torsions:
REMARK  status: ('A' for Active; 'I' for Inactive)
REMARK    1  A    between atoms: C_1  and  C_2
REMARK    2  A    between atoms: C_2  and  C_3
REMARK    3  A    between atoms: C_8  and  S_9
REMARK    4  A    between atoms: S_9  and  C_12
REMARK                            x       y       z     vdW  Elec       q    Type
REMARK                         _______ _______ _______ _____ _____    ______ ____
ROOT
ATOM      1  C   UNL     1       6.231   4.988  17.877  0.00  0.00    +0.000 A 
ATOM      2  C   UNL     1       7.006   5.449  16.789  0.00  0.00    +0.000 A 
ATOM      3  C   UNL     1       6.700   5.106  15.471  0.00  0.00    +0.000 A 
ATOM      4  C   UNL     1       5.612   4.285  15.211  0.00  0.00    +0.000 A 
ATOM      5  C   UNL     1       4.836   3.814  16.266  0.00  0.00    +0.000 A 
ATOM      6  C   UNL     1       5.146   4.127  17.607  0.00  0.00    +0.000 A 
ENDROOT
BRANCH   6   7
ATOM      7  S   UNL     1       3.998   3.507  18.839  0.00  0.00    +0.000 S 
ATOM      8  O   UNL     1       4.698   2.640  19.768  0.00  0.00    +0.000 OA
ATOM      9  O   UNL     1       3.260   4.656  19.333  0.00  0.00    +0.000 OA
BRANCH   7  10
ATOM     10  C   UNL     1       2.769   2.410  18.085  0.00  0.00    +0.000 C 
ATOM     11  C   UNL     1       1.486   2.236  18.848  0.00  0.00    +0.000 C 
ATOM     12  O   UNL     1       1.574   3.090  17.696  0.00  0.00    +0.000 OA
ENDBRANCH   7  10
ENDBRANCH   6   7
BRANCH   1  14
ATOM     13  C   UNL     1       8.116   5.914  19.258  0.00  0.00    +0.000 C 
ATOM     14  C   UNL     1       6.655   5.490  19.238  0.00  0.00    +0.000 C 
ENDBRANCH   1  14
TORSDOF 3
ENDMDL
MODEL 9
REMARK VINA RESULT:      -5.9      1.705      2.157
REMARK  Name = 
REMARK  4 active torsions:
REMARK  status: ('A' for Active; 'I' for Inactive)
REMARK    1  A    between atoms: C_1  and  C_2
REMARK    2  A    between atoms: C_2  and  C_3
REMARK    3  A    between atoms: C_8  and  S_9
REMARK    4  A    between atoms: S_9  and  C_12
REMARK                            x       y       z     vdW  Elec       q    Type
REMARK                         _______ _______ _______ _____ _____    ______ ____
ROOT
ATOM      1  C   UNL     1       3.155   5.325  18.392  0.00  0.00    +0.000 A 
ATOM      2  C   UNL     1       1.899   4.712  18.190  0.00  0.00    +0.000 A 
ATOM      3  C   UNL     1       1.787   3.402  17.722  0.00  0.00    +0.000 A 
ATOM      4  C   UNL     1       2.934   2.675  17.437  0.00  0.00    +0.000 A 
ATOM      5  C   UNL     1       4.184   3.258  17.625  0.00  0.00    +0.000 A 
ATOM      6  C   UNL     1       4.317   4.591  18.070  0.00  0.00    +0.000 A 
ENDROOT
BRANCH   6   7
ATOM      7  S   UNL     1       5.997   5.162  18.335  0.00  0.00    +0.000 S 
ATOM      8  O   UNL     1       6.152   5.608  19.708  0.00  0.00    +0.000 OA
ATOM      9  O   UNL     1       6.873   4.135  17.802  0.00  0.00    +0.000 OA
BRANCH   7  10
ATOM     10  C   UNL     1       6.332   6.657  17.368  0.00  0.00    +0.000 C 
ATOM     11  C   UNL     1       7.613   7.374  17.689  0.00  0.00    +0.000 C 
ATOM     12  O   UNL     1       7.484   6.536  16.530  0.00  0.00    +0.000 OA
ENDBRANCH   7  10
ENDBRANCH   6   7
BRANCH   1  14
ATOM     13  C   UNL     1       2.591   7.732  17.938  0.00  0.00    +0.000 C 
ATOM     14  C   UNL     1       3.113   6.727  18.954  0.00  0.00    +0.000 C 
ENDBRANCH   1  14
TORSDOF 3
ENDMDL
