MODEL 1
REMARK VINA RESULT:      -7.4      0.000      0.000
REMARK  Name = 
REMARK  3 active torsions:
REMARK  status: ('A' for Active; 'I' for Inactive)
REMARK    1  A    between atoms: C_2  and  C_3
REMARK    2  A    between atoms: C_19  and  O_20
REMARK    3  A    between atoms: C_21  and  N_22
REMARK                            x       y       z     vdW  Elec       q    Type
REMARK                         _______ _______ _______ _____ _____    ______ ____
ROOT
ATOM      1  O   UNL     1      -0.394  10.501  23.444  0.00  0.00    +0.000 OA
ATOM      2  C   UNL     1      -0.849  11.218  22.547  0.00  0.00    +0.000 C 
ATOM      3  N   UNL     1      -0.561  10.983  21.175  0.00  0.00    +0.000 N 
ATOM      4  C   UNL     1       0.020   9.664  20.918  0.00  0.00    +0.000 C 
ATOM      5  C   UNL     1       1.048   9.684  19.801  0.00  0.00    +0.000 C 
ATOM      6  C   UNL     1       0.400  10.123  18.505  0.00  0.00    +0.000 C 
ATOM      7  C   UNL     1      -0.286  11.473  18.643  0.00  0.00    +0.000 C 
ATOM      8  C   UNL     1       0.623  12.689  18.672  0.00  0.00    +0.000 A 
ATOM      9  C   UNL     1       1.829  12.946  18.036  0.00  0.00    +0.000 A 
ATOM     10  C   UNL     1       2.467  14.173  18.290  0.00  0.00    +0.000 A 
ATOM     11  C   UNL     1       1.876  15.114  19.147  0.00  0.00    +0.000 A 
ATOM     12  C   UNL     1       0.643  14.884  19.740  0.00  0.00    +0.000 A 
ATOM     13  C   UNL     1       0.047  13.666  19.476  0.00  0.00    +0.000 A 
ATOM     14  C   UNL     1      -1.254  13.211  20.025  0.00  0.00    +0.000 C 
ATOM     15  C   UNL     1      -1.137  11.669  19.967  0.00  0.00    +0.000 C 
ENDROOT
BRANCH   2  16
ATOM     16  C   UNL     1      -1.635  12.383  23.023  0.00  0.00    +0.000 A 
ATOM     17  C   UNL     1      -3.014  12.189  23.235  0.00  0.00    +0.000 A 
ATOM     18  C   UNL     1      -3.796  13.142  23.900  0.00  0.00    +0.000 A 
ATOM     19  C   UNL     1      -3.107  14.241  24.410  0.00  0.00    +0.000 A 
ATOM     20  N   UNL     1      -3.482  15.264  25.244  0.00  0.00    +0.000 N 
ATOM     21  C   UNL     1      -2.364  15.991  25.541  0.00  0.00    +0.000 A 
ATOM     22  N   UNL     1      -1.320  15.578  24.858  0.00  0.00    +0.000 NA
ATOM     23  C   UNL     1      -1.764  14.490  24.147  0.00  0.00    +0.000 A 
ATOM     24  C   UNL     1      -1.034  13.609  23.331  0.00  0.00    +0.000 A 
ATOM     25  H   UNL     1      -4.403  15.408  25.635  0.00  0.00    +0.000 HD
ENDBRANCH   2  16
BRANCH  11  26
ATOM     26  N   UNL     1       2.541  16.359  19.469  0.00  0.00    +0.000 N 
ATOM     27  O   UNL     1       2.784  17.136  18.537  0.00  0.00    +0.000 OA
ATOM     28  O   UNL     1       2.733  16.596  20.673  0.00  0.00    +0.000 OA
ENDBRANCH  11  26
BRANCH  10  29
ATOM     29  O   UNL     1       3.677  14.440  17.715  0.00  0.00    +0.000 OA
ATOM     30  H   UNL     1       4.026  15.270  18.069  0.00  0.00    +0.000 HD
ENDBRANCH  10  29
TORSDOF 3
ENDMDL
MODEL 2
REMARK VINA RESULT:      -7.0      3.625      4.631
REMARK  Name = 
REMARK  3 active torsions:
REMARK  status: ('A' for Active; 'I' for Inactive)
REMARK    1  A    between atoms: C_2  and  C_3
REMARK    2  A    between atoms: C_19  and  O_20
REMARK    3  A    between atoms: C_21  and  N_22
REMARK                            x       y       z     vdW  Elec       q    Type
REMARK                         _______ _______ _______ _____ _____    ______ ____
ROOT
ATOM      1  O   UNL     1      -6.358  11.703  20.964  0.00  0.00    +0.000 OA
ATOM      2  C   UNL     1      -5.286  12.315  20.990  0.00  0.00    +0.000 C 
ATOM      3  N   UNL     1      -4.329  12.204  19.945  0.00  0.00    +0.000 N 
ATOM      4  C   UNL     1      -4.863  11.591  18.727  0.00  0.00    +0.000 C 
ATOM      5  C   UNL     1      -3.842  10.727  18.009  0.00  0.00    +0.000 C 
ATOM      6  C   UNL     1      -2.660  11.569  17.577  0.00  0.00    +0.000 C 
ATOM      7  C   UNL     1      -2.029  12.303  18.750  0.00  0.00    +0.000 C 
ATOM      8  C   UNL     1      -1.171  11.468  19.685  0.00  0.00    +0.000 A 
ATOM      9  C   UNL     1      -0.351  10.375  19.443  0.00  0.00    +0.000 A 
ATOM     10  C   UNL     1       0.301   9.778  20.536  0.00  0.00    +0.000 A 
ATOM     11  C   UNL     1       0.136  10.298  21.829  0.00  0.00    +0.000 A 
ATOM     12  C   UNL     1      -0.639  11.425  22.067  0.00  0.00    +0.000 A 
ATOM     13  C   UNL     1      -1.272  11.983  20.972  0.00  0.00    +0.000 A 
ATOM     14  C   UNL     1      -2.161  13.170  21.009  0.00  0.00    +0.000 C 
ATOM     15  C   UNL     1      -3.052  12.976  19.758  0.00  0.00    +0.000 C 
ENDROOT
BRANCH   2  16
ATOM     16  C   UNL     1      -5.045  13.092  22.230  0.00  0.00    +0.000 A 
ATOM     17  C   UNL     1      -4.400  12.429  23.294  0.00  0.00    +0.000 A 
ATOM     18  C   UNL     1      -3.916  13.125  24.409  0.00  0.00    +0.000 A 
ATOM     19  C   UNL     1      -4.036  14.513  24.354  0.00  0.00    +0.000 A 
ATOM     20  N   UNL     1      -3.540  15.517  25.147  0.00  0.00    +0.000 N 
ATOM     21  C   UNL     1      -3.841  16.708  24.547  0.00  0.00    +0.000 A 
ATOM     22  N   UNL     1      -4.602  16.541  23.489  0.00  0.00    +0.000 NA
ATOM     23  C   UNL     1      -4.735  15.180  23.354  0.00  0.00    +0.000 A 
ATOM     24  C   UNL     1      -5.364  14.451  22.331  0.00  0.00    +0.000 A 
ATOM     25  H   UNL     1      -2.982  15.398  25.980  0.00  0.00    +0.000 HD
ENDBRANCH   2  16
BRANCH  11  26
ATOM     26  N   UNL     1       0.750   9.665  22.978  0.00  0.00    +0.000 N 
ATOM     27  O   UNL     1       0.021   9.400  23.942  0.00  0.00    +0.000 OA
ATOM     28  O   UNL     1       1.946   9.351  22.871  0.00  0.00    +0.000 OA
ENDBRANCH  11  26
BRANCH  10  29
ATOM     29  O   UNL     1       1.082   8.674  20.340  0.00  0.00    +0.000 OA
ATOM     30  H   UNL     1       0.981   8.366  19.428  0.00  0.00    +0.000 HD
ENDBRANCH  10  29
TORSDOF 3
ENDMDL
MODEL 3
REMARK VINA RESULT:      -7.0      0.885      1.642
REMARK  Name = 
REMARK  3 active torsions:
REMARK  status: ('A' for Active; 'I' for Inactive)
REMARK    1  A    between atoms: C_2  and  C_3
REMARK    2  A    between atoms: C_19  and  O_20
REMARK    3  A    between atoms: C_21  and  N_22
REMARK                            x       y       z     vdW  Elec       q    Type
REMARK                         _______ _______ _______ _____ _____    ______ ____
ROOT
ATOM      1  O   UNL     1      -0.426  10.464  23.455  0.00  0.00    +0.000 OA
ATOM      2  C   UNL     1      -0.891  11.184  22.566  0.00  0.00    +0.000 C 
ATOM      3  N   UNL     1      -0.607  10.963  21.191  0.00  0.00    +0.000 N 
ATOM      4  C   UNL     1      -0.015   9.651  20.920  0.00  0.00    +0.000 C 
ATOM      5  C   UNL     1       1.008   9.690  19.800  0.00  0.00    +0.000 C 
ATOM      6  C   UNL     1       0.350  10.134  18.509  0.00  0.00    +0.000 C 
ATOM      7  C   UNL     1      -0.347  11.476  18.662  0.00  0.00    +0.000 C 
ATOM      8  C   UNL     1       0.551  12.701  18.697  0.00  0.00    +0.000 A 
ATOM      9  C   UNL     1       1.752  12.974  18.058  0.00  0.00    +0.000 A 
ATOM     10  C   UNL     1       2.380  14.204  18.320  0.00  0.00    +0.000 A 
ATOM     11  C   UNL     1       1.785  15.133  19.187  0.00  0.00    +0.000 A 
ATOM     12  C   UNL     1       0.556  14.887  19.784  0.00  0.00    +0.000 A 
ATOM     13  C   UNL     1      -0.030  13.665  19.512  0.00  0.00    +0.000 A 
ATOM     14  C   UNL     1      -1.325  13.194  20.063  0.00  0.00    +0.000 C 
ATOM     15  C   UNL     1      -1.194  11.654  19.991  0.00  0.00    +0.000 C 
ENDROOT
BRANCH   2  16
ATOM     16  C   UNL     1      -1.685  12.338  23.055  0.00  0.00    +0.000 A 
ATOM     17  C   UNL     1      -1.000  13.552  23.263  0.00  0.00    +0.000 A 
ATOM     18  C   UNL     1      -1.685  14.752  23.493  0.00  0.00    +0.000 A 
ATOM     19  C   UNL     1      -3.075  14.680  23.414  0.00  0.00    +0.000 A 
ATOM     20  N   UNL     1      -4.053  15.642  23.406  0.00  0.00    +0.000 N 
ATOM     21  C   UNL     1      -5.245  15.023  23.157  0.00  0.00    +0.000 A 
ATOM     22  N   UNL     1      -5.116  13.715  23.126  0.00  0.00    +0.000 NA
ATOM     23  C   UNL     1      -3.771  13.483  23.286  0.00  0.00    +0.000 A 
ATOM     24  C   UNL     1      -3.072  12.266  23.229  0.00  0.00    +0.000 A 
ATOM     25  H   UNL     1      -3.909  16.639  23.488  0.00  0.00    +0.000 HD
ENDBRANCH   2  16
BRANCH  11  26
ATOM     26  N   UNL     1       2.440  16.381  19.517  0.00  0.00    +0.000 N 
ATOM     27  O   UNL     1       2.815  16.539  20.685  0.00  0.00    +0.000 OA
ATOM     28  O   UNL     1       2.662  17.162  18.577  0.00  0.00    +0.000 OA
ENDBRANCH  11  26
BRANCH  10  29
ATOM     29  O   UNL     1       3.586  14.487  17.742  0.00  0.00    +0.000 OA
ATOM     30  H   UNL     1       4.248  13.853  18.051  0.00  0.00    +0.000 HD
ENDBRANCH  10  29
TORSDOF 3
ENDMDL
MODEL 4
REMARK VINA RESULT:      -6.9      3.565      4.597
REMARK  Name = 
REMARK  3 active torsions:
REMARK  status: ('A' for Active; 'I' for Inactive)
REMARK    1  A    between atoms: C_2  and  C_3
REMARK    2  A    between atoms: C_19  and  O_20
REMARK    3  A    between atoms: C_21  and  N_22
REMARK                            x       y       z     vdW  Elec       q    Type
REMARK                         _______ _______ _______ _____ _____    ______ ____
ROOT
ATOM      1  O   UNL     1      -5.983  11.731  20.184  0.00  0.00    +0.000 OA
ATOM      2  C   UNL     1      -4.875  12.274  20.153  0.00  0.00    +0.000 C 
ATOM      3  N   UNL     1      -3.887  11.917  19.196  0.00  0.00    +0.000 N 
ATOM      4  C   UNL     1      -4.411  11.122  18.083  0.00  0.00    +0.000 C 
ATOM      5  C   UNL     1      -3.422  10.084  17.587  0.00  0.00    +0.000 C 
ATOM      6  C   UNL     1      -2.171  10.763  17.070  0.00  0.00    +0.000 C 
ATOM      7  C   UNL     1      -1.540  11.663  18.121  0.00  0.00    +0.000 C 
ATOM      8  C   UNL     1      -0.777  10.966  19.234  0.00  0.00    +0.000 A 
ATOM      9  C   UNL     1      -0.021   9.802  19.236  0.00  0.00    +0.000 A 
ATOM     10  C   UNL     1       0.546   9.380  20.451  0.00  0.00    +0.000 A 
ATOM     11  C   UNL     1       0.365  10.137  21.619  0.00  0.00    +0.000 A 
ATOM     12  C   UNL     1      -0.343  11.331  21.608  0.00  0.00    +0.000 A 
ATOM     13  C   UNL     1      -0.894  11.713  20.400  0.00  0.00    +0.000 A 
ATOM     14  C   UNL     1      -1.704  12.936  20.176  0.00  0.00    +0.000 C 
ATOM     15  C   UNL     1      -2.555  12.568  18.937  0.00  0.00    +0.000 C 
ENDROOT
BRANCH   2  16
ATOM     16  C   UNL     1      -4.632  13.251  21.243  0.00  0.00    +0.000 A 
ATOM     17  C   UNL     1      -4.184  12.742  22.479  0.00  0.00    +0.000 A 
ATOM     18  C   UNL     1      -3.704  13.585  23.489  0.00  0.00    +0.000 A 
ATOM     19  C   UNL     1      -3.616  14.937  23.159  0.00  0.00    +0.000 A 
ATOM     20  N   UNL     1      -3.051  16.012  23.798  0.00  0.00    +0.000 N 
ATOM     21  C   UNL     1      -3.124  17.084  22.954  0.00  0.00    +0.000 A 
ATOM     22  N   UNL     1      -3.807  16.801  21.867  0.00  0.00    +0.000 NA
ATOM     23  C   UNL     1      -4.123  15.469  21.978  0.00  0.00    +0.000 A 
ATOM     24  C   UNL     1      -4.759  14.631  21.047  0.00  0.00    +0.000 A 
ATOM     25  H   UNL     1      -2.590  15.996  24.697  0.00  0.00    +0.000 HD
ENDBRANCH   2  16
BRANCH  11  26
ATOM     26  N   UNL     1       0.890   9.692  22.893  0.00  0.00    +0.000 N 
ATOM     27  O   UNL     1       2.091   9.399  22.946  0.00  0.00    +0.000 OA
ATOM     28  O   UNL     1       0.114   9.730  23.861  0.00  0.00    +0.000 OA
ENDBRANCH  11  26
BRANCH  10  29
ATOM     29  O   UNL     1       1.260   8.215  20.498  0.00  0.00    +0.000 OA
ATOM     30  H   UNL     1       1.826   8.216  21.283  0.00  0.00    +0.000 HD
ENDBRANCH  10  29
TORSDOF 3
ENDMDL
MODEL 5
REMARK VINA RESULT:      -6.8      3.659      5.401
REMARK  Name = 
REMARK  3 active torsions:
REMARK  status: ('A' for Active; 'I' for Inactive)
REMARK    1  A    between atoms: C_2  and  C_3
REMARK    2  A    between atoms: C_19  and  O_20
REMARK    3  A    between atoms: C_21  and  N_22
REMARK                            x       y       z     vdW  Elec       q    Type
REMARK                         _______ _______ _______ _____ _____    ______ ____
ROOT
ATOM      1  O   UNL     1      -7.138  11.692  23.791  0.00  0.00    +0.000 OA
ATOM      2  C   UNL     1      -6.569  12.492  23.044  0.00  0.00    +0.000 C 
ATOM      3  N   UNL     1      -6.675  12.408  21.629  0.00  0.00    +0.000 N 
ATOM      4  C   UNL     1      -7.754  11.529  21.175  0.00  0.00    +0.000 C 
ATOM      5  C   UNL     1      -7.403  10.777  19.905  0.00  0.00    +0.000 C 
ATOM      6  C   UNL     1      -7.147  11.753  18.775  0.00  0.00    +0.000 C 
ATOM      7  C   UNL     1      -6.067  12.761  19.132  0.00  0.00    +0.000 C 
ATOM      8  C   UNL     1      -4.635  12.254  19.100  0.00  0.00    +0.000 A 
ATOM      9  C   UNL     1      -4.016  11.314  18.289  0.00  0.00    +0.000 A 
ATOM     10  C   UNL     1      -2.661  11.022  18.525  0.00  0.00    +0.000 A 
ATOM     11  C   UNL     1      -1.959  11.689  19.540  0.00  0.00    +0.000 A 
ATOM     12  C   UNL     1      -2.560  12.671  20.315  0.00  0.00    +0.000 A 
ATOM     13  C   UNL     1      -3.894  12.928  20.064  0.00  0.00    +0.000 A 
ATOM     14  C   UNL     1      -4.729  13.917  20.790  0.00  0.00    +0.000 C 
ATOM     15  C   UNL     1      -6.164  13.373  20.593  0.00  0.00    +0.000 C 
ENDROOT
BRANCH   2  16
ATOM     16  C   UNL     1      -5.702  13.479  23.735  0.00  0.00    +0.000 A 
ATOM     17  C   UNL     1      -4.421  13.047  24.132  0.00  0.00    +0.000 A 
ATOM     18  C   UNL     1      -3.445  13.950  24.574  0.00  0.00    +0.000 A 
ATOM     19  C   UNL     1      -3.795  15.298  24.510  0.00  0.00    +0.000 A 
ATOM     20  N   UNL     1      -3.073  16.452  24.683  0.00  0.00    +0.000 N 
ATOM     21  C   UNL     1      -3.882  17.503  24.355  0.00  0.00    +0.000 A 
ATOM     22  N   UNL     1      -5.111  17.110  24.102  0.00  0.00    +0.000 NA
ATOM     23  C   UNL     1      -5.076  15.740  24.195  0.00  0.00    +0.000 A 
ATOM     24  C   UNL     1      -6.092  14.810  23.921  0.00  0.00    +0.000 A 
ATOM     25  H   UNL     1      -2.095  16.511  24.929  0.00  0.00    +0.000 HD
ENDBRANCH   2  16
BRANCH  11  26
ATOM     26  N   UNL     1      -0.580  11.365  19.840  0.00  0.00    +0.000 N 
ATOM     27  O   UNL     1      -0.321  10.194  20.147  0.00  0.00    +0.000 OA
ATOM     28  O   UNL     1       0.257  12.267  19.674  0.00  0.00    +0.000 OA
ENDBRANCH  11  26
BRANCH  10  29
ATOM     29  O   UNL     1      -2.031  10.069  17.775  0.00  0.00    +0.000 OA
ATOM     30  H   UNL     1      -1.542  10.496  17.058  0.00  0.00    +0.000 HD
ENDBRANCH  10  29
TORSDOF 3
ENDMDL
MODEL 6
REMARK VINA RESULT:      -6.7      3.666      5.215
REMARK  Name = 
REMARK  3 active torsions:
REMARK  status: ('A' for Active; 'I' for Inactive)
REMARK    1  A    between atoms: C_2  and  C_3
REMARK    2  A    between atoms: C_19  and  O_20
REMARK    3  A    between atoms: C_21  and  N_22
REMARK                            x       y       z     vdW  Elec       q    Type
REMARK                         _______ _______ _______ _____ _____    ______ ____
ROOT
ATOM      1  O   UNL     1      -7.432  11.340  22.794  0.00  0.00    +0.000 OA
ATOM      2  C   UNL     1      -6.733  12.162  22.194  0.00  0.00    +0.000 C 
ATOM      3  N   UNL     1      -6.527  12.094  20.790  0.00  0.00    +0.000 N 
ATOM      4  C   UNL     1      -7.462  11.197  20.105  0.00  0.00    +0.000 C 
ATOM      5  C   UNL     1      -6.825  10.469  18.936  0.00  0.00    +0.000 C 
ATOM      6  C   UNL     1      -6.354  11.465  17.897  0.00  0.00    +0.000 C 
ATOM      7  C   UNL     1      -5.401  12.491  18.487  0.00  0.00    +0.000 C 
ATOM      8  C   UNL     1      -3.985  12.015  18.763  0.00  0.00    +0.000 A 
ATOM      9  C   UNL     1      -3.182  11.098  18.099  0.00  0.00    +0.000 A 
ATOM     10  C   UNL     1      -1.904  10.833  18.621  0.00  0.00    +0.000 A 
ATOM     11  C   UNL     1      -1.455  11.503  19.770  0.00  0.00    +0.000 A 
ATOM     12  C   UNL     1      -2.233  12.462  20.403  0.00  0.00    +0.000 A 
ATOM     13  C   UNL     1      -3.487  12.693  19.870  0.00  0.00    +0.000 A 
ATOM     14  C   UNL     1      -4.482  13.654  20.404  0.00  0.00    +0.000 C 
ATOM     15  C   UNL     1      -5.827  13.081  19.896  0.00  0.00    +0.000 C 
ENDROOT
BRANCH   2  16
ATOM     16  C   UNL     1      -6.061  13.158  23.064  0.00  0.00    +0.000 A 
ATOM     17  C   UNL     1      -4.794  12.816  23.579  0.00  0.00    +0.000 A 
ATOM     18  C   UNL     1      -3.977  13.763  24.210  0.00  0.00    +0.000 A 
ATOM     19  C   UNL     1      -4.459  15.071  24.213  0.00  0.00    +0.000 A 
ATOM     20  N   UNL     1      -3.888  16.268  24.567  0.00  0.00    +0.000 N 
ATOM     21  C   UNL     1      -4.762  17.263  24.229  0.00  0.00    +0.000 A 
ATOM     22  N   UNL     1      -5.905  16.779  23.796  0.00  0.00    +0.000 NA
ATOM     23  C   UNL     1      -5.736  15.416  23.781  0.00  0.00    +0.000 A 
ATOM     24  C   UNL     1      -6.609  14.422  23.309  0.00  0.00    +0.000 A 
ATOM     25  H   UNL     1      -2.956  16.398  24.935  0.00  0.00    +0.000 HD
ENDBRANCH   2  16
BRANCH  11  26
ATOM     26  N   UNL     1      -0.167  11.204  20.359  0.00  0.00    +0.000 N 
ATOM     27  O   UNL     1       0.554  12.159  20.675  0.00  0.00    +0.000 OA
ATOM     28  O   UNL     1       0.079  10.009  20.592  0.00  0.00    +0.000 OA
ENDBRANCH  11  26
BRANCH  10  29
ATOM     29  O   UNL     1      -1.104   9.903  18.018  0.00  0.00    +0.000 OA
ATOM     30  H   UNL     1      -1.250   9.039  18.428  0.00  0.00    +0.000 HD
ENDBRANCH  10  29
TORSDOF 3
ENDMDL
MODEL 7
REMARK VINA RESULT:      -6.6      4.214      6.666
REMARK  Name = 
REMARK  3 active torsions:
REMARK  status: ('A' for Active; 'I' for Inactive)
REMARK    1  A    between atoms: C_2  and  C_3
REMARK    2  A    between atoms: C_19  and  O_20
REMARK    3  A    between atoms: C_21  and  N_22
REMARK                            x       y       z     vdW  Elec       q    Type
REMARK                         _______ _______ _______ _____ _____    ______ ____
ROOT
ATOM      1  O   UNL     1      -4.256  11.945  25.145  0.00  0.00    +0.000 OA
ATOM      2  C   UNL     1      -4.146  12.701  24.176  0.00  0.00    +0.000 C 
ATOM      3  N   UNL     1      -5.276  13.175  23.456  0.00  0.00    +0.000 N 
ATOM      4  C   UNL     1      -6.545  12.965  24.157  0.00  0.00    +0.000 C 
ATOM      5  C   UNL     1      -7.690  12.647  23.213  0.00  0.00    +0.000 C 
ATOM      6  C   UNL     1      -7.916  13.804  22.262  0.00  0.00    +0.000 C 
ATOM      7  C   UNL     1      -6.655  14.160  21.492  0.00  0.00    +0.000 C 
ATOM      8  C   UNL     1      -6.270  13.224  20.360  0.00  0.00    +0.000 A 
ATOM      9  C   UNL     1      -7.047  12.483  19.481  0.00  0.00    +0.000 A 
ATOM     10  C   UNL     1      -6.394  11.663  18.544  0.00  0.00    +0.000 A 
ATOM     11  C   UNL     1      -4.992  11.624  18.493  0.00  0.00    +0.000 A 
ATOM     12  C   UNL     1      -4.212  12.406  19.332  0.00  0.00    +0.000 A 
ATOM     13  C   UNL     1      -4.885  13.194  20.247  0.00  0.00    +0.000 A 
ATOM     14  C   UNL     1      -4.245  14.084  21.247  0.00  0.00    +0.000 C 
ATOM     15  C   UNL     1      -5.323  14.197  22.352  0.00  0.00    +0.000 C 
ENDROOT
BRANCH   2  16
ATOM     16  C   UNL     1      -2.748  12.995  23.774  0.00  0.00    +0.000 A 
ATOM     17  C   UNL     1      -2.093  12.042  22.967  0.00  0.00    +0.000 A 
ATOM     18  C   UNL     1      -0.871  12.323  22.343  0.00  0.00    +0.000 A 
ATOM     19  C   UNL     1      -0.397  13.625  22.500  0.00  0.00    +0.000 A 
ATOM     20  N   UNL     1       0.639  14.310  21.916  0.00  0.00    +0.000 N 
ATOM     21  C   UNL     1       0.562  15.611  22.327  0.00  0.00    +0.000 A 
ATOM     22  N   UNL     1      -0.378  15.780  23.229  0.00  0.00    +0.000 NA
ATOM     23  C   UNL     1      -0.985  14.554  23.351  0.00  0.00    +0.000 A 
ATOM     24  C   UNL     1      -2.116  14.199  24.105  0.00  0.00    +0.000 A 
ATOM     25  H   UNL     1       1.293  13.939  21.240  0.00  0.00    +0.000 HD
ENDBRANCH   2  16
BRANCH  11  26
ATOM     26  N   UNL     1      -4.297  10.744  17.576  0.00  0.00    +0.000 N 
ATOM     27  O   UNL     1      -3.845   9.686  18.031  0.00  0.00    +0.000 OA
ATOM     28  O   UNL     1      -4.290  11.076  16.380  0.00  0.00    +0.000 OA
ENDBRANCH  11  26
BRANCH  10  29
ATOM     29  O   UNL     1      -7.129  10.886  17.692  0.00  0.00    +0.000 OA
ATOM     30  H   UNL     1      -7.831  11.420  17.296  0.00  0.00    +0.000 HD
ENDBRANCH  10  29
TORSDOF 3
ENDMDL
MODEL 8
REMARK VINA RESULT:      -6.6      3.642      5.184
REMARK  Name = 
REMARK  3 active torsions:
REMARK  status: ('A' for Active; 'I' for Inactive)
REMARK    1  A    between atoms: C_2  and  C_3
REMARK    2  A    between atoms: C_19  and  O_20
REMARK    3  A    between atoms: C_21  and  N_22
REMARK                            x       y       z     vdW  Elec       q    Type
REMARK                         _______ _______ _______ _____ _____    ______ ____
ROOT
ATOM      1  O   UNL     1      -7.718  11.079  21.942  0.00  0.00    +0.000 OA
ATOM      2  C   UNL     1      -6.939  11.948  21.540  0.00  0.00    +0.000 C 
ATOM      3  N   UNL     1      -6.335  11.885  20.256  0.00  0.00    +0.000 N 
ATOM      4  C   UNL     1      -6.964  10.911  19.361  0.00  0.00    +0.000 C 
ATOM      5  C   UNL     1      -5.967  10.226  18.446  0.00  0.00    +0.000 C 
ATOM      6  C   UNL     1      -5.292  11.247  17.554  0.00  0.00    +0.000 C 
ATOM      7  C   UNL     1      -4.627  12.352  18.360  0.00  0.00    +0.000 C 
ATOM      8  C   UNL     1      -3.319  11.993  19.043  0.00  0.00    +0.000 A 
ATOM      9  C   UNL     1      -2.293  11.138  18.665  0.00  0.00    +0.000 A 
ATOM     10  C   UNL     1      -1.203  10.979  19.538  0.00  0.00    +0.000 A 
ATOM     11  C   UNL     1      -1.153  11.693  20.746  0.00  0.00    +0.000 A 
ATOM     12  C   UNL     1      -2.150  12.592  21.101  0.00  0.00    +0.000 A 
ATOM     13  C   UNL     1      -3.211  12.717  20.224  0.00  0.00    +0.000 A 
ATOM     14  C   UNL     1      -4.387  13.601  20.422  0.00  0.00    +0.000 C 
ATOM     15  C   UNL     1      -5.483  12.918  19.570  0.00  0.00    +0.000 C 
ENDROOT
BRANCH   2  16
ATOM     16  C   UNL     1      -6.621  13.002  22.535  0.00  0.00    +0.000 A 
ATOM     17  C   UNL     1      -5.505  12.789  23.369  0.00  0.00    +0.000 A 
ATOM     18  C   UNL     1      -4.980  13.810  24.171  0.00  0.00    +0.000 A 
ATOM     19  C   UNL     1      -5.575  15.062  24.022  0.00  0.00    +0.000 A 
ATOM     20  N   UNL     1      -5.239  16.309  24.487  0.00  0.00    +0.000 N 
ATOM     21  C   UNL     1      -6.090  17.211  23.914  0.00  0.00    +0.000 A 
ATOM     22  N   UNL     1      -7.025  16.616  23.208  0.00  0.00    +0.000 NA
ATOM     23  C   UNL     1      -6.722  15.277  23.265  0.00  0.00    +0.000 A 
ATOM     24  C   UNL     1      -7.338  14.203  22.603  0.00  0.00    +0.000 A 
ATOM     25  H   UNL     1      -4.453  16.531  25.083  0.00  0.00    +0.000 HD
ENDBRANCH   2  16
BRANCH  11  26
ATOM     26  N   UNL     1      -0.070  11.503  21.687  0.00  0.00    +0.000 N 
ATOM     27  O   UNL     1       1.084  11.656  21.269  0.00  0.00    +0.000 OA
ATOM     28  O   UNL     1      -0.387  11.293  22.869  0.00  0.00    +0.000 OA
ENDBRANCH  11  26
BRANCH  10  29
ATOM     29  O   UNL     1      -0.197  10.112  19.218  0.00  0.00    +0.000 OA
ATOM     30  H   UNL     1      -0.092  10.082  18.256  0.00  0.00    +0.000 HD
ENDBRANCH  10  29
TORSDOF 3
ENDMDL
MODEL 9
REMARK VINA RESULT:      -6.6      3.616      4.593
REMARK  Name = 
REMARK  3 active torsions:
REMARK  status: ('A' for Active; 'I' for Inactive)
REMARK    1  A    between atoms: C_2  and  C_3
REMARK    2  A    between atoms: C_19  and  O_20
REMARK    3  A    between atoms: C_21  and  N_22
REMARK                            x       y       z     vdW  Elec       q    Type
REMARK                         _______ _______ _______ _____ _____    ______ ____
ROOT
ATOM      1  O   UNL     1      -5.649  11.856  19.937  0.00  0.00    +0.000 OA
ATOM      2  C   UNL     1      -4.503  12.304  19.840  0.00  0.00    +0.000 C 
ATOM      3  N   UNL     1      -3.550  11.751  18.943  0.00  0.00    +0.000 N 
ATOM      4  C   UNL     1      -4.139  10.859  17.941  0.00  0.00    +0.000 C 
ATOM      5  C   UNL     1      -3.235   9.692  17.591  0.00  0.00    +0.000 C 
ATOM      6  C   UNL     1      -1.938  10.199  16.996  0.00  0.00    +0.000 C 
ATOM      7  C   UNL     1      -1.235  11.178  17.923  0.00  0.00    +0.000 C 
ATOM      8  C   UNL     1      -0.521  10.577  19.121  0.00  0.00    +0.000 A 
ATOM      9  C   UNL     1       0.143   9.369  19.280  0.00  0.00    +0.000 A 
ATOM     10  C   UNL     1       0.682   9.068  20.543  0.00  0.00    +0.000 A 
ATOM     11  C   UNL     1       0.566   9.984  21.600  0.00  0.00    +0.000 A 
ATOM     12  C   UNL     1      -0.049  11.216  21.429  0.00  0.00    +0.000 A 
ATOM     13  C   UNL     1      -0.575  11.478  20.179  0.00  0.00    +0.000 A 
ATOM     14  C   UNL     1      -1.290  12.719  19.792  0.00  0.00    +0.000 C 
ATOM     15  C   UNL     1      -2.173  12.258  18.608  0.00  0.00    +0.000 C 
ENDROOT
BRANCH   2  16
ATOM     16  C   UNL     1      -4.180  13.394  20.794  0.00  0.00    +0.000 A 
ATOM     17  C   UNL     1      -4.598  14.697  20.452  0.00  0.00    +0.000 A 
ATOM     18  C   UNL     1      -4.555  15.748  21.376  0.00  0.00    +0.000 A 
ATOM     19  C   UNL     1      -4.162  15.402  22.668  0.00  0.00    +0.000 A 
ATOM     20  N   UNL     1      -4.164  16.094  23.854  0.00  0.00    +0.000 N 
ATOM     21  C   UNL     1      -3.810  15.222  24.845  0.00  0.00    +0.000 A 
ATOM     22  N   UNL     1      -3.463  14.051  24.361  0.00  0.00    +0.000 NA
ATOM     23  C   UNL     1      -3.674  14.144  23.007  0.00  0.00    +0.000 A 
ATOM     24  C   UNL     1      -3.561  13.147  22.024  0.00  0.00    +0.000 A 
ATOM     25  H   UNL     1      -4.453  17.053  23.983  0.00  0.00    +0.000 HD
ENDBRANCH   2  16
BRANCH  11  26
ATOM     26  N   UNL     1       1.062   9.671  22.924  0.00  0.00    +0.000 N 
ATOM     27  O   UNL     1       2.270   9.431  23.040  0.00  0.00    +0.000 OA
ATOM     28  O   UNL     1       0.252   9.761  23.861  0.00  0.00    +0.000 OA
ENDBRANCH  11  26
BRANCH  10  29
ATOM     29  O   UNL     1       1.305   7.868  20.746  0.00  0.00    +0.000 OA
ATOM     30  H   UNL     1       2.061   7.793  20.147  0.00  0.00    +0.000 HD
ENDBRANCH  10  29
TORSDOF 3
ENDMDL
