MODEL 1
REMARK VINA RESULT:      -8.5      0.000      0.000
REMARK  Name = 
REMARK  9 active torsions:
REMARK  status: ('A' for Active; 'I' for Inactive)
REMARK    1  A    between atoms: C_1  and  O_2
REMARK    2  A    between atoms: O_2  and  C_3
REMARK    3  A    between atoms: C_7  and  O_8
REMARK    4  A    between atoms: O_8  and  C_9
REMARK    5  A    between atoms: C_10  and  C_11
REMARK    6  A    between atoms: N_16  and  C_17
REMARK    7  A    between atoms: C_18  and  C_19
REMARK    8  A    between atoms: C_19  and  C_20
REMARK    9  A    between atoms: C_26  and  C_27
REMARK                            x       y       z     vdW  Elec       q    Type
REMARK                         _______ _______ _______ _____ _____    ______ ____
ROOT
ATOM      1  C   UNL     1       0.535   9.723  20.638  0.00  0.00    +0.000 C 
ATOM      2  O   UNL     1       0.047   9.502  21.747  0.00  0.00    +0.000 OA
ATOM      3  N   UNL     1       1.525   8.867  20.135  0.00  0.00    +0.000 N 
ATOM      4  C   UNL     1       1.911   7.668  20.906  0.00  0.00    +0.000 C 
ATOM      5  C   UNL     1       1.647   6.361  20.121  0.00  0.00    +0.000 C 
ATOM      6  N   UNL     1       2.248   6.406  18.764  0.00  0.00    +0.000 N 
ATOM      7  C   UNL     1       1.941   7.643  18.021  0.00  0.00    +0.000 C 
ATOM      8  C   UNL     1       2.216   8.921  18.847  0.00  0.00    +0.000 C 
ENDROOT
BRANCH   6   9
ATOM      9  C   UNL     1       2.766   5.251  18.134  0.00  0.00    +0.000 A 
ATOM     10  C   UNL     1       3.858   5.205  17.326  0.00  0.00    +0.000 A 
ATOM     11  C   UNL     1       4.264   3.820  16.839  0.00  0.00    +0.000 A 
ATOM     12  C   UNL     1       5.504   3.660  15.977  0.00  0.00    +0.000 C 
ATOM     13  N   UNL     1       3.631   2.716  17.103  0.00  0.00    +0.000 NA
ATOM     14  C   UNL     1       2.541   2.808  17.907  0.00  0.00    +0.000 A 
ATOM     15  N   UNL     1       1.770   1.842  18.357  0.00  0.00    +0.000 NA
ATOM     16  C   UNL     1       0.873   2.491  19.142  0.00  0.00    +0.000 A 
ATOM     17  N   UNL     1       1.006   3.813  19.211  0.00  0.00    +0.000 NA
ATOM     18  N   UNL     1       2.098   4.031  18.418  0.00  0.00    +0.000 N 
BRANCH  10  19
ATOM     19  C   UNL     1       4.635   6.404  16.836  0.00  0.00    +0.000 C 
BRANCH  19  20
ATOM     20  C   UNL     1       5.948   6.700  17.544  0.00  0.00    +0.000 A 
ATOM     21  C   UNL     1       6.752   7.810  17.237  0.00  0.00    +0.000 A 
ATOM     22  C   UNL     1       7.983   8.002  17.867  0.00  0.00    +0.000 A 
ATOM     23  C   UNL     1       8.422   7.102  18.833  0.00  0.00    +0.000 A 
ATOM     24  C   UNL     1       7.631   6.004  19.167  0.00  0.00    +0.000 A 
ATOM     25  C   UNL     1       6.403   5.804  18.527  0.00  0.00    +0.000 A 
ENDBRANCH  19  20
ENDBRANCH  10  19
ENDBRANCH   6   9
BRANCH   1  31
ATOM     26  C   UNL     1       0.582  12.193  20.035  0.00  0.00    +0.000 A 
ATOM     27  C   UNL     1       0.227  13.267  19.204  0.00  0.00    +0.000 A 
ATOM     28  C   UNL     1      -0.734  13.130  18.228  0.00  0.00    +0.000 A 
ATOM     29  C   UNL     1      -1.337  11.899  18.074  0.00  0.00    +0.000 A 
ATOM     30  C   UNL     1      -1.003  10.783  18.878  0.00  0.00    +0.000 A 
ATOM     31  C   UNL     1      -0.021  10.910  19.897  0.00  0.00    +0.000 A 
BRANCH  26  33
ATOM     32  C   UNL     1       2.428  13.528  20.651  0.00  0.00    +0.000 C 
ATOM     33  O   UNL     1       1.623  12.376  20.925  0.00  0.00    +0.000 OA
ENDBRANCH  26  33
BRANCH  30  34
ATOM     34  O   UNL     1      -1.760   9.740  18.427  0.00  0.00    +0.000 OA
ATOM     35  C   UNL     1      -2.704   9.823  17.382  0.00  0.00    +0.000 C 
ENDBRANCH  30  34
ENDBRANCH   1  31
TORSDOF 6
ENDMDL
MODEL 2
REMARK VINA RESULT:      -7.9      0.344      2.392
REMARK  Name = 
REMARK  9 active torsions:
REMARK  status: ('A' for Active; 'I' for Inactive)
REMARK    1  A    between atoms: C_1  and  O_2
REMARK    2  A    between atoms: O_2  and  C_3
REMARK    3  A    between atoms: C_7  and  O_8
REMARK    4  A    between atoms: O_8  and  C_9
REMARK    5  A    between atoms: C_10  and  C_11
REMARK    6  A    between atoms: N_16  and  C_17
REMARK    7  A    between atoms: C_18  and  C_19
REMARK    8  A    between atoms: C_19  and  C_20
REMARK    9  A    between atoms: C_26  and  C_27
REMARK                            x       y       z     vdW  Elec       q    Type
REMARK                         _______ _______ _______ _____ _____    ______ ____
ROOT
ATOM      1  C   UNL     1       0.666   9.843  20.473  0.00  0.00    +0.000 C 
ATOM      2  O   UNL     1       0.077   9.707  21.546  0.00  0.00    +0.000 OA
ATOM      3  N   UNL     1       1.611   8.886  20.076  0.00  0.00    +0.000 N 
ATOM      4  C   UNL     1       1.828   7.687  20.912  0.00  0.00    +0.000 C 
ATOM      5  C   UNL     1       1.509   6.380  20.149  0.00  0.00    +0.000 C 
ATOM      6  N   UNL     1       2.213   6.322  18.842  0.00  0.00    +0.000 N 
ATOM      7  C   UNL     1       2.075   7.553  18.041  0.00  0.00    +0.000 C 
ATOM      8  C   UNL     1       2.400   8.832  18.846  0.00  0.00    +0.000 C 
ENDROOT
BRANCH   6   9
ATOM      9  C   UNL     1       2.672   5.104  18.291  0.00  0.00    +0.000 A 
ATOM     10  C   UNL     1       3.740   4.955  17.463  0.00  0.00    +0.000 A 
ATOM     11  C   UNL     1       4.083   3.523  17.075  0.00  0.00    +0.000 A 
ATOM     12  C   UNL     1       5.292   3.251  16.198  0.00  0.00    +0.000 C 
ATOM     13  N   UNL     1       3.417   2.467  17.438  0.00  0.00    +0.000 NA
ATOM     14  C   UNL     1       2.353   2.660  18.258  0.00  0.00    +0.000 A 
ATOM     15  N   UNL     1       1.560   1.761  18.800  0.00  0.00    +0.000 NA
ATOM     16  C   UNL     1       0.709   2.502  19.554  0.00  0.00    +0.000 A 
ATOM     17  N   UNL     1       0.891   3.819  19.518  0.00  0.00    +0.000 NA
ATOM     18  N   UNL     1       1.969   3.935  18.684  0.00  0.00    +0.000 N 
BRANCH  10  19
ATOM     19  C   UNL     1       4.546   6.083  16.864  0.00  0.00    +0.000 C 
BRANCH  19  20
ATOM     20  C   UNL     1       5.889   6.379  17.513  0.00  0.00    +0.000 A 
ATOM     21  C   UNL     1       6.426   5.607  18.556  0.00  0.00    +0.000 A 
ATOM     22  C   UNL     1       7.630   5.960  19.166  0.00  0.00    +0.000 A 
ATOM     23  C   UNL     1       8.334   7.077  18.728  0.00  0.00    +0.000 A 
ATOM     24  C   UNL     1       7.830   7.847  17.681  0.00  0.00    +0.000 A 
ATOM     25  C   UNL     1       6.617   7.502  17.078  0.00  0.00    +0.000 A 
ENDBRANCH  19  20
ENDBRANCH  10  19
ENDBRANCH   6   9
BRANCH   1  31
ATOM     26  C   UNL     1      -0.848  10.992  18.783  0.00  0.00    +0.000 A 
ATOM     27  C   UNL     1      -1.364  12.146  18.173  0.00  0.00    +0.000 A 
ATOM     28  C   UNL     1      -0.792  13.381  18.379  0.00  0.00    +0.000 A 
ATOM     29  C   UNL     1       0.301  13.462  19.216  0.00  0.00    +0.000 A 
ATOM     30  C   UNL     1       0.848  12.329  19.865  0.00  0.00    +0.000 A 
ATOM     31  C   UNL     1       0.277  11.045  19.655  0.00  0.00    +0.000 A 
BRANCH  26  33
ATOM     32  C   UNL     1      -2.557   9.862  17.610  0.00  0.00    +0.000 C 
ATOM     33  O   UNL     1      -1.532   9.804  18.609  0.00  0.00    +0.000 OA
ENDBRANCH  26  33
BRANCH  30  34
ATOM     34  O   UNL     1       1.883  12.784  20.633  0.00  0.00    +0.000 OA
ATOM     35  C   UNL     1       2.018  14.108  21.098  0.00  0.00    +0.000 C 
ENDBRANCH  30  34
ENDBRANCH   1  31
TORSDOF 6
ENDMDL
MODEL 3
REMARK VINA RESULT:      -7.5      5.561      8.599
REMARK  Name = 
REMARK  9 active torsions:
REMARK  status: ('A' for Active; 'I' for Inactive)
REMARK    1  A    between atoms: C_1  and  O_2
REMARK    2  A    between atoms: O_2  and  C_3
REMARK    3  A    between atoms: C_7  and  O_8
REMARK    4  A    between atoms: O_8  and  C_9
REMARK    5  A    between atoms: C_10  and  C_11
REMARK    6  A    between atoms: N_16  and  C_17
REMARK    7  A    between atoms: C_18  and  C_19
REMARK    8  A    between atoms: C_19  and  C_20
REMARK    9  A    between atoms: C_26  and  C_27
REMARK                            x       y       z     vdW  Elec       q    Type
REMARK                         _______ _______ _______ _____ _____    ______ ____
ROOT
ATOM      1  C   UNL     1      -4.408  12.926  23.268  0.00  0.00    +0.000 C 
ATOM      2  O   UNL     1      -4.494  11.956  24.022  0.00  0.00    +0.000 OA
ATOM      3  N   UNL     1      -3.150  13.486  23.001  0.00  0.00    +0.000 N 
ATOM      4  C   UNL     1      -1.939  12.854  23.562  0.00  0.00    +0.000 C 
ATOM      5  C   UNL     1      -0.966  12.376  22.458  0.00  0.00    +0.000 C 
ATOM      6  N   UNL     1      -0.668  13.459  21.485  0.00  0.00    +0.000 N 
ATOM      7  C   UNL     1      -1.870  14.155  20.988  0.00  0.00    +0.000 C 
ATOM      8  C   UNL     1      -2.813  14.608  22.127  0.00  0.00    +0.000 C 
ENDROOT
BRANCH   6   9
ATOM      9  C   UNL     1       0.592  13.574  20.854  0.00  0.00    +0.000 A 
ATOM     10  C   UNL     1       1.003  12.880  19.760  0.00  0.00    +0.000 A 
ATOM     11  C   UNL     1       2.376  13.251  19.217  0.00  0.00    +0.000 A 
ATOM     12  C   UNL     1       2.899  12.569  17.965  0.00  0.00    +0.000 C 
ATOM     13  N   UNL     1       3.177  14.132  19.739  0.00  0.00    +0.000 NA
ATOM     14  C   UNL     1       2.731  14.797  20.836  0.00  0.00    +0.000 A 
ATOM     15  N   UNL     1       3.324  15.759  21.509  0.00  0.00    +0.000 NA
ATOM     16  C   UNL     1       2.418  16.080  22.468  0.00  0.00    +0.000 A 
ATOM     17  N   UNL     1       1.290  15.374  22.466  0.00  0.00    +0.000 NA
ATOM     18  N   UNL     1       1.478  14.540  21.399  0.00  0.00    +0.000 N 
BRANCH  10  19
ATOM     19  C   UNL     1       0.243  11.752  19.104  0.00  0.00    +0.000 C 
BRANCH  19  20
ATOM     20  C   UNL     1       0.764  10.345  19.351  0.00  0.00    +0.000 A 
ATOM     21  C   UNL     1       0.741   9.728  20.613  0.00  0.00    +0.000 A 
ATOM     22  C   UNL     1       1.295   8.461  20.804  0.00  0.00    +0.000 A 
ATOM     23  C   UNL     1       1.860   7.777  19.733  0.00  0.00    +0.000 A 
ATOM     24  C   UNL     1       1.876   8.362  18.468  0.00  0.00    +0.000 A 
ATOM     25  C   UNL     1       1.333   9.636  18.278  0.00  0.00    +0.000 A 
ENDBRANCH  19  20
ENDBRANCH  10  19
ENDBRANCH   6   9
BRANCH   1  31
ATOM     26  C   UNL     1      -6.269  14.650  23.078  0.00  0.00    +0.000 A 
ATOM     27  C   UNL     1      -7.349  15.229  22.393  0.00  0.00    +0.000 A 
ATOM     28  C   UNL     1      -7.916  14.614  21.300  0.00  0.00    +0.000 A 
ATOM     29  C   UNL     1      -7.388  13.411  20.881  0.00  0.00    +0.000 A 
ATOM     30  C   UNL     1      -6.292  12.794  21.530  0.00  0.00    +0.000 A 
ATOM     31  C   UNL     1      -5.701  13.410  22.666  0.00  0.00    +0.000 A 
BRANCH  26  33
ATOM     32  C   UNL     1      -5.521  16.763  23.816  0.00  0.00    +0.000 C 
ATOM     33  O   UNL     1      -5.688  15.370  24.104  0.00  0.00    +0.000 OA
ENDBRANCH  26  33
BRANCH  30  34
ATOM     34  O   UNL     1      -6.019  11.653  20.830  0.00  0.00    +0.000 OA
ATOM     35  C   UNL     1      -6.992  10.769  20.321  0.00  0.00    +0.000 C 
ENDBRANCH  30  34
ENDBRANCH   1  31
TORSDOF 6
ENDMDL
MODEL 4
REMARK VINA RESULT:      -7.3      2.877      8.920
REMARK  Name = 
REMARK  9 active torsions:
REMARK  status: ('A' for Active; 'I' for Inactive)
REMARK    1  A    between atoms: C_1  and  O_2
REMARK    2  A    between atoms: O_2  and  C_3
REMARK    3  A    between atoms: C_7  and  O_8
REMARK    4  A    between atoms: O_8  and  C_9
REMARK    5  A    between atoms: C_10  and  C_11
REMARK    6  A    between atoms: N_16  and  C_17
REMARK    7  A    between atoms: C_18  and  C_19
REMARK    8  A    between atoms: C_19  and  C_20
REMARK    9  A    between atoms: C_26  and  C_27
REMARK                            x       y       z     vdW  Elec       q    Type
REMARK                         _______ _______ _______ _____ _____    ______ ____
ROOT
ATOM      1  C   UNL     1       2.919   6.516  19.022  0.00  0.00    +0.000 C 
ATOM      2  O   UNL     1       3.239   6.091  20.134  0.00  0.00    +0.000 OA
ATOM      3  N   UNL     1       1.999   7.570  18.924  0.00  0.00    +0.000 N 
ATOM      4  C   UNL     1       1.490   8.210  20.154  0.00  0.00    +0.000 C 
ATOM      5  C   UNL     1       1.847   9.714  20.220  0.00  0.00    +0.000 C 
ATOM      6  N   UNL     1       1.447  10.425  18.979  0.00  0.00    +0.000 N 
ATOM      7  C   UNL     1       1.875   9.743  17.742  0.00  0.00    +0.000 C 
ATOM      8  C   UNL     1       1.502   8.243  17.726  0.00  0.00    +0.000 C 
ENDROOT
BRANCH   6   9
ATOM      9  C   UNL     1       1.010  11.770  18.992  0.00  0.00    +0.000 A 
ATOM     10  C   UNL     1      -0.237  12.200  19.321  0.00  0.00    +0.000 A 
ATOM     11  C   UNL     1      -0.432  13.710  19.343  0.00  0.00    +0.000 A 
ATOM     12  C   UNL     1      -1.775  14.288  19.753  0.00  0.00    +0.000 C 
ATOM     13  N   UNL     1       0.475  14.589  19.037  0.00  0.00    +0.000 NA
ATOM     14  C   UNL     1       1.704  14.117  18.707  0.00  0.00    +0.000 A 
ATOM     15  N   UNL     1       2.792  14.795  18.412  0.00  0.00    +0.000 NA
ATOM     16  C   UNL     1       3.724  13.830  18.211  0.00  0.00    +0.000 A 
ATOM     17  N   UNL     1       3.302  12.574  18.340  0.00  0.00    +0.000 NA
ATOM     18  N   UNL     1       1.988  12.749  18.674  0.00  0.00    +0.000 N 
BRANCH  10  19
ATOM     19  C   UNL     1      -1.426  11.309  19.592  0.00  0.00    +0.000 C 
BRANCH  19  20
ATOM     20  C   UNL     1      -2.289  10.942  18.395  0.00  0.00    +0.000 A 
ATOM     21  C   UNL     1      -1.847  10.104  17.358  0.00  0.00    +0.000 A 
ATOM     22  C   UNL     1      -2.651   9.852  16.246  0.00  0.00    +0.000 A 
ATOM     23  C   UNL     1      -3.922  10.412  16.161  0.00  0.00    +0.000 A 
ATOM     24  C   UNL     1      -4.388  11.230  17.187  0.00  0.00    +0.000 A 
ATOM     25  C   UNL     1      -3.578  11.494  18.296  0.00  0.00    +0.000 A 
ENDBRANCH  19  20
ENDBRANCH  10  19
ENDBRANCH   6   9
BRANCH   1  31
ATOM     26  C   UNL     1       4.801   6.393  17.316  0.00  0.00    +0.000 A 
ATOM     27  C   UNL     1       5.561   5.693  16.367  0.00  0.00    +0.000 A 
ATOM     28  C   UNL     1       5.160   4.464  15.894  0.00  0.00    +0.000 A 
ATOM     29  C   UNL     1       3.991   3.924  16.387  0.00  0.00    +0.000 A 
ATOM     30  C   UNL     1       3.197   4.585  17.355  0.00  0.00    +0.000 A 
ATOM     31  C   UNL     1       3.591   5.859  17.846  0.00  0.00    +0.000 A 
BRANCH  26  33
ATOM     32  C   UNL     1       6.708   7.763  17.550  0.00  0.00    +0.000 C 
ATOM     33  O   UNL     1       5.314   7.573  17.818  0.00  0.00    +0.000 OA
ENDBRANCH  26  33
BRANCH  30  34
ATOM     34  O   UNL     1       2.151   3.753  17.633  0.00  0.00    +0.000 OA
ATOM     35  C   UNL     1       2.189   2.697  18.568  0.00  0.00    +0.000 C 
ENDBRANCH  30  34
ENDBRANCH   1  31
TORSDOF 6
ENDMDL
MODEL 5
REMARK VINA RESULT:      -7.3      2.874      9.111
REMARK  Name = 
REMARK  9 active torsions:
REMARK  status: ('A' for Active; 'I' for Inactive)
REMARK    1  A    between atoms: C_1  and  O_2
REMARK    2  A    between atoms: O_2  and  C_3
REMARK    3  A    between atoms: C_7  and  O_8
REMARK    4  A    between atoms: O_8  and  C_9
REMARK    5  A    between atoms: C_10  and  C_11
REMARK    6  A    between atoms: N_16  and  C_17
REMARK    7  A    between atoms: C_18  and  C_19
REMARK    8  A    between atoms: C_19  and  C_20
REMARK    9  A    between atoms: C_26  and  C_27
REMARK                            x       y       z     vdW  Elec       q    Type
REMARK                         _______ _______ _______ _____ _____    ______ ____
ROOT
ATOM      1  C   UNL     1       3.162   6.461  19.036  0.00  0.00    +0.000 C 
ATOM      2  O   UNL     1       3.360   6.011  20.166  0.00  0.00    +0.000 OA
ATOM      3  N   UNL     1       2.217   7.482  18.855  0.00  0.00    +0.000 N 
ATOM      4  C   UNL     1       1.533   8.058  20.030  0.00  0.00    +0.000 C 
ATOM      5  C   UNL     1       1.814   9.572  20.184  0.00  0.00    +0.000 C 
ATOM      6  N   UNL     1       1.540  10.310  18.924  0.00  0.00    +0.000 N 
ATOM      7  C   UNL     1       2.147   9.688  17.731  0.00  0.00    +0.000 C 
ATOM      8  C   UNL     1       1.843   8.176  17.624  0.00  0.00    +0.000 C 
ENDROOT
BRANCH   6   9
ATOM      9  C   UNL     1       1.048  11.635  18.923  0.00  0.00    +0.000 A 
ATOM     10  C   UNL     1      -0.226  12.013  19.212  0.00  0.00    +0.000 A 
ATOM     11  C   UNL     1      -0.485  13.513  19.226  0.00  0.00    +0.000 A 
ATOM     12  C   UNL     1      -1.863  14.035  19.592  0.00  0.00    +0.000 C 
ATOM     13  N   UNL     1       0.394  14.429  18.948  0.00  0.00    +0.000 NA
ATOM     14  C   UNL     1       1.652  14.009  18.657  0.00  0.00    +0.000 A 
ATOM     15  N   UNL     1       2.719  14.732  18.396  0.00  0.00    +0.000 NA
ATOM     16  C   UNL     1       3.697  13.806  18.226  0.00  0.00    +0.000 A 
ATOM     17  N   UNL     1       3.324  12.534  18.343  0.00  0.00    +0.000 NA
ATOM     18  N   UNL     1       1.993  12.654  18.635  0.00  0.00    +0.000 N 
BRANCH  10  19
ATOM     19  C   UNL     1      -1.385  11.073  19.446  0.00  0.00    +0.000 C 
BRANCH  19  20
ATOM     20  C   UNL     1      -2.263  10.761  18.244  0.00  0.00    +0.000 A 
ATOM     21  C   UNL     1      -1.827   9.988  17.155  0.00  0.00    +0.000 A 
ATOM     22  C   UNL     1      -2.646   9.788  16.042  0.00  0.00    +0.000 A 
ATOM     23  C   UNL     1      -3.925  10.334  16.009  0.00  0.00    +0.000 A 
ATOM     24  C   UNL     1      -4.385  11.087  17.087  0.00  0.00    +0.000 A 
ATOM     25  C   UNL     1      -3.560  11.300  18.196  0.00  0.00    +0.000 A 
ENDBRANCH  19  20
ENDBRANCH  10  19
ENDBRANCH   6   9
BRANCH   1  31
ATOM     26  C   UNL     1       3.603   4.668  17.288  0.00  0.00    +0.000 A 
ATOM     27  C   UNL     1       4.242   4.210  16.125  0.00  0.00    +0.000 A 
ATOM     28  C   UNL     1       5.295   4.899  15.568  0.00  0.00    +0.000 A 
ATOM     29  C   UNL     1       5.705   6.068  16.175  0.00  0.00    +0.000 A 
ATOM     30  C   UNL     1       5.084   6.577  17.340  0.00  0.00    +0.000 A 
ATOM     31  C   UNL     1       4.002   5.873  17.935  0.00  0.00    +0.000 A 
BRANCH  26  33
ATOM     32  C   UNL     1       2.574   2.561  17.552  0.00  0.00    +0.000 C 
ATOM     33  O   UNL     1       2.492   3.979  17.734  0.00  0.00    +0.000 OA
ENDBRANCH  26  33
BRANCH  30  34
ATOM     34  O   UNL     1       5.716   7.752  17.635  0.00  0.00    +0.000 OA
ATOM     35  C   UNL     1       7.111   7.950  17.579  0.00  0.00    +0.000 C 
ENDBRANCH  30  34
ENDBRANCH   1  31
TORSDOF 6
ENDMDL
MODEL 6
REMARK VINA RESULT:      -7.3      1.727      3.901
REMARK  Name = 
REMARK  9 active torsions:
REMARK  status: ('A' for Active; 'I' for Inactive)
REMARK    1  A    between atoms: C_1  and  O_2
REMARK    2  A    between atoms: O_2  and  C_3
REMARK    3  A    between atoms: C_7  and  O_8
REMARK    4  A    between atoms: O_8  and  C_9
REMARK    5  A    between atoms: C_10  and  C_11
REMARK    6  A    between atoms: N_16  and  C_17
REMARK    7  A    between atoms: C_18  and  C_19
REMARK    8  A    between atoms: C_19  and  C_20
REMARK    9  A    between atoms: C_26  and  C_27
REMARK                            x       y       z     vdW  Elec       q    Type
REMARK                         _______ _______ _______ _____ _____    ______ ____
ROOT
ATOM      1  C   UNL     1       0.335   9.551  20.200  0.00  0.00    +0.000 C 
ATOM      2  O   UNL     1      -0.333   9.049  21.105  0.00  0.00    +0.000 OA
ATOM      3  N   UNL     1       1.570   8.982  19.856  0.00  0.00    +0.000 N 
ATOM      4  C   UNL     1       2.014   7.743  20.527  0.00  0.00    +0.000 C 
ATOM      5  C   UNL     1       2.212   6.578  19.528  0.00  0.00    +0.000 C 
ATOM      6  N   UNL     1       3.082   6.975  18.390  0.00  0.00    +0.000 N 
ATOM      7  C   UNL     1       2.698   8.259  17.772  0.00  0.00    +0.000 C 
ATOM      8  C   UNL     1       2.506   9.389  18.810  0.00  0.00    +0.000 C 
ENDROOT
BRANCH   6   9
ATOM      9  C   UNL     1       3.958   6.061  17.761  0.00  0.00    +0.000 A 
ATOM     10  C   UNL     1       3.643   4.799  17.364  0.00  0.00    +0.000 A 
ATOM     11  C   UNL     1       4.741   4.044  16.628  0.00  0.00    +0.000 A 
ATOM     12  C   UNL     1       4.467   2.648  16.097  0.00  0.00    +0.000 C 
ATOM     13  N   UNL     1       5.938   4.495  16.397  0.00  0.00    +0.000 NA
ATOM     14  C   UNL     1       6.213   5.756  16.817  0.00  0.00    +0.000 A 
ATOM     15  N   UNL     1       7.319   6.451  16.659  0.00  0.00    +0.000 NA
ATOM     16  C   UNL     1       7.026   7.648  17.229  0.00  0.00    +0.000 A 
ATOM     17  N   UNL     1       5.811   7.761  17.759  0.00  0.00    +0.000 NA
ATOM     18  N   UNL     1       5.267   6.537  17.486  0.00  0.00    +0.000 N 
BRANCH  10  19
ATOM     19  C   UNL     1       2.341   4.090  17.653  0.00  0.00    +0.000 C 
BRANCH  19  20
ATOM     20  C   UNL     1       2.189   3.485  19.041  0.00  0.00    +0.000 A 
ATOM     21  C   UNL     1       0.955   3.391  19.706  0.00  0.00    +0.000 A 
ATOM     22  C   UNL     1       0.877   2.892  21.006  0.00  0.00    +0.000 A 
ATOM     23  C   UNL     1       2.025   2.453  21.657  0.00  0.00    +0.000 A 
ATOM     24  C   UNL     1       3.257   2.518  21.009  0.00  0.00    +0.000 A 
ATOM     25  C   UNL     1       3.339   3.032  19.710  0.00  0.00    +0.000 A 
ENDBRANCH  19  20
ENDBRANCH  10  19
ENDBRANCH   6   9
BRANCH   1  31
ATOM     26  C   UNL     1       0.252  12.049  19.732  0.00  0.00    +0.000 A 
ATOM     27  C   UNL     1      -0.150  13.145  18.953  0.00  0.00    +0.000 A 
ATOM     28  C   UNL     1      -1.084  13.008  17.952  0.00  0.00    +0.000 A 
ATOM     29  C   UNL     1      -1.613  11.755  17.720  0.00  0.00    +0.000 A 
ATOM     30  C   UNL     1      -1.230  10.618  18.469  0.00  0.00    +0.000 A 
ATOM     31  C   UNL     1      -0.274  10.744  19.514  0.00  0.00    +0.000 A 
BRANCH  26  33
ATOM     32  C   UNL     1       1.820  13.561  20.640  0.00  0.00    +0.000 C 
ATOM     33  O   UNL     1       1.264  12.241  20.652  0.00  0.00    +0.000 OA
ENDBRANCH  26  33
BRANCH  30  34
ATOM     34  O   UNL     1      -1.917   9.559  17.947  0.00  0.00    +0.000 OA
ATOM     35  C   UNL     1      -3.273   9.594  17.558  0.00  0.00    +0.000 C 
ENDBRANCH  30  34
ENDBRANCH   1  31
TORSDOF 6
ENDMDL
MODEL 7
REMARK VINA RESULT:      -7.3      4.655     10.817
REMARK  Name = 
REMARK  9 active torsions:
REMARK  status: ('A' for Active; 'I' for Inactive)
REMARK    1  A    between atoms: C_1  and  O_2
REMARK    2  A    between atoms: O_2  and  C_3
REMARK    3  A    between atoms: C_7  and  O_8
REMARK    4  A    between atoms: O_8  and  C_9
REMARK    5  A    between atoms: C_10  and  C_11
REMARK    6  A    between atoms: N_16  and  C_17
REMARK    7  A    between atoms: C_18  and  C_19
REMARK    8  A    between atoms: C_19  and  C_20
REMARK    9  A    between atoms: C_26  and  C_27
REMARK                            x       y       z     vdW  Elec       q    Type
REMARK                         _______ _______ _______ _____ _____    ______ ____
ROOT
ATOM      1  C   UNL     1       0.800   9.888  21.470  0.00  0.00    +0.000 C 
ATOM      2  O   UNL     1       1.435   9.672  22.504  0.00  0.00    +0.000 OA
ATOM      3  N   UNL     1      -0.434  10.552  21.542  0.00  0.00    +0.000 N 
ATOM      4  C   UNL     1      -0.915  11.054  22.845  0.00  0.00    +0.000 C 
ATOM      5  C   UNL     1      -1.102  12.590  22.845  0.00  0.00    +0.000 C 
ATOM      6  N   UNL     1      -1.933  13.039  21.698  0.00  0.00    +0.000 N 
ATOM      7  C   UNL     1      -1.513  12.469  20.404  0.00  0.00    +0.000 C 
ATOM      8  C   UNL     1      -1.333  10.934  20.456  0.00  0.00    +0.000 C 
ENDROOT
BRANCH   6   9
ATOM      9  C   UNL     1      -2.805  14.148  21.791  0.00  0.00    +0.000 A 
ATOM     10  C   UNL     1      -4.139  14.095  22.047  0.00  0.00    +0.000 A 
ATOM     11  C   UNL     1      -4.841  15.439  22.185  0.00  0.00    +0.000 A 
ATOM     12  C   UNL     1      -6.320  15.483  22.525  0.00  0.00    +0.000 C 
ATOM     13  N   UNL     1      -4.276  16.600  22.038  0.00  0.00    +0.000 NA
ATOM     14  C   UNL     1      -2.944  16.608  21.776  0.00  0.00    +0.000 A 
ATOM     15  N   UNL     1      -2.141  17.641  21.637  0.00  0.00    +0.000 NA
ATOM     16  C   UNL     1      -0.925  17.073  21.434  0.00  0.00    +0.000 A 
ATOM     17  N   UNL     1      -0.897  15.743  21.415  0.00  0.00    +0.000 NA
ATOM     18  N   UNL     1      -2.207  15.428  21.647  0.00  0.00    +0.000 N 
BRANCH  10  19
ATOM     19  C   UNL     1      -4.963  12.832  22.135  0.00  0.00    +0.000 C 
BRANCH  19  20
ATOM     20  C   UNL     1      -5.652  12.379  20.857  0.00  0.00    +0.000 A 
ATOM     21  C   UNL     1      -6.908  11.750  20.844  0.00  0.00    +0.000 A 
ATOM     22  C   UNL     1      -7.468  11.289  19.651  0.00  0.00    +0.000 A 
ATOM     23  C   UNL     1      -6.796  11.471  18.447  0.00  0.00    +0.000 A 
ATOM     24  C   UNL     1      -5.558  12.110  18.435  0.00  0.00    +0.000 A 
ATOM     25  C   UNL     1      -4.989  12.561  19.630  0.00  0.00    +0.000 A 
ENDBRANCH  19  20
ENDBRANCH  10  19
ENDBRANCH   6   9
BRANCH   1  31
ATOM     26  C   UNL     1       1.701   8.047  19.966  0.00  0.00    +0.000 A 
ATOM     27  C   UNL     1       2.103   7.566  18.710  0.00  0.00    +0.000 A 
ATOM     28  C   UNL     1       2.284   8.416  17.642  0.00  0.00    +0.000 A 
ATOM     29  C   UNL     1       2.047   9.761  17.832  0.00  0.00    +0.000 A 
ATOM     30  C   UNL     1       1.628  10.292  19.075  0.00  0.00    +0.000 A 
ATOM     31  C   UNL     1       1.447   9.430  20.190  0.00  0.00    +0.000 A 
BRANCH  26  33
ATOM     32  C   UNL     1       1.767   5.776  20.606  0.00  0.00    +0.000 C 
ATOM     33  O   UNL     1       1.445   7.125  20.963  0.00  0.00    +0.000 OA
ENDBRANCH  26  33
BRANCH  30  34
ATOM     34  O   UNL     1       1.457  11.634  18.887  0.00  0.00    +0.000 OA
ATOM     35  C   UNL     1       2.402  12.488  18.280  0.00  0.00    +0.000 C 
ENDBRANCH  30  34
ENDBRANCH   1  31
TORSDOF 6
ENDMDL
MODEL 8
REMARK VINA RESULT:      -7.2      4.337     10.527
REMARK  Name = 
REMARK  9 active torsions:
REMARK  status: ('A' for Active; 'I' for Inactive)
REMARK    1  A    between atoms: C_1  and  O_2
REMARK    2  A    between atoms: O_2  and  C_3
REMARK    3  A    between atoms: C_7  and  O_8
REMARK    4  A    between atoms: O_8  and  C_9
REMARK    5  A    between atoms: C_10  and  C_11
REMARK    6  A    between atoms: N_16  and  C_17
REMARK    7  A    between atoms: C_18  and  C_19
REMARK    8  A    between atoms: C_19  and  C_20
REMARK    9  A    between atoms: C_26  and  C_27
REMARK                            x       y       z     vdW  Elec       q    Type
REMARK                         _______ _______ _______ _____ _____    ______ ____
ROOT
ATOM      1  C   UNL     1       0.822   9.604  21.206  0.00  0.00    +0.000 C 
ATOM      2  O   UNL     1       1.499   9.518  22.232  0.00  0.00    +0.000 OA
ATOM      3  N   UNL     1      -0.368  10.347  21.223  0.00  0.00    +0.000 N 
ATOM      4  C   UNL     1      -0.750  11.082  22.446  0.00  0.00    +0.000 C 
ATOM      5  C   UNL     1      -0.853  12.607  22.201  0.00  0.00    +0.000 C 
ATOM      6  N   UNL     1      -1.719  12.916  21.034  0.00  0.00    +0.000 N 
ATOM      7  C   UNL     1      -1.401  12.119  19.834  0.00  0.00    +0.000 C 
ATOM      8  C   UNL     1      -1.303  10.604  20.129  0.00  0.00    +0.000 C 
ENDROOT
BRANCH   6   9
ATOM      9  C   UNL     1      -2.522  14.078  20.983  0.00  0.00    +0.000 A 
ATOM     10  C   UNL     1      -3.842  14.150  21.303  0.00  0.00    +0.000 A 
ATOM     11  C   UNL     1      -4.461  15.541  21.249  0.00  0.00    +0.000 A 
ATOM     12  C   UNL     1      -5.915  15.731  21.643  0.00  0.00    +0.000 C 
ATOM     13  N   UNL     1      -3.841  16.625  20.888  0.00  0.00    +0.000 NA
ATOM     14  C   UNL     1      -2.527  16.507  20.569  0.00  0.00    +0.000 A 
ATOM     15  N   UNL     1      -1.678  17.452  20.227  0.00  0.00    +0.000 NA
ATOM     16  C   UNL     1      -0.507  16.783  20.066  0.00  0.00    +0.000 A 
ATOM     17  N   UNL     1      -0.553  15.468  20.265  0.00  0.00    +0.000 NA
ATOM     18  N   UNL     1      -1.864  15.277  20.604  0.00  0.00    +0.000 N 
BRANCH  10  19
ATOM     19  C   UNL     1      -4.727  12.973  21.633  0.00  0.00    +0.000 C 
BRANCH  19  20
ATOM     20  C   UNL     1      -5.435  12.304  20.464  0.00  0.00    +0.000 A 
ATOM     21  C   UNL     1      -4.923  12.301  19.157  0.00  0.00    +0.000 A 
ATOM     22  C   UNL     1      -5.643  11.734  18.104  0.00  0.00    +0.000 A 
ATOM     23  C   UNL     1      -6.877  11.138  18.343  0.00  0.00    +0.000 A 
ATOM     24  C   UNL     1      -7.395  11.112  19.637  0.00  0.00    +0.000 A 
ATOM     25  C   UNL     1      -6.680  11.692  20.690  0.00  0.00    +0.000 A 
ENDBRANCH  19  20
ENDBRANCH  10  19
ENDBRANCH   6   9
BRANCH   1  31
ATOM     26  C   UNL     1       1.784   9.655  18.853  0.00  0.00    +0.000 A 
ATOM     27  C   UNL     1       2.493   9.062  17.796  0.00  0.00    +0.000 A 
ATOM     28  C   UNL     1       2.808   7.722  17.809  0.00  0.00    +0.000 A 
ATOM     29  C   UNL     1       2.419   6.971  18.899  0.00  0.00    +0.000 A 
ATOM     30  C   UNL     1       1.715   7.526  19.993  0.00  0.00    +0.000 A 
ATOM     31  C   UNL     1       1.372   8.906  19.991  0.00  0.00    +0.000 A 
BRANCH  26  33
ATOM     32  C   UNL     1       2.462  11.712  17.916  0.00  0.00    +0.000 C 
ATOM     33  O   UNL     1       1.589  11.023  18.818  0.00  0.00    +0.000 OA
ENDBRANCH  26  33
BRANCH  30  34
ATOM     34  O   UNL     1       1.532   6.514  20.892  0.00  0.00    +0.000 OA
ATOM     35  C   UNL     1       2.062   5.214  20.757  0.00  0.00    +0.000 C 
ENDBRANCH  30  34
ENDBRANCH   1  31
TORSDOF 6
ENDMDL
MODEL 9
REMARK VINA RESULT:      -7.2      5.996     10.313
REMARK  Name = 
REMARK  9 active torsions:
REMARK  status: ('A' for Active; 'I' for Inactive)
REMARK    1  A    between atoms: C_1  and  O_2
REMARK    2  A    between atoms: O_2  and  C_3
REMARK    3  A    between atoms: C_7  and  O_8
REMARK    4  A    between atoms: O_8  and  C_9
REMARK    5  A    between atoms: C_10  and  C_11
REMARK    6  A    between atoms: N_16  and  C_17
REMARK    7  A    between atoms: C_18  and  C_19
REMARK    8  A    between atoms: C_19  and  C_20
REMARK    9  A    between atoms: C_26  and  C_27
REMARK                            x       y       z     vdW  Elec       q    Type
REMARK                         _______ _______ _______ _____ _____    ______ ____
ROOT
ATOM      1  C   UNL     1      -3.219  14.945  24.319  0.00  0.00    +0.000 C 
ATOM      2  O   UNL     1      -3.218  14.277  25.354  0.00  0.00    +0.000 OA
ATOM      3  N   UNL     1      -2.594  14.441  23.169  0.00  0.00    +0.000 N 
ATOM      4  C   UNL     1      -2.014  13.083  23.192  0.00  0.00    +0.000 C 
ATOM      5  C   UNL     1      -2.677  12.148  22.153  0.00  0.00    +0.000 C 
ATOM      6  N   UNL     1      -2.692  12.759  20.799  0.00  0.00    +0.000 N 
ATOM      7  C   UNL     1      -3.186  14.149  20.782  0.00  0.00    +0.000 C 
ATOM      8  C   UNL     1      -2.499  15.042  21.840  0.00  0.00    +0.000 C 
ENDROOT
BRANCH   6   9
ATOM      9  C   UNL     1      -2.571  11.982  19.624  0.00  0.00    +0.000 A 
ATOM     10  C   UNL     1      -3.510  11.858  18.649  0.00  0.00    +0.000 A 
ATOM     11  C   UNL     1      -3.103  11.029  17.438  0.00  0.00    +0.000 A 
ATOM     12  C   UNL     1      -4.064  10.880  16.272  0.00  0.00    +0.000 C 
ATOM     13  N   UNL     1      -1.966  10.416  17.297  0.00  0.00    +0.000 NA
ATOM     14  C   UNL     1      -1.060  10.558  18.297  0.00  0.00    +0.000 A 
ATOM     15  N   UNL     1       0.166  10.086  18.367  0.00  0.00    +0.000 NA
ATOM     16  C   UNL     1       0.624  10.566  19.551  0.00  0.00    +0.000 A 
ATOM     17  N   UNL     1      -0.233  11.301  20.255  0.00  0.00    +0.000 NA
ATOM     18  N   UNL     1      -1.332  11.313  19.441  0.00  0.00    +0.000 N 
BRANCH  10  19
ATOM     19  C   UNL     1      -4.913  12.413  18.711  0.00  0.00    +0.000 C 
BRANCH  19  20
ATOM     20  C   UNL     1      -5.934  11.599  19.492  0.00  0.00    +0.000 A 
ATOM     21  C   UNL     1      -6.337  10.307  19.116  0.00  0.00    +0.000 A 
ATOM     22  C   UNL     1      -7.328   9.628  19.826  0.00  0.00    +0.000 A 
ATOM     23  C   UNL     1      -7.917  10.217  20.940  0.00  0.00    +0.000 A 
ATOM     24  C   UNL     1      -7.518  11.489  21.343  0.00  0.00    +0.000 A 
ATOM     25  C   UNL     1      -6.534  12.177  20.625  0.00  0.00    +0.000 A 
ENDBRANCH  19  20
ENDBRANCH  10  19
ENDBRANCH   6   9
BRANCH   1  31
ATOM     26  C   UNL     1      -5.284  16.376  23.925  0.00  0.00    +0.000 A 
ATOM     27  C   UNL     1      -6.053  17.526  24.166  0.00  0.00    +0.000 A 
ATOM     28  C   UNL     1      -5.535  18.603  24.848  0.00  0.00    +0.000 A 
ATOM     29  C   UNL     1      -4.236  18.524  25.304  0.00  0.00    +0.000 A 
ATOM     30  C   UNL     1      -3.426  17.382  25.098  0.00  0.00    +0.000 A 
ATOM     31  C   UNL     1      -3.942  16.264  24.387  0.00  0.00    +0.000 A 
BRANCH  26  33
ATOM     32  C   UNL     1      -7.094  15.633  22.606  0.00  0.00    +0.000 C 
ATOM     33  O   UNL     1      -5.900  15.297  23.321  0.00  0.00    +0.000 OA
ENDBRANCH  26  33
BRANCH  30  34
ATOM     34  O   UNL     1      -2.232  17.637  25.710  0.00  0.00    +0.000 OA
ATOM     35  C   UNL     1      -1.001  17.795  25.038  0.00  0.00    +0.000 C 
ENDBRANCH  30  34
ENDBRANCH   1  31
TORSDOF 6
ENDMDL
