MODEL 1
REMARK VINA RESULT:      -7.0      0.000      0.000
REMARK  Name = 
REMARK  11 active torsions:
REMARK  status: ('A' for Active; 'I' for Inactive)
REMARK    1  A    between atoms: C_1  and  C_2
REMARK    2  A    between atoms: C_2  and  C_3
REMARK    3  A    between atoms: C_7  and  C_8
REMARK    4  A    between atoms: C_8  and  C_9
REMARK    5  A    between atoms: C_8  and  N_18
REMARK    6  A    between atoms: C_9  and  O_10
REMARK    7  A    between atoms: O_10  and  S_11
REMARK    8  A    between atoms: S_11  and  C_14
REMARK    9  A    between atoms: C_21  and  O_22
REMARK   10  A    between atoms: O_22  and  C_23
REMARK   11  A    between atoms: C_23  and  C_25
REMARK                            x       y       z     vdW  Elec       q    Type
REMARK                         _______ _______ _______ _____ _____    ______ ____
ROOT
ATOM      1  C   UNL     1       7.576   5.325  14.905  0.00  0.00    +0.000 C 
ATOM      2  C   UNL     1       6.355   4.505  14.484  0.00  0.00    +0.000 C 
ATOM      3  C   UNL     1       6.553   4.040  13.045  0.00  0.00    +0.000 C 
ATOM      4  O   UNL     1       6.217   3.376  15.351  0.00  0.00    +0.000 OA
ATOM      5  C   UNL     1       4.971   3.517  16.037  0.00  0.00    +0.000 C 
ATOM      6  O   UNL     1       5.154   3.468  17.463  0.00  0.00    +0.000 OA
ATOM      7  C   UNL     1       5.630   4.777  17.818  0.00  0.00    +0.000 C 
ATOM      8  C   UNL     1       4.826   5.740  16.935  0.00  0.00    +0.000 C 
ATOM      9  C   UNL     1       4.467   4.904  15.710  0.00  0.00    +0.000 C 
ATOM     10  O   UNL     1       5.181   5.315  14.545  0.00  0.00    +0.000 OA
ENDROOT
BRANCH   7  11
ATOM     11  C   UNL     1       5.600   5.044  19.335  0.00  0.00    +0.000 C 
BRANCH  11  12
ATOM     12  N   UNL     1       6.970   5.273  19.870  0.00  0.00    +0.000 NA
ATOM     13  N   UNL     1       7.690   6.117  19.295  0.00  0.00    +0.000 NA
ATOM     14  N   UNL     1       8.321   6.893  18.756  0.00  0.00    +0.000 NA
ENDBRANCH  11  12
BRANCH  11  15
ATOM     15  C   UNL     1       4.928   3.882  20.085  0.00  0.00    +0.000 C 
BRANCH  15  16
ATOM     16  O   UNL     1       3.525   4.109  20.207  0.00  0.00    +0.000 OA
BRANCH  16  17
ATOM     17  S   UNL     1       2.580   2.775  20.319  0.00  0.00    +0.000 S 
ATOM     18  O   UNL     1       3.202   1.756  19.488  0.00  0.00    +0.000 OA
ATOM     19  O   UNL     1       2.381   2.524  21.738  0.00  0.00    +0.000 OA
BRANCH  17  20
ATOM     20  C   UNL     1       1.027   3.409  19.535  0.00  0.00    +0.000 C 
ATOM     21  F   UNL     1       0.194   2.411  19.122  0.00  0.00    +0.000 F 
ATOM     22  F   UNL     1       0.299   4.187  20.389  0.00  0.00    +0.000 F 
ATOM     23  F   UNL     1       1.279   4.181  18.438  0.00  0.00    +0.000 F 
ENDBRANCH  17  20
ENDBRANCH  16  17
ENDBRANCH  15  16
ENDBRANCH  11  15
ENDBRANCH   7  11
BRANCH   8  24
ATOM     24  O   UNL     1       3.609   6.143  17.595  0.00  0.00    +0.000 OA
BRANCH  24  25
ATOM     25  C   UNL     1       3.265   7.447  17.433  0.00  0.00    +0.000 C 
ATOM     26  O   UNL     1       3.605   8.167  16.508  0.00  0.00    +0.000 OA
BRANCH  25  27
ATOM     27  C   UNL     1       2.418   7.920  18.559  0.00  0.00    +0.000 A 
ATOM     28  C   UNL     1       2.331   7.106  19.697  0.00  0.00    +0.000 A 
ATOM     29  C   UNL     1       1.530   7.486  20.773  0.00  0.00    +0.000 A 
ATOM     30  C   UNL     1       0.812   8.681  20.718  0.00  0.00    +0.000 A 
ATOM     31  C   UNL     1       0.898   9.497  19.590  0.00  0.00    +0.000 A 
ATOM     32  C   UNL     1       1.701   9.120  18.511  0.00  0.00    +0.000 A 
ENDBRANCH  25  27
ENDBRANCH  24  25
ENDBRANCH   8  24
TORSDOF 9
ENDMDL
MODEL 2
REMARK VINA RESULT:      -6.8      2.583      4.818
REMARK  Name = 
REMARK  11 active torsions:
REMARK  status: ('A' for Active; 'I' for Inactive)
REMARK    1  A    between atoms: C_1  and  C_2
REMARK    2  A    between atoms: C_2  and  C_3
REMARK    3  A    between atoms: C_7  and  C_8
REMARK    4  A    between atoms: C_8  and  C_9
REMARK    5  A    between atoms: C_8  and  N_18
REMARK    6  A    between atoms: C_9  and  O_10
REMARK    7  A    between atoms: O_10  and  S_11
REMARK    8  A    between atoms: S_11  and  C_14
REMARK    9  A    between atoms: C_21  and  O_22
REMARK   10  A    between atoms: O_22  and  C_23
REMARK   11  A    between atoms: C_23  and  C_25
REMARK                            x       y       z     vdW  Elec       q    Type
REMARK                         _______ _______ _______ _____ _____    ______ ____
ROOT
ATOM      1  C   UNL     1       2.335   2.194  17.290  0.00  0.00    +0.000 C 
ATOM      2  C   UNL     1       1.719   2.688  18.601  0.00  0.00    +0.000 C 
ATOM      3  C   UNL     1       0.439   1.903  18.865  0.00  0.00    +0.000 C 
ATOM      4  O   UNL     1       2.648   2.490  19.669  0.00  0.00    +0.000 OA
ATOM      5  C   UNL     1       2.979   3.780  20.189  0.00  0.00    +0.000 C 
ATOM      6  O   UNL     1       4.401   3.996  20.178  0.00  0.00    +0.000 OA
ATOM      7  C   UNL     1       4.710   4.338  18.816  0.00  0.00    +0.000 C 
ATOM      8  C   UNL     1       3.548   5.232  18.363  0.00  0.00    +0.000 C 
ATOM      9  C   UNL     1       2.378   4.784  19.234  0.00  0.00    +0.000 C 
ATOM     10  O   UNL     1       1.389   4.074  18.489  0.00  0.00    +0.000 OA
ENDROOT
BRANCH   7  11
ATOM     11  C   UNL     1       6.129   4.910  18.640  0.00  0.00    +0.000 C 
BRANCH  11  12
ATOM     12  N   UNL     1       6.621   5.532  19.900  0.00  0.00    +0.000 NA
ATOM     13  N   UNL     1       7.800   5.302  20.245  0.00  0.00    +0.000 NA
ATOM     14  N   UNL     1       8.877   5.080  20.531  0.00  0.00    +0.000 NA
ENDBRANCH  11  12
BRANCH  11  15
ATOM     15  C   UNL     1       6.171   5.936  17.495  0.00  0.00    +0.000 C 
BRANCH  15  16
ATOM     16  O   UNL     1       7.102   5.530  16.493  0.00  0.00    +0.000 OA
BRANCH  16  17
ATOM     17  S   UNL     1       6.561   5.552  14.946  0.00  0.00    +0.000 S 
ATOM     18  O   UNL     1       5.617   6.655  14.853  0.00  0.00    +0.000 OA
ATOM     19  O   UNL     1       7.739   5.538  14.093  0.00  0.00    +0.000 OA
BRANCH  17  20
ATOM     20  C   UNL     1       5.681   3.924  14.886  0.00  0.00    +0.000 C 
ATOM     21  F   UNL     1       4.414   3.985  15.388  0.00  0.00    +0.000 F 
ATOM     22  F   UNL     1       5.566   3.447  13.612  0.00  0.00    +0.000 F 
ATOM     23  F   UNL     1       6.332   2.957  15.597  0.00  0.00    +0.000 F 
ENDBRANCH  17  20
ENDBRANCH  16  17
ENDBRANCH  15  16
ENDBRANCH  11  15
ENDBRANCH   7  11
BRANCH   8  24
ATOM     24  O   UNL     1       3.831   6.618  18.641  0.00  0.00    +0.000 OA
BRANCH  24  25
ATOM     25  C   UNL     1       3.134   7.514  17.895  0.00  0.00    +0.000 C 
ATOM     26  O   UNL     1       3.292   7.729  16.704  0.00  0.00    +0.000 OA
BRANCH  25  27
ATOM     27  C   UNL     1       2.143   8.245  18.726  0.00  0.00    +0.000 A 
ATOM     28  C   UNL     1       1.409   9.272  18.116  0.00  0.00    +0.000 A 
ATOM     29  C   UNL     1       0.484  10.010  18.855  0.00  0.00    +0.000 A 
ATOM     30  C   UNL     1       0.289   9.726  20.206  0.00  0.00    +0.000 A 
ATOM     31  C   UNL     1       1.013   8.702  20.818  0.00  0.00    +0.000 A 
ATOM     32  C   UNL     1       1.938   7.960  20.081  0.00  0.00    +0.000 A 
ENDBRANCH  25  27
ENDBRANCH  24  25
ENDBRANCH   8  24
TORSDOF 9
ENDMDL
MODEL 3
REMARK VINA RESULT:      -6.7      2.803      4.843
REMARK  Name = 
REMARK  11 active torsions:
REMARK  status: ('A' for Active; 'I' for Inactive)
REMARK    1  A    between atoms: C_1  and  C_2
REMARK    2  A    between atoms: C_2  and  C_3
REMARK    3  A    between atoms: C_7  and  C_8
REMARK    4  A    between atoms: C_8  and  C_9
REMARK    5  A    between atoms: C_8  and  N_18
REMARK    6  A    between atoms: C_9  and  O_10
REMARK    7  A    between atoms: O_10  and  S_11
REMARK    8  A    between atoms: S_11  and  C_14
REMARK    9  A    between atoms: C_21  and  O_22
REMARK   10  A    between atoms: O_22  and  C_23
REMARK   11  A    between atoms: C_23  and  C_25
REMARK                            x       y       z     vdW  Elec       q    Type
REMARK                         _______ _______ _______ _____ _____    ______ ____
ROOT
ATOM      1  C   UNL     1       2.363   2.182  17.179  0.00  0.00    +0.000 C 
ATOM      2  C   UNL     1       1.758   2.644  18.506  0.00  0.00    +0.000 C 
ATOM      3  C   UNL     1       0.481   1.851  18.762  0.00  0.00    +0.000 C 
ATOM      4  O   UNL     1       2.696   2.420  19.562  0.00  0.00    +0.000 OA
ATOM      5  C   UNL     1       3.031   3.697  20.111  0.00  0.00    +0.000 C 
ATOM      6  O   UNL     1       4.452   3.914  20.093  0.00  0.00    +0.000 OA
ATOM      7  C   UNL     1       4.750   4.290  18.738  0.00  0.00    +0.000 C 
ATOM      8  C   UNL     1       3.584   5.194  18.316  0.00  0.00    +0.000 C 
ATOM      9  C   UNL     1       2.421   4.724  19.185  0.00  0.00    +0.000 C 
ATOM     10  O   UNL     1       1.426   4.031  18.431  0.00  0.00    +0.000 OA
ENDROOT
BRANCH   7  11
ATOM     11  C   UNL     1       6.167   4.867  18.564  0.00  0.00    +0.000 C 
BRANCH  11  12
ATOM     12  N   UNL     1       6.595   5.623  19.773  0.00  0.00    +0.000 NA
ATOM     13  N   UNL     1       7.705   5.346  20.274  0.00  0.00    +0.000 NA
ATOM     14  N   UNL     1       8.722   5.078  20.705  0.00  0.00    +0.000 NA
ENDBRANCH  11  12
BRANCH  11  15
ATOM     15  C   UNL     1       6.245   5.771  17.322  0.00  0.00    +0.000 C 
BRANCH  15  16
ATOM     16  O   UNL     1       7.151   5.228  16.363  0.00  0.00    +0.000 OA
BRANCH  16  17
ATOM     17  S   UNL     1       6.771   5.468  14.787  0.00  0.00    +0.000 S 
ATOM     18  O   UNL     1       5.775   6.528  14.758  0.00  0.00    +0.000 OA
ATOM     19  O   UNL     1       8.029   5.643  14.078  0.00  0.00    +0.000 OA
BRANCH  17  20
ATOM     20  C   UNL     1       6.005   3.832  14.383  0.00  0.00    +0.000 C 
ATOM     21  F   UNL     1       6.078   2.941  15.413  0.00  0.00    +0.000 F 
ATOM     22  F   UNL     1       4.682   3.946  14.067  0.00  0.00    +0.000 F 
ATOM     23  F   UNL     1       6.602   3.232  13.311  0.00  0.00    +0.000 F 
ENDBRANCH  17  20
ENDBRANCH  16  17
ENDBRANCH  15  16
ENDBRANCH  11  15
ENDBRANCH   7  11
BRANCH   8  24
ATOM     24  O   UNL     1       3.868   6.573  18.626  0.00  0.00    +0.000 OA
BRANCH  24  25
ATOM     25  C   UNL     1       3.244   7.486  17.837  0.00  0.00    +0.000 C 
ATOM     26  O   UNL     1       3.467   7.679  16.653  0.00  0.00    +0.000 OA
BRANCH  25  27
ATOM     27  C   UNL     1       2.244   8.266  18.612  0.00  0.00    +0.000 A 
ATOM     28  C   UNL     1       2.036   7.913  19.952  0.00  0.00    +0.000 A 
ATOM     29  C   UNL     1       1.090   8.593  20.719  0.00  0.00    +0.000 A 
ATOM     30  C   UNL     1       0.348   9.628  20.150  0.00  0.00    +0.000 A 
ATOM     31  C   UNL     1       0.555   9.988  18.819  0.00  0.00    +0.000 A 
ATOM     32  C   UNL     1       1.503   9.310  18.048  0.00  0.00    +0.000 A 
ENDBRANCH  25  27
ENDBRANCH  24  25
ENDBRANCH   8  24
TORSDOF 9
ENDMDL
MODEL 4
REMARK VINA RESULT:      -6.7      3.005      5.683
REMARK  Name = 
REMARK  11 active torsions:
REMARK  status: ('A' for Active; 'I' for Inactive)
REMARK    1  A    between atoms: C_1  and  C_2
REMARK    2  A    between atoms: C_2  and  C_3
REMARK    3  A    between atoms: C_7  and  C_8
REMARK    4  A    between atoms: C_8  and  C_9
REMARK    5  A    between atoms: C_8  and  N_18
REMARK    6  A    between atoms: C_9  and  O_10
REMARK    7  A    between atoms: O_10  and  S_11
REMARK    8  A    between atoms: S_11  and  C_14
REMARK    9  A    between atoms: C_21  and  O_22
REMARK   10  A    between atoms: O_22  and  C_23
REMARK   11  A    between atoms: C_23  and  C_25
REMARK                            x       y       z     vdW  Elec       q    Type
REMARK                         _______ _______ _______ _____ _____    ______ ____
ROOT
ATOM      1  C   UNL     1       6.137   8.287  17.610  0.00  0.00    +0.000 C 
ATOM      2  C   UNL     1       7.430   7.479  17.741  0.00  0.00    +0.000 C 
ATOM      3  C   UNL     1       8.543   8.412  18.207  0.00  0.00    +0.000 C 
ATOM      4  O   UNL     1       7.241   6.426  18.690  0.00  0.00    +0.000 OA
ATOM      5  C   UNL     1       7.402   5.189  17.990  0.00  0.00    +0.000 C 
ATOM      6  O   UNL     1       6.251   4.344  18.156  0.00  0.00    +0.000 OA
ATOM      7  C   UNL     1       5.275   4.868  17.240  0.00  0.00    +0.000 C 
ATOM      8  C   UNL     1       6.076   5.250  15.989  0.00  0.00    +0.000 C 
ATOM      9  C   UNL     1       7.475   5.545  16.523  0.00  0.00    +0.000 C 
ATOM     10  O   UNL     1       7.793   6.935  16.471  0.00  0.00    +0.000 OA
ENDROOT
BRANCH   7  11
ATOM     11  C   UNL     1       4.073   3.927  17.029  0.00  0.00    +0.000 C 
BRANCH  11  12
ATOM     12  N   UNL     1       2.784   4.648  17.214  0.00  0.00    +0.000 NA
ATOM     13  N   UNL     1       2.824   5.815  17.659  0.00  0.00    +0.000 NA
ATOM     14  N   UNL     1       2.891   6.876  18.059  0.00  0.00    +0.000 NA
ENDBRANCH  11  12
BRANCH  11  15
ATOM     15  C   UNL     1       4.144   2.721  17.981  0.00  0.00    +0.000 C 
BRANCH  15  16
ATOM     16  O   UNL     1       2.949   2.621  18.754  0.00  0.00    +0.000 OA
BRANCH  16  17
ATOM     17  S   UNL     1       3.058   3.082  20.322  0.00  0.00    +0.000 S 
ATOM     18  O   UNL     1       3.669   1.973  21.039  0.00  0.00    +0.000 OA
ATOM     19  O   UNL     1       3.702   4.386  20.329  0.00  0.00    +0.000 OA
BRANCH  17  20
ATOM     20  C   UNL     1       1.261   3.229  20.744  0.00  0.00    +0.000 C 
ATOM     21  F   UNL     1       0.957   2.706  21.966  0.00  0.00    +0.000 F 
ATOM     22  F   UNL     1       0.842   4.529  20.768  0.00  0.00    +0.000 F 
ATOM     23  F   UNL     1       0.463   2.589  19.840  0.00  0.00    +0.000 F 
ENDBRANCH  17  20
ENDBRANCH  16  17
ENDBRANCH  15  16
ENDBRANCH  11  15
ENDBRANCH   7  11
BRANCH   8  24
ATOM     24  O   UNL     1       6.153   4.140  15.073  0.00  0.00    +0.000 OA
BRANCH  24  25
ATOM     25  C   UNL     1       6.695   4.424  13.860  0.00  0.00    +0.000 C 
ATOM     26  O   UNL     1       7.555   5.261  13.640  0.00  0.00    +0.000 OA
BRANCH  25  27
ATOM     27  C   UNL     1       6.086   3.588  12.793  0.00  0.00    +0.000 A 
ATOM     28  C   UNL     1       4.741   3.817  12.471  0.00  0.00    +0.000 A 
ATOM     29  C   UNL     1       4.110   3.045  11.498  0.00  0.00    +0.000 A 
ATOM     30  C   UNL     1       4.818   2.038  10.841  0.00  0.00    +0.000 A 
ATOM     31  C   UNL     1       6.158   1.808  11.154  0.00  0.00    +0.000 A 
ATOM     32  C   UNL     1       6.795   2.581  12.127  0.00  0.00    +0.000 A 
ENDBRANCH  25  27
ENDBRANCH  24  25
ENDBRANCH   8  24
TORSDOF 9
ENDMDL
MODEL 5
REMARK VINA RESULT:      -6.4      4.680      7.499
REMARK  Name = 
REMARK  11 active torsions:
REMARK  status: ('A' for Active; 'I' for Inactive)
REMARK    1  A    between atoms: C_1  and  C_2
REMARK    2  A    between atoms: C_2  and  C_3
REMARK    3  A    between atoms: C_7  and  C_8
REMARK    4  A    between atoms: C_8  and  C_9
REMARK    5  A    between atoms: C_8  and  N_18
REMARK    6  A    between atoms: C_9  and  O_10
REMARK    7  A    between atoms: O_10  and  S_11
REMARK    8  A    between atoms: S_11  and  C_14
REMARK    9  A    between atoms: C_21  and  O_22
REMARK   10  A    between atoms: O_22  and  C_23
REMARK   11  A    between atoms: C_23  and  C_25
REMARK                            x       y       z     vdW  Elec       q    Type
REMARK                         _______ _______ _______ _____ _____    ______ ____
ROOT
ATOM      1  C   UNL     1       2.602  13.507  20.960  0.00  0.00    +0.000 C 
ATOM      2  C   UNL     1       2.118  13.776  19.533  0.00  0.00    +0.000 C 
ATOM      3  C   UNL     1       2.595  15.161  19.110  0.00  0.00    +0.000 C 
ATOM      4  O   UNL     1       2.650  12.782  18.654  0.00  0.00    +0.000 OA
ATOM      5  C   UNL     1       1.543  12.059  18.110  0.00  0.00    +0.000 C 
ATOM      6  O   UNL     1       1.678  10.647  18.347  0.00  0.00    +0.000 OA
ATOM      7  C   UNL     1       1.275  10.464  19.715  0.00  0.00    +0.000 C 
ATOM      8  C   UNL     1       0.083  11.411  19.903  0.00  0.00    +0.000 C 
ATOM      9  C   UNL     1       0.326  12.517  18.879  0.00  0.00    +0.000 C 
ATOM     10  O   UNL     1       0.691  13.753  19.492  0.00  0.00    +0.000 OA
ENDROOT
BRANCH   7  11
ATOM     11  C   UNL     1       1.048   8.987  20.090  0.00  0.00    +0.000 C 
BRANCH  11  12
ATOM     12  N   UNL     1       1.497   8.707  21.480  0.00  0.00    +0.000 NA
ATOM     13  N   UNL     1       0.991   9.377  22.406  0.00  0.00    +0.000 NA
ATOM     14  N   UNL     1       0.509   9.997  23.227  0.00  0.00    +0.000 NA
ENDBRANCH  11  12
BRANCH  11  15
ATOM     15  C   UNL     1       1.769   8.052  19.104  0.00  0.00    +0.000 C 
BRANCH  15  16
ATOM     16  O   UNL     1       2.564   7.099  19.808  0.00  0.00    +0.000 OA
BRANCH  16  17
ATOM     17  S   UNL     1       3.347   5.989  18.892  0.00  0.00    +0.000 S 
ATOM     18  O   UNL     1       3.520   6.584  17.575  0.00  0.00    +0.000 OA
ATOM     19  O   UNL     1       4.515   5.572  19.651  0.00  0.00    +0.000 OA
BRANCH  17  20
ATOM     20  C   UNL     1       2.073   4.646  18.847  0.00  0.00    +0.000 C 
ATOM     21  F   UNL     1       1.201   4.705  19.894  0.00  0.00    +0.000 F 
ATOM     22  F   UNL     1       1.315   4.694  17.712  0.00  0.00    +0.000 F 
ATOM     23  F   UNL     1       2.632   3.401  18.879  0.00  0.00    +0.000 F 
ENDBRANCH  17  20
ENDBRANCH  16  17
ENDBRANCH  15  16
ENDBRANCH  11  15
ENDBRANCH   7  11
BRANCH   8  24
ATOM     24  O   UNL     1      -1.155  10.745  19.582  0.00  0.00    +0.000 OA
BRANCH  24  25
ATOM     25  C   UNL     1      -2.196  11.565  19.287  0.00  0.00    +0.000 C 
ATOM     26  O   UNL     1      -2.602  12.484  19.980  0.00  0.00    +0.000 OA
BRANCH  25  27
ATOM     27  C   UNL     1      -2.822  11.189  17.993  0.00  0.00    +0.000 A 
ATOM     28  C   UNL     1      -2.118  10.310  17.158  0.00  0.00    +0.000 A 
ATOM     29  C   UNL     1      -2.644   9.944  15.919  0.00  0.00    +0.000 A 
ATOM     30  C   UNL     1      -3.876  10.454  15.509  0.00  0.00    +0.000 A 
ATOM     31  C   UNL     1      -4.584  11.325  16.338  0.00  0.00    +0.000 A 
ATOM     32  C   UNL     1      -4.061  11.692  17.580  0.00  0.00    +0.000 A 
ENDBRANCH  25  27
ENDBRANCH  24  25
ENDBRANCH   8  24
TORSDOF 9
ENDMDL
MODEL 6
REMARK VINA RESULT:      -6.4      3.389      5.388
REMARK  Name = 
REMARK  11 active torsions:
REMARK  status: ('A' for Active; 'I' for Inactive)
REMARK    1  A    between atoms: C_1  and  C_2
REMARK    2  A    between atoms: C_2  and  C_3
REMARK    3  A    between atoms: C_7  and  C_8
REMARK    4  A    between atoms: C_8  and  C_9
REMARK    5  A    between atoms: C_8  and  N_18
REMARK    6  A    between atoms: C_9  and  O_10
REMARK    7  A    between atoms: O_10  and  S_11
REMARK    8  A    between atoms: S_11  and  C_14
REMARK    9  A    between atoms: C_21  and  O_22
REMARK   10  A    between atoms: O_22  and  C_23
REMARK   11  A    between atoms: C_23  and  C_25
REMARK                            x       y       z     vdW  Elec       q    Type
REMARK                         _______ _______ _______ _____ _____    ______ ____
ROOT
ATOM      1  C   UNL     1       4.945   4.774  14.374  0.00  0.00    +0.000 C 
ATOM      2  C   UNL     1       6.313   4.828  15.058  0.00  0.00    +0.000 C 
ATOM      3  C   UNL     1       7.373   4.357  14.068  0.00  0.00    +0.000 C 
ATOM      4  O   UNL     1       6.587   6.169  15.472  0.00  0.00    +0.000 OA
ATOM      5  C   UNL     1       6.689   6.161  16.898  0.00  0.00    +0.000 C 
ATOM      6  O   UNL     1       5.783   7.108  17.489  0.00  0.00    +0.000 OA
ATOM      7  C   UNL     1       4.501   6.456  17.463  0.00  0.00    +0.000 C 
ATOM      8  C   UNL     1       4.799   4.991  17.807  0.00  0.00    +0.000 C 
ATOM      9  C   UNL     1       6.239   4.789  17.343  0.00  0.00    +0.000 C 
ATOM     10  O   UNL     1       6.324   3.955  16.188  0.00  0.00    +0.000 OA
ENDROOT
BRANCH   7  11
ATOM     11  C   UNL     1       3.441   7.166  18.326  0.00  0.00    +0.000 C 
BRANCH  11  12
ATOM     12  N   UNL     1       2.297   6.262  18.627  0.00  0.00    +0.000 NA
ATOM     13  N   UNL     1       1.817   6.290  19.780  0.00  0.00    +0.000 NA
ATOM     14  N   UNL     1       1.396   6.341  20.834  0.00  0.00    +0.000 NA
ENDBRANCH  11  12
BRANCH  11  15
ATOM     15  C   UNL     1       2.935   8.444  17.635  0.00  0.00    +0.000 C 
BRANCH  15  16
ATOM     16  O   UNL     1       1.550   8.647  17.910  0.00  0.00    +0.000 OA
BRANCH  16  17
ATOM     17  S   UNL     1       1.166  10.006  18.741  0.00  0.00    +0.000 S 
ATOM     18  O   UNL     1       1.234   9.662  20.153  0.00  0.00    +0.000 OA
ATOM     19  O   UNL     1       2.012  11.067  18.216  0.00  0.00    +0.000 OA
BRANCH  17  20
ATOM     20  C   UNL     1      -0.591  10.233  18.202  0.00  0.00    +0.000 C 
ATOM     21  F   UNL     1      -1.493   9.824  19.140  0.00  0.00    +0.000 F 
ATOM     22  F   UNL     1      -0.883  11.539  17.932  0.00  0.00    +0.000 F 
ATOM     23  F   UNL     1      -0.877   9.536  17.063  0.00  0.00    +0.000 F 
ENDBRANCH  17  20
ENDBRANCH  16  17
ENDBRANCH  15  16
ENDBRANCH  11  15
ENDBRANCH   7  11
BRANCH   8  24
ATOM     24  O   UNL     1       4.736   4.778  19.231  0.00  0.00    +0.000 OA
BRANCH  24  25
ATOM     25  C   UNL     1       4.584   3.485  19.618  0.00  0.00    +0.000 C 
ATOM     26  O   UNL     1       5.483   2.674  19.772  0.00  0.00    +0.000 OA
BRANCH  25  27
ATOM     27  C   UNL     1       3.150   3.151  19.817  0.00  0.00    +0.000 A 
ATOM     28  C   UNL     1       2.375   2.893  18.678  0.00  0.00    +0.000 A 
ATOM     29  C   UNL     1       1.017   2.602  18.802  0.00  0.00    +0.000 A 
ATOM     30  C   UNL     1       0.427   2.567  20.066  0.00  0.00    +0.000 A 
ATOM     31  C   UNL     1       1.193   2.818  21.204  0.00  0.00    +0.000 A 
ATOM     32  C   UNL     1       2.554   3.109  21.083  0.00  0.00    +0.000 A 
ENDBRANCH  25  27
ENDBRANCH  24  25
ENDBRANCH   8  24
TORSDOF 9
ENDMDL
MODEL 7
REMARK VINA RESULT:      -6.4      0.935      1.402
REMARK  Name = 
REMARK  11 active torsions:
REMARK  status: ('A' for Active; 'I' for Inactive)
REMARK    1  A    between atoms: C_1  and  C_2
REMARK    2  A    between atoms: C_2  and  C_3
REMARK    3  A    between atoms: C_7  and  C_8
REMARK    4  A    between atoms: C_8  and  C_9
REMARK    5  A    between atoms: C_8  and  N_18
REMARK    6  A    between atoms: C_9  and  O_10
REMARK    7  A    between atoms: O_10  and  S_11
REMARK    8  A    between atoms: S_11  and  C_14
REMARK    9  A    between atoms: C_21  and  O_22
REMARK   10  A    between atoms: O_22  and  C_23
REMARK   11  A    between atoms: C_23  and  C_25
REMARK                            x       y       z     vdW  Elec       q    Type
REMARK                         _______ _______ _______ _____ _____    ______ ____
ROOT
ATOM      1  C   UNL     1       7.436   5.283  14.360  0.00  0.00    +0.000 C 
ATOM      2  C   UNL     1       6.266   4.316  14.163  0.00  0.00    +0.000 C 
ATOM      3  C   UNL     1       6.353   3.725  12.760  0.00  0.00    +0.000 C 
ATOM      4  O   UNL     1       6.338   3.275  15.141  0.00  0.00    +0.000 OA
ATOM      5  C   UNL     1       5.166   3.373  15.953  0.00  0.00    +0.000 C 
ATOM      6  O   UNL     1       5.506   3.488  17.345  0.00  0.00    +0.000 OA
ATOM      7  C   UNL     1       5.882   4.865  17.520  0.00  0.00    +0.000 C 
ATOM      8  C   UNL     1       4.893   5.655  16.652  0.00  0.00    +0.000 C 
ATOM      9  C   UNL     1       4.491   4.667  15.560  0.00  0.00    +0.000 C 
ATOM     10  O   UNL     1       5.029   5.019  14.286  0.00  0.00    +0.000 OA
ENDROOT
BRANCH   7  11
ATOM     11  C   UNL     1       5.989   5.284  18.998  0.00  0.00    +0.000 C 
BRANCH  11  12
ATOM     12  N   UNL     1       7.403   5.545  19.384  0.00  0.00    +0.000 NA
ATOM     13  N   UNL     1       7.947   6.582  18.948  0.00  0.00    +0.000 NA
ATOM     14  N   UNL     1       8.414   7.535  18.542  0.00  0.00    +0.000 NA
ENDBRANCH  11  12
BRANCH  11  15
ATOM     15  C   UNL     1       5.380   4.212  19.919  0.00  0.00    +0.000 C 
BRANCH  15  16
ATOM     16  O   UNL     1       3.970   4.395  20.036  0.00  0.00    +0.000 OA
BRANCH  16  17
ATOM     17  S   UNL     1       3.044   3.062  19.814  0.00  0.00    +0.000 S 
ATOM     18  O   UNL     1       2.394   3.219  18.522  0.00  0.00    +0.000 OA
ATOM     19  O   UNL     1       3.904   1.913  20.052  0.00  0.00    +0.000 OA
BRANCH  17  20
ATOM     20  C   UNL     1       1.829   3.276  21.194  0.00  0.00    +0.000 C 
ATOM     21  F   UNL     1       1.470   2.095  21.775  0.00  0.00    +0.000 F 
ATOM     22  F   UNL     1       2.320   4.063  22.196  0.00  0.00    +0.000 F 
ATOM     23  F   UNL     1       0.671   3.868  20.778  0.00  0.00    +0.000 F 
ENDBRANCH  17  20
ENDBRANCH  16  17
ENDBRANCH  15  16
ENDBRANCH  11  15
ENDBRANCH   7  11
BRANCH   8  24
ATOM     24  O   UNL     1       3.720   6.012  17.410  0.00  0.00    +0.000 OA
BRANCH  24  25
ATOM     25  C   UNL     1       3.344   7.314  17.320  0.00  0.00    +0.000 C 
ATOM     26  O   UNL     1       3.649   8.086  16.426  0.00  0.00    +0.000 OA
BRANCH  25  27
ATOM     27  C   UNL     1       2.512   7.711  18.486  0.00  0.00    +0.000 A 
ATOM     28  C   UNL     1       1.849   8.945  18.425  0.00  0.00    +0.000 A 
ATOM     29  C   UNL     1       1.077   9.382  19.500  0.00  0.00    +0.000 A 
ATOM     30  C   UNL     1       0.963   8.588  20.642  0.00  0.00    +0.000 A 
ATOM     31  C   UNL     1       1.616   7.357  20.707  0.00  0.00    +0.000 A 
ATOM     32  C   UNL     1       2.389   6.916  19.630  0.00  0.00    +0.000 A 
ENDBRANCH  25  27
ENDBRANCH  24  25
ENDBRANCH   8  24
TORSDOF 9
ENDMDL
MODEL 8
REMARK VINA RESULT:      -6.3      3.043      5.070
REMARK  Name = 
REMARK  11 active torsions:
REMARK  status: ('A' for Active; 'I' for Inactive)
REMARK    1  A    between atoms: C_1  and  C_2
REMARK    2  A    between atoms: C_2  and  C_3
REMARK    3  A    between atoms: C_7  and  C_8
REMARK    4  A    between atoms: C_8  and  C_9
REMARK    5  A    between atoms: C_8  and  N_18
REMARK    6  A    between atoms: C_9  and  O_10
REMARK    7  A    between atoms: O_10  and  S_11
REMARK    8  A    between atoms: S_11  and  C_14
REMARK    9  A    between atoms: C_21  and  O_22
REMARK   10  A    between atoms: O_22  and  C_23
REMARK   11  A    between atoms: C_23  and  C_25
REMARK                            x       y       z     vdW  Elec       q    Type
REMARK                         _______ _______ _______ _____ _____    ______ ____
ROOT
ATOM      1  C   UNL     1       1.900   2.597  17.385  0.00  0.00    +0.000 C 
ATOM      2  C   UNL     1       1.927   2.900  18.885  0.00  0.00    +0.000 C 
ATOM      3  C   UNL     1       0.936   1.978  19.587  0.00  0.00    +0.000 C 
ATOM      4  O   UNL     1       3.247   2.681  19.391  0.00  0.00    +0.000 OA
ATOM      5  C   UNL     1       3.731   3.936  19.873  0.00  0.00    +0.000 C 
ATOM      6  O   UNL     1       4.985   4.281  19.257  0.00  0.00    +0.000 OA
ATOM      7  C   UNL     1       4.630   4.785  17.958  0.00  0.00    +0.000 C 
ATOM      8  C   UNL     1       3.358   5.610  18.192  0.00  0.00    +0.000 C 
ATOM      9  C   UNL     1       2.726   4.972  19.426  0.00  0.00    +0.000 C 
ATOM     10  O   UNL     1       1.534   4.253  19.114  0.00  0.00    +0.000 OA
ENDROOT
BRANCH   7  11
ATOM     11  C   UNL     1       5.794   5.498  17.245  0.00  0.00    +0.000 C 
BRANCH  11  12
ATOM     12  N   UNL     1       6.463   6.475  18.146  0.00  0.00    +0.000 NA
ATOM     13  N   UNL     1       7.363   6.052  18.903  0.00  0.00    +0.000 NA
ATOM     14  N   UNL     1       8.181   5.641  19.575  0.00  0.00    +0.000 NA
ENDBRANCH  11  12
BRANCH  11  15
ATOM     15  C   UNL     1       5.305   6.207  15.969  0.00  0.00    +0.000 C 
BRANCH  15  16
ATOM     16  O   UNL     1       5.168   5.273  14.899  0.00  0.00    +0.000 OA
BRANCH  16  17
ATOM     17  S   UNL     1       6.501   4.397  14.525  0.00  0.00    +0.000 S 
ATOM     18  O   UNL     1       7.606   5.339  14.436  0.00  0.00    +0.000 OA
ATOM     19  O   UNL     1       6.563   3.304  15.483  0.00  0.00    +0.000 OA
BRANCH  17  20
ATOM     20  C   UNL     1       6.025   3.779  12.846  0.00  0.00    +0.000 C 
ATOM     21  F   UNL     1       6.768   4.331  11.845  0.00  0.00    +0.000 F 
ATOM     22  F   UNL     1       6.174   2.426  12.733  0.00  0.00    +0.000 F 
ATOM     23  F   UNL     1       4.719   4.044  12.549  0.00  0.00    +0.000 F 
ENDBRANCH  17  20
ENDBRANCH  16  17
ENDBRANCH  15  16
ENDBRANCH  11  15
ENDBRANCH   7  11
BRANCH   8  24
ATOM     24  O   UNL     1       3.686   6.981  18.494  0.00  0.00    +0.000 OA
BRANCH  24  25
ATOM     25  C   UNL     1       2.885   7.912  17.914  0.00  0.00    +0.000 C 
ATOM     26  O   UNL     1       2.925   8.262  16.745  0.00  0.00    +0.000 OA
BRANCH  25  27
ATOM     27  C   UNL     1       1.939   8.493  18.902  0.00  0.00    +0.000 A 
ATOM     28  C   UNL     1       1.904   7.927  20.183  0.00  0.00    +0.000 A 
ATOM     29  C   UNL     1       1.017   8.414  21.143  0.00  0.00    +0.000 A 
ATOM     30  C   UNL     1       0.160   9.468  20.826  0.00  0.00    +0.000 A 
ATOM     31  C   UNL     1       0.194  10.039  19.554  0.00  0.00    +0.000 A 
ATOM     32  C   UNL     1       1.083   9.555  18.591  0.00  0.00    +0.000 A 
ENDBRANCH  25  27
ENDBRANCH  24  25
ENDBRANCH   8  24
TORSDOF 9
ENDMDL
MODEL 9
REMARK VINA RESULT:      -6.3      2.917      3.860
REMARK  Name = 
REMARK  11 active torsions:
REMARK  status: ('A' for Active; 'I' for Inactive)
REMARK    1  A    between atoms: C_1  and  C_2
REMARK    2  A    between atoms: C_2  and  C_3
REMARK    3  A    between atoms: C_7  and  C_8
REMARK    4  A    between atoms: C_8  and  C_9
REMARK    5  A    between atoms: C_8  and  N_18
REMARK    6  A    between atoms: C_9  and  O_10
REMARK    7  A    between atoms: O_10  and  S_11
REMARK    8  A    between atoms: S_11  and  C_14
REMARK    9  A    between atoms: C_21  and  O_22
REMARK   10  A    between atoms: O_22  and  C_23
REMARK   11  A    between atoms: C_23  and  C_25
REMARK                            x       y       z     vdW  Elec       q    Type
REMARK                         _______ _______ _______ _____ _____    ______ ____
ROOT
ATOM      1  C   UNL     1       6.385   6.302  18.760  0.00  0.00    +0.000 C 
ATOM      2  C   UNL     1       5.868   5.957  17.362  0.00  0.00    +0.000 C 
ATOM      3  C   UNL     1       7.053   5.562  16.488  0.00  0.00    +0.000 C 
ATOM      4  O   UNL     1       4.939   4.874  17.451  0.00  0.00    +0.000 OA
ATOM      5  C   UNL     1       3.672   5.362  17.000  0.00  0.00    +0.000 C 
ATOM      6  O   UNL     1       2.652   5.150  17.991  0.00  0.00    +0.000 OA
ATOM      7  C   UNL     1       2.846   6.203  18.950  0.00  0.00    +0.000 C 
ATOM      8  C   UNL     1       3.200   7.438  18.111  0.00  0.00    +0.000 C 
ATOM      9  C   UNL     1       3.830   6.857  16.848  0.00  0.00    +0.000 C 
ATOM     10  O   UNL     1       5.235   7.099  16.783  0.00  0.00    +0.000 OA
ENDROOT
BRANCH   7  11
ATOM     11  C   UNL     1       1.671   6.352  19.935  0.00  0.00    +0.000 C 
BRANCH  11  12
ATOM     12  N   UNL     1       1.854   7.536  20.819  0.00  0.00    +0.000 NA
ATOM     13  N   UNL     1       0.831   8.100  21.261  0.00  0.00    +0.000 NA
ATOM     14  N   UNL     1      -0.117   8.589  21.653  0.00  0.00    +0.000 NA
ENDBRANCH  11  12
BRANCH  11  15
ATOM     15  C   UNL     1       1.501   5.081  20.784  0.00  0.00    +0.000 C 
BRANCH  15  16
ATOM     16  O   UNL     1       2.741   4.385  20.899  0.00  0.00    +0.000 OA
BRANCH  16  17
ATOM     17  S   UNL     1       2.667   2.751  20.804  0.00  0.00    +0.000 S 
ATOM     18  O   UNL     1       2.775   2.251  22.166  0.00  0.00    +0.000 OA
ATOM     19  O   UNL     1       1.490   2.432  20.011  0.00  0.00    +0.000 OA
BRANCH  17  20
ATOM     20  C   UNL     1       4.218   2.409  19.852  0.00  0.00    +0.000 C 
ATOM     21  F   UNL     1       4.952   1.388  20.379  0.00  0.00    +0.000 F 
ATOM     22  F   UNL     1       3.962   2.069  18.555  0.00  0.00    +0.000 F 
ATOM     23  F   UNL     1       5.046   3.494  19.804  0.00  0.00    +0.000 F 
ENDBRANCH  17  20
ENDBRANCH  16  17
ENDBRANCH  15  16
ENDBRANCH  11  15
ENDBRANCH   7  11
BRANCH   8  24
ATOM     24  O   UNL     1       2.010   8.165  17.745  0.00  0.00    +0.000 OA
BRANCH  24  25
ATOM     25  C   UNL     1       2.111   9.518  17.815  0.00  0.00    +0.000 C 
ATOM     26  O   UNL     1       3.091  10.179  17.512  0.00  0.00    +0.000 OA
BRANCH  25  27
ATOM     27  C   UNL     1       0.859  10.119  18.344  0.00  0.00    +0.000 A 
ATOM     28  C   UNL     1       0.977  11.131  19.307  0.00  0.00    +0.000 A 
ATOM     29  C   UNL     1      -0.164  11.712  19.859  0.00  0.00    +0.000 A 
ATOM     30  C   UNL     1      -1.428  11.286  19.452  0.00  0.00    +0.000 A 
ATOM     31  C   UNL     1      -1.552  10.283  18.490  0.00  0.00    +0.000 A 
ATOM     32  C   UNL     1      -0.411   9.700  17.934  0.00  0.00    +0.000 A 
ENDBRANCH  25  27
ENDBRANCH  24  25
ENDBRANCH   8  24
TORSDOF 9
ENDMDL
