MODEL 1
REMARK VINA RESULT:      -8.2      0.000      0.000
REMARK  Name = 
REMARK  5 active torsions:
REMARK  status: ('A' for Active; 'I' for Inactive)
REMARK    1  A    between atoms: C_1  and  O_2
REMARK    2  A    between atoms: O_2  and  C_3
REMARK    3  A    between atoms: C_3  and  C_5
REMARK    4  A    between atoms: C_8  and  C_9
REMARK    5  A    between atoms: C_9  and  N_10
REMARK                            x       y       z     vdW  Elec       q    Type
REMARK                         _______ _______ _______ _____ _____    ______ ____
ROOT
ATOM      1  N   UNL     1       2.555   7.037  18.944  0.00  0.00    +0.000 N 
ATOM      2  N   UNL     1       2.710   7.752  17.765  0.00  0.00    +0.000 NA
ATOM      3  N   UNL     1       2.248   8.918  17.661  0.00  0.00    +0.000 NA
ATOM      4  C   UNL     1       1.572   9.459  18.702  0.00  0.00    +0.000 A 
ATOM      5  S   UNL     1       0.925  11.038  18.666  0.00  0.00    +0.000 S 
ATOM      6  C   UNL     1       0.238  10.850  20.216  0.00  0.00    +0.000 A 
ATOM      7  C   UNL     1       0.539   9.625  20.784  0.00  0.00    +0.000 A 
ATOM      8  C   UNL     1       1.315   8.826  19.891  0.00  0.00    +0.000 A 
ATOM      9  C   UNL     1       1.838   7.495  20.046  0.00  0.00    +0.000 A 
ATOM     10  O   UNL     1       1.654   6.835  21.071  0.00  0.00    +0.000 OA
ATOM     11  C   UNL     1       0.038   9.223  22.138  0.00  0.00    +0.000 C 
ATOM     12  C   UNL     1      -0.486  10.431  22.927  0.00  0.00    +0.000 C 
ATOM     13  C   UNL     1      -1.374  11.323  22.048  0.00  0.00    +0.000 C 
ATOM     14  C   UNL     1      -0.580  11.919  20.871  0.00  0.00    +0.000 C 
ENDROOT
BRANCH   1  15
ATOM     15  C   UNL     1       3.186   5.731  18.992  0.00  0.00    +0.000 C 
BRANCH  15  19
ATOM     16  C   UNL     1       5.917   5.043  15.702  0.00  0.00    +0.000 A 
ATOM     17  C   UNL     1       4.855   4.169  15.945  0.00  0.00    +0.000 A 
ATOM     18  C   UNL     1       3.995   4.392  17.021  0.00  0.00    +0.000 A 
ATOM     19  C   UNL     1       4.178   5.490  17.874  0.00  0.00    +0.000 A 
ATOM     20  C   UNL     1       5.265   6.351  17.640  0.00  0.00    +0.000 A 
ATOM     21  C   UNL     1       6.123   6.132  16.560  0.00  0.00    +0.000 A 
BRANCH  16  22
ATOM     22  C   UNL     1       6.776   4.798  14.523  0.00  0.00    +0.000 C 
ATOM     23  O   UNL     1       7.728   5.504  14.217  0.00  0.00    +0.000 OA
BRANCH  22  25
ATOM     24  C   UNL     1       6.594   3.752  12.451  0.00  0.00    +0.000 C 
ATOM     25  O   UNL     1       6.371   3.691  13.856  0.00  0.00    +0.000 OA
ENDBRANCH  22  25
ENDBRANCH  16  22
ENDBRANCH  15  19
ENDBRANCH   1  15
TORSDOF 4
ENDMDL
MODEL 2
REMARK VINA RESULT:      -8.0      3.809      8.814
REMARK  Name = 
REMARK  5 active torsions:
REMARK  status: ('A' for Active; 'I' for Inactive)
REMARK    1  A    between atoms: C_1  and  O_2
REMARK    2  A    between atoms: O_2  and  C_3
REMARK    3  A    between atoms: C_3  and  C_5
REMARK    4  A    between atoms: C_8  and  C_9
REMARK    5  A    between atoms: C_9  and  N_10
REMARK                            x       y       z     vdW  Elec       q    Type
REMARK                         _______ _______ _______ _____ _____    ______ ____
ROOT
ATOM      1  N   UNL     1       1.460   8.931  19.357  0.00  0.00    +0.000 N 
ATOM      2  N   UNL     1       0.930   8.501  20.565  0.00  0.00    +0.000 NA
ATOM      3  N   UNL     1       1.183   7.347  20.998  0.00  0.00    +0.000 NA
ATOM      4  C   UNL     1       1.957   6.518  20.261  0.00  0.00    +0.000 A 
ATOM      5  S   UNL     1       2.374   4.943  20.770  0.00  0.00    +0.000 S 
ATOM      6  C   UNL     1       3.211   4.635  19.316  0.00  0.00    +0.000 A 
ATOM      7  C   UNL     1       3.224   5.729  18.470  0.00  0.00    +0.000 A 
ATOM      8  C   UNL     1       2.491   6.817  19.033  0.00  0.00    +0.000 A 
ATOM      9  C   UNL     1       2.227   8.132  18.513  0.00  0.00    +0.000 A 
ATOM     10  O   UNL     1       2.651   8.499  17.415  0.00  0.00    +0.000 OA
ATOM     11  C   UNL     1       3.888   5.699  17.127  0.00  0.00    +0.000 C 
ATOM     12  C   UNL     1       4.834   4.497  16.993  0.00  0.00    +0.000 C 
ATOM     13  C   UNL     1       4.176   3.214  17.519  0.00  0.00    +0.000 C 
ATOM     14  C   UNL     1       3.863   3.319  19.023  0.00  0.00    +0.000 C 
ENDROOT
BRANCH   1  15
ATOM     15  C   UNL     1       1.170  10.302  18.978  0.00  0.00    +0.000 C 
BRANCH  15  19
ATOM     16  C   UNL     1      -2.976  11.160  18.068  0.00  0.00    +0.000 A 
ATOM     17  C   UNL     1      -2.318  11.828  19.104  0.00  0.00    +0.000 A 
ATOM     18  C   UNL     1      -0.988  11.526  19.399  0.00  0.00    +0.000 A 
ATOM     19  C   UNL     1      -0.290  10.554  18.667  0.00  0.00    +0.000 A 
ATOM     20  C   UNL     1      -0.966   9.867  17.644  0.00  0.00    +0.000 A 
ATOM     21  C   UNL     1      -2.296  10.171  17.344  0.00  0.00    +0.000 A 
BRANCH  16  22
ATOM     22  C   UNL     1      -4.371  11.544  17.757  0.00  0.00    +0.000 C 
ATOM     23  O   UNL     1      -4.737  11.939  16.657  0.00  0.00    +0.000 OA
BRANCH  22  25
ATOM     24  C   UNL     1      -6.403  10.735  18.553  0.00  0.00    +0.000 C 
ATOM     25  O   UNL     1      -5.166  11.381  18.840  0.00  0.00    +0.000 OA
ENDBRANCH  22  25
ENDBRANCH  16  22
ENDBRANCH  15  19
ENDBRANCH   1  15
TORSDOF 4
ENDMDL
MODEL 3
REMARK VINA RESULT:      -8.0      4.074      8.319
REMARK  Name = 
REMARK  5 active torsions:
REMARK  status: ('A' for Active; 'I' for Inactive)
REMARK    1  A    between atoms: C_1  and  O_2
REMARK    2  A    between atoms: O_2  and  C_3
REMARK    3  A    between atoms: C_3  and  C_5
REMARK    4  A    between atoms: C_8  and  C_9
REMARK    5  A    between atoms: C_9  and  N_10
REMARK                            x       y       z     vdW  Elec       q    Type
REMARK                         _______ _______ _______ _____ _____    ______ ____
ROOT
ATOM      1  N   UNL     1       1.766   8.879  19.243  0.00  0.00    +0.000 N 
ATOM      2  N   UNL     1       2.456   8.989  18.044  0.00  0.00    +0.000 NA
ATOM      3  N   UNL     1       3.025   7.986  17.541  0.00  0.00    +0.000 NA
ATOM      4  C   UNL     1       2.981   6.802  18.195  0.00  0.00    +0.000 A 
ATOM      5  S   UNL     1       3.703   5.380  17.586  0.00  0.00    +0.000 S 
ATOM      6  C   UNL     1       3.265   4.496  18.978  0.00  0.00    +0.000 A 
ATOM      7  C   UNL     1       2.531   5.251  19.875  0.00  0.00    +0.000 A 
ATOM      8  C   UNL     1       2.373   6.590  19.407  0.00  0.00    +0.000 A 
ATOM      9  C   UNL     1       1.706   7.715  20.004  0.00  0.00    +0.000 A 
ATOM     10  O   UNL     1       1.139   7.635  21.096  0.00  0.00    +0.000 OA
ATOM     11  C   UNL     1       2.041   4.697  21.179  0.00  0.00    +0.000 C 
ATOM     12  C   UNL     1       2.116   3.164  21.204  0.00  0.00    +0.000 C 
ATOM     13  C   UNL     1       3.458   2.666  20.649  0.00  0.00    +0.000 C 
ATOM     14  C   UNL     1       3.634   3.058  19.170  0.00  0.00    +0.000 C 
ENDROOT
BRANCH   1  15
ATOM     15  C   UNL     1       1.083  10.074  19.704  0.00  0.00    +0.000 C 
BRANCH  15  19
ATOM     16  C   UNL     1      -2.666  10.937  17.715  0.00  0.00    +0.000 A 
ATOM     17  C   UNL     1      -2.319  11.587  18.903  0.00  0.00    +0.000 A 
ATOM     18  C   UNL     1      -1.118  11.284  19.543  0.00  0.00    +0.000 A 
ATOM     19  C   UNL     1      -0.240  10.327  19.012  0.00  0.00    +0.000 A 
ATOM     20  C   UNL     1      -0.607   9.657  17.832  0.00  0.00    +0.000 A 
ATOM     21  C   UNL     1      -1.807   9.964  17.187  0.00  0.00    +0.000 A 
BRANCH  16  22
ATOM     22  C   UNL     1      -3.926  11.322  17.043  0.00  0.00    +0.000 C 
ATOM     23  O   UNL     1      -4.178  11.065  15.873  0.00  0.00    +0.000 OA
BRANCH  22  25
ATOM     24  C   UNL     1      -5.990  12.361  17.323  0.00  0.00    +0.000 C 
ATOM     25  O   UNL     1      -4.748  11.973  17.901  0.00  0.00    +0.000 OA
ENDBRANCH  22  25
ENDBRANCH  16  22
ENDBRANCH  15  19
ENDBRANCH   1  15
TORSDOF 4
ENDMDL
MODEL 4
REMARK VINA RESULT:      -7.8      4.092      7.965
REMARK  Name = 
REMARK  5 active torsions:
REMARK  status: ('A' for Active; 'I' for Inactive)
REMARK    1  A    between atoms: C_1  and  O_2
REMARK    2  A    between atoms: O_2  and  C_3
REMARK    3  A    between atoms: C_3  and  C_5
REMARK    4  A    between atoms: C_8  and  C_9
REMARK    5  A    between atoms: C_9  and  N_10
REMARK                            x       y       z     vdW  Elec       q    Type
REMARK                         _______ _______ _______ _____ _____    ______ ____
ROOT
ATOM      1  N   UNL     1       1.638   8.869  19.335  0.00  0.00    +0.000 N 
ATOM      2  N   UNL     1       2.319   9.044  18.139  0.00  0.00    +0.000 NA
ATOM      3  N   UNL     1       2.940   8.085  17.612  0.00  0.00    +0.000 NA
ATOM      4  C   UNL     1       2.960   6.885  18.238  0.00  0.00    +0.000 A 
ATOM      5  S   UNL     1       3.756   5.518  17.595  0.00  0.00    +0.000 S 
ATOM      6  C   UNL     1       3.368   4.580  18.966  0.00  0.00    +0.000 A 
ATOM      7  C   UNL     1       2.597   5.273  19.882  0.00  0.00    +0.000 A 
ATOM      8  C   UNL     1       2.367   6.612  19.445  0.00  0.00    +0.000 A 
ATOM      9  C   UNL     1       1.642   7.686  20.069  0.00  0.00    +0.000 A 
ATOM     10  O   UNL     1       1.082   7.550  21.159  0.00  0.00    +0.000 OA
ATOM     11  C   UNL     1       2.140   4.663  21.172  0.00  0.00    +0.000 C 
ATOM     12  C   UNL     1       2.296   3.136  21.161  0.00  0.00    +0.000 C 
ATOM     13  C   UNL     1       3.662   2.724  20.593  0.00  0.00    +0.000 C 
ATOM     14  C   UNL     1       3.814   3.159  19.124  0.00  0.00    +0.000 C 
ENDROOT
BRANCH   1  15
ATOM     15  C   UNL     1       0.893  10.014  19.825  0.00  0.00    +0.000 C 
BRANCH  15  19
ATOM     16  C   UNL     1      -2.507  11.026  17.341  0.00  0.00    +0.000 A 
ATOM     17  C   UNL     1      -1.557  11.992  17.682  0.00  0.00    +0.000 A 
ATOM     18  C   UNL     1      -0.478  11.657  18.500  0.00  0.00    +0.000 A 
ATOM     19  C   UNL     1      -0.326  10.352  18.993  0.00  0.00    +0.000 A 
ATOM     20  C   UNL     1      -1.299   9.391  18.668  0.00  0.00    +0.000 A 
ATOM     21  C   UNL     1      -2.377   9.725  17.845  0.00  0.00    +0.000 A 
BRANCH  16  22
ATOM     22  C   UNL     1      -3.609  11.412  16.433  0.00  0.00    +0.000 C 
ATOM     23  O   UNL     1      -4.715  11.767  16.819  0.00  0.00    +0.000 OA
BRANCH  22  25
ATOM     24  C   UNL     1      -3.660  10.150  14.477  0.00  0.00    +0.000 C 
ATOM     25  O   UNL     1      -3.216  11.330  15.140  0.00  0.00    +0.000 OA
ENDBRANCH  22  25
ENDBRANCH  16  22
ENDBRANCH  15  19
ENDBRANCH   1  15
TORSDOF 4
ENDMDL
MODEL 5
REMARK VINA RESULT:      -7.7      0.929      1.361
REMARK  Name = 
REMARK  5 active torsions:
REMARK  status: ('A' for Active; 'I' for Inactive)
REMARK    1  A    between atoms: C_1  and  O_2
REMARK    2  A    between atoms: O_2  and  C_3
REMARK    3  A    between atoms: C_3  and  C_5
REMARK    4  A    between atoms: C_8  and  C_9
REMARK    5  A    between atoms: C_9  and  N_10
REMARK                            x       y       z     vdW  Elec       q    Type
REMARK                         _______ _______ _______ _____ _____    ______ ____
ROOT
ATOM      1  N   UNL     1       2.114   7.306  19.472  0.00  0.00    +0.000 N 
ATOM      2  N   UNL     1       2.421   7.909  18.262  0.00  0.00    +0.000 NA
ATOM      3  N   UNL     1       2.064   9.093  18.030  0.00  0.00    +0.000 NA
ATOM      4  C   UNL     1       1.353   9.766  18.965  0.00  0.00    +0.000 A 
ATOM      5  S   UNL     1       0.840  11.381  18.755  0.00  0.00    +0.000 S 
ATOM      6  C   UNL     1       0.018  11.371  20.250  0.00  0.00    +0.000 A 
ATOM      7  C   UNL     1       0.172  10.178  20.932  0.00  0.00    +0.000 A 
ATOM      8  C   UNL     1       0.950   9.254  20.172  0.00  0.00    +0.000 A 
ATOM      9  C   UNL     1       1.350   7.904  20.471  0.00  0.00    +0.000 A 
ATOM     10  O   UNL     1       1.032   7.345  21.523  0.00  0.00    +0.000 OA
ATOM     11  C   UNL     1      -0.467   9.925  22.264  0.00  0.00    +0.000 C 
ATOM     12  C   UNL     1      -0.953  11.229  22.912  0.00  0.00    +0.000 C 
ATOM     13  C   UNL     1      -1.693  12.110  21.895  0.00  0.00    +0.000 C 
ATOM     14  C   UNL     1      -0.761  12.548  20.750  0.00  0.00    +0.000 C 
ENDROOT
BRANCH   1  15
ATOM     15  C   UNL     1       2.631   5.964  19.673  0.00  0.00    +0.000 C 
BRANCH  15  19
ATOM     16  C   UNL     1       5.624   4.710  16.804  0.00  0.00    +0.000 A 
ATOM     17  C   UNL     1       5.928   5.651  17.791  0.00  0.00    +0.000 A 
ATOM     18  C   UNL     1       4.948   6.061  18.696  0.00  0.00    +0.000 A 
ATOM     19  C   UNL     1       3.647   5.540  18.633  0.00  0.00    +0.000 A 
ATOM     20  C   UNL     1       3.340   4.613  17.622  0.00  0.00    +0.000 A 
ATOM     21  C   UNL     1       4.322   4.198  16.719  0.00  0.00    +0.000 A 
BRANCH  16  22
ATOM     22  C   UNL     1       6.704   4.266  15.896  0.00  0.00    +0.000 C 
ATOM     23  O   UNL     1       7.892   4.489  16.094  0.00  0.00    +0.000 OA
BRANCH  22  25
ATOM     24  C   UNL     1       6.415   4.211  13.587  0.00  0.00    +0.000 C 
ATOM     25  O   UNL     1       6.196   3.580  14.845  0.00  0.00    +0.000 OA
ENDBRANCH  22  25
ENDBRANCH  16  22
ENDBRANCH  15  19
ENDBRANCH   1  15
TORSDOF 4
ENDMDL
MODEL 6
REMARK VINA RESULT:      -7.7      3.827      8.666
REMARK  Name = 
REMARK  5 active torsions:
REMARK  status: ('A' for Active; 'I' for Inactive)
REMARK    1  A    between atoms: C_1  and  O_2
REMARK    2  A    between atoms: O_2  and  C_3
REMARK    3  A    between atoms: C_3  and  C_5
REMARK    4  A    between atoms: C_8  and  C_9
REMARK    5  A    between atoms: C_9  and  N_10
REMARK                            x       y       z     vdW  Elec       q    Type
REMARK                         _______ _______ _______ _____ _____    ______ ____
ROOT
ATOM      1  N   UNL     1       1.379   9.066  19.661  0.00  0.00    +0.000 N 
ATOM      2  N   UNL     1       0.876   8.353  20.739  0.00  0.00    +0.000 NA
ATOM      3  N   UNL     1       1.216   7.157  20.928  0.00  0.00    +0.000 NA
ATOM      4  C   UNL     1       2.060   6.562  20.053  0.00  0.00    +0.000 A 
ATOM      5  S   UNL     1       2.597   4.951  20.233  0.00  0.00    +0.000 S 
ATOM      6  C   UNL     1       3.466   5.020  18.767  0.00  0.00    +0.000 A 
ATOM      7  C   UNL     1       3.399   6.265  18.169  0.00  0.00    +0.000 A 
ATOM      8  C   UNL     1       2.578   7.151  18.928  0.00  0.00    +0.000 A 
ATOM      9  C   UNL     1       2.214   8.523  18.688  0.00  0.00    +0.000 A 
ATOM     10  O   UNL     1       2.616   9.142  17.700  0.00  0.00    +0.000 OA
ATOM     11  C   UNL     1       4.074   6.568  16.865  0.00  0.00    +0.000 C 
ATOM     12  C   UNL     1       5.113   5.496  16.506  0.00  0.00    +0.000 C 
ATOM     13  C   UNL     1       4.555   4.085  16.737  0.00  0.00    +0.000 C 
ATOM     14  C   UNL     1       4.224   3.849  18.222  0.00  0.00    +0.000 C 
ENDROOT
BRANCH   1  15
ATOM     15  C   UNL     1       0.984  10.460  19.569  0.00  0.00    +0.000 C 
BRANCH  15  19
ATOM     16  C   UNL     1      -2.929  10.918  17.771  0.00  0.00    +0.000 A 
ATOM     17  C   UNL     1      -1.964  10.092  17.187  0.00  0.00    +0.000 A 
ATOM     18  C   UNL     1      -0.701   9.970  17.766  0.00  0.00    +0.000 A 
ATOM     19  C   UNL     1      -0.376  10.669  18.938  0.00  0.00    +0.000 A 
ATOM     20  C   UNL     1      -1.341  11.518  19.507  0.00  0.00    +0.000 A 
ATOM     21  C   UNL     1      -2.608  11.637  18.930  0.00  0.00    +0.000 A 
BRANCH  16  22
ATOM     22  C   UNL     1      -4.271  10.981  17.152  0.00  0.00    +0.000 C 
ATOM     23  O   UNL     1      -4.468  10.884  15.947  0.00  0.00    +0.000 OA
BRANCH  22  25
ATOM     24  C   UNL     1      -6.276  12.024  17.707  0.00  0.00    +0.000 C 
ATOM     25  O   UNL     1      -5.228  11.141  18.096  0.00  0.00    +0.000 OA
ENDBRANCH  22  25
ENDBRANCH  16  22
ENDBRANCH  15  19
ENDBRANCH   1  15
TORSDOF 4
ENDMDL
MODEL 7
REMARK VINA RESULT:      -7.7      3.579      8.698
REMARK  Name = 
REMARK  5 active torsions:
REMARK  status: ('A' for Active; 'I' for Inactive)
REMARK    1  A    between atoms: C_1  and  O_2
REMARK    2  A    between atoms: O_2  and  C_3
REMARK    3  A    between atoms: C_3  and  C_5
REMARK    4  A    between atoms: C_8  and  C_9
REMARK    5  A    between atoms: C_9  and  N_10
REMARK                            x       y       z     vdW  Elec       q    Type
REMARK                         _______ _______ _______ _____ _____    ______ ____
ROOT
ATOM      1  N   UNL     1       1.820   8.601  19.201  0.00  0.00    +0.000 N 
ATOM      2  N   UNL     1       1.271   8.335  20.447  0.00  0.00    +0.000 NA
ATOM      3  N   UNL     1       1.382   7.193  20.963  0.00  0.00    +0.000 NA
ATOM      4  C   UNL     1       2.019   6.215  20.278  0.00  0.00    +0.000 A 
ATOM      5  S   UNL     1       2.238   4.641  20.900  0.00  0.00    +0.000 S 
ATOM      6  C   UNL     1       2.986   4.117  19.459  0.00  0.00    +0.000 A 
ATOM      7  C   UNL     1       3.120   5.135  18.531  0.00  0.00    +0.000 A 
ATOM      8  C   UNL     1       2.554   6.349  19.022  0.00  0.00    +0.000 A 
ATOM      9  C   UNL     1       2.451   7.646  18.408  0.00  0.00    +0.000 A 
ATOM     10  O   UNL     1       2.889   7.871  17.277  0.00  0.00    +0.000 OA
ATOM     11  C   UNL     1       3.738   4.917  17.183  0.00  0.00    +0.000 C 
ATOM     12  C   UNL     1       4.512   3.593  17.125  0.00  0.00    +0.000 C 
ATOM     13  C   UNL     1       3.705   2.451  17.759  0.00  0.00    +0.000 C 
ATOM     14  C   UNL     1       3.451   2.708  19.256  0.00  0.00    +0.000 C 
ENDROOT
BRANCH   1  15
ATOM     15  C   UNL     1       1.703   9.966  18.723  0.00  0.00    +0.000 C 
BRANCH  15  19
ATOM     16  C   UNL     1      -2.397  11.358  18.785  0.00  0.00    +0.000 A 
ATOM     17  C   UNL     1      -1.998  10.346  17.908  0.00  0.00    +0.000 A 
ATOM     18  C   UNL     1      -0.669   9.921  17.886  0.00  0.00    +0.000 A 
ATOM     19  C   UNL     1       0.286  10.499  18.736  0.00  0.00    +0.000 A 
ATOM     20  C   UNL     1      -0.116  11.535  19.596  0.00  0.00    +0.000 A 
ATOM     21  C   UNL     1      -1.447  11.956  19.624  0.00  0.00    +0.000 A 
BRANCH  16  22
ATOM     22  C   UNL     1      -3.825  11.744  18.812  0.00  0.00    +0.000 C 
ATOM     23  O   UNL     1      -4.285  12.594  19.564  0.00  0.00    +0.000 OA
BRANCH  22  25
ATOM     24  C   UNL     1      -5.276  11.864  16.995  0.00  0.00    +0.000 C 
ATOM     25  O   UNL     1      -4.528  11.045  17.889  0.00  0.00    +0.000 OA
ENDBRANCH  22  25
ENDBRANCH  16  22
ENDBRANCH  15  19
ENDBRANCH   1  15
TORSDOF 4
ENDMDL
MODEL 8
REMARK VINA RESULT:      -7.7      3.350      4.197
REMARK  Name = 
REMARK  5 active torsions:
REMARK  status: ('A' for Active; 'I' for Inactive)
REMARK    1  A    between atoms: C_1  and  O_2
REMARK    2  A    between atoms: O_2  and  C_3
REMARK    3  A    between atoms: C_3  and  C_5
REMARK    4  A    between atoms: C_8  and  C_9
REMARK    5  A    between atoms: C_9  and  N_10
REMARK                            x       y       z     vdW  Elec       q    Type
REMARK                         _______ _______ _______ _____ _____    ______ ____
ROOT
ATOM      1  N   UNL     1       1.353   8.883  19.955  0.00  0.00    +0.000 N 
ATOM      2  N   UNL     1       1.136   9.135  18.608  0.00  0.00    +0.000 NA
ATOM      3  N   UNL     1       0.315  10.018  18.248  0.00  0.00    +0.000 NA
ATOM      4  C   UNL     1      -0.376  10.704  19.189  0.00  0.00    +0.000 A 
ATOM      5  S   UNL     1      -1.495  11.934  18.804  0.00  0.00    +0.000 S 
ATOM      6  C   UNL     1      -1.904  12.151  20.445  0.00  0.00    +0.000 A 
ATOM      7  C   UNL     1      -1.164  11.340  21.288  0.00  0.00    +0.000 A 
ATOM      8  C   UNL     1      -0.280  10.504  20.543  0.00  0.00    +0.000 A 
ATOM      9  C   UNL     1       0.657   9.506  20.987  0.00  0.00    +0.000 A 
ATOM     10  O   UNL     1       0.812   9.241  22.181  0.00  0.00    +0.000 OA
ATOM     11  C   UNL     1      -1.352  11.342  22.775  0.00  0.00    +0.000 C 
ATOM     12  C   UNL     1      -2.143  12.573  23.241  0.00  0.00    +0.000 C 
ATOM     13  C   UNL     1      -3.364  12.819  22.343  0.00  0.00    +0.000 C 
ATOM     14  C   UNL     1      -2.942  13.131  20.896  0.00  0.00    +0.000 C 
ENDROOT
BRANCH   1  15
ATOM     15  C   UNL     1       2.370   7.897  20.270  0.00  0.00    +0.000 C 
BRANCH  15  19
ATOM     16  C   UNL     1       1.552   3.884  18.862  0.00  0.00    +0.000 A 
ATOM     17  C   UNL     1       2.110   4.842  18.011  0.00  0.00    +0.000 A 
ATOM     18  C   UNL     1       2.349   6.136  18.472  0.00  0.00    +0.000 A 
ATOM     19  C   UNL     1       2.037   6.500  19.791  0.00  0.00    +0.000 A 
ATOM     20  C   UNL     1       1.451   5.540  20.634  0.00  0.00    +0.000 A 
ATOM     21  C   UNL     1       1.216   4.242  20.175  0.00  0.00    +0.000 A 
BRANCH  16  22
ATOM     22  C   UNL     1       1.360   2.511  18.347  0.00  0.00    +0.000 C 
ATOM     23  O   UNL     1       0.325   1.872  18.488  0.00  0.00    +0.000 OA
BRANCH  22  25
ATOM     24  C   UNL     1       3.436   1.478  18.550  0.00  0.00    +0.000 C 
ATOM     25  O   UNL     1       2.467   2.082  17.698  0.00  0.00    +0.000 OA
ENDBRANCH  22  25
ENDBRANCH  16  22
ENDBRANCH  15  19
ENDBRANCH   1  15
TORSDOF 4
ENDMDL
MODEL 9
REMARK VINA RESULT:      -7.5      3.192      4.085
REMARK  Name = 
REMARK  5 active torsions:
REMARK  status: ('A' for Active; 'I' for Inactive)
REMARK    1  A    between atoms: C_1  and  O_2
REMARK    2  A    between atoms: O_2  and  C_3
REMARK    3  A    between atoms: C_3  and  C_5
REMARK    4  A    between atoms: C_8  and  C_9
REMARK    5  A    between atoms: C_9  and  N_10
REMARK                            x       y       z     vdW  Elec       q    Type
REMARK                         _______ _______ _______ _____ _____    ______ ____
ROOT
ATOM      1  N   UNL     1       1.583   8.558  19.341  0.00  0.00    +0.000 N 
ATOM      2  N   UNL     1       1.774   7.828  20.505  0.00  0.00    +0.000 NA
ATOM      3  N   UNL     1       1.205   8.170  21.573  0.00  0.00    +0.000 NA
ATOM      4  C   UNL     1       0.424   9.276  21.584  0.00  0.00    +0.000 A 
ATOM      5  S   UNL     1      -0.407   9.810  22.976  0.00  0.00    +0.000 S 
ATOM      6  C   UNL     1      -1.002  11.184  22.160  0.00  0.00    +0.000 A 
ATOM      7  C   UNL     1      -0.624  11.216  20.830  0.00  0.00    +0.000 A 
ATOM      8  C   UNL     1       0.205  10.099  20.509  0.00  0.00    +0.000 A 
ATOM      9  C   UNL     1       0.835   9.731  19.269  0.00  0.00    +0.000 A 
ATOM     10  O   UNL     1       0.712  10.408  18.246  0.00  0.00    +0.000 OA
ATOM     11  C   UNL     1      -1.016  12.332  19.909  0.00  0.00    +0.000 C 
ATOM     12  C   UNL     1      -2.154  13.176  20.500  0.00  0.00    +0.000 C 
ATOM     13  C   UNL     1      -1.894  13.497  21.979  0.00  0.00    +0.000 C 
ATOM     14  C   UNL     1      -1.854  12.216  22.832  0.00  0.00    +0.000 C 
ENDROOT
BRANCH   1  15
ATOM     15  C   UNL     1       2.224   8.043  18.145  0.00  0.00    +0.000 C 
BRANCH  15  19
ATOM     16  C   UNL     1       3.459   3.916  18.590  0.00  0.00    +0.000 A 
ATOM     17  C   UNL     1       4.351   4.962  18.842  0.00  0.00    +0.000 A 
ATOM     18  C   UNL     1       3.945   6.286  18.675  0.00  0.00    +0.000 A 
ATOM     19  C   UNL     1       2.643   6.592  18.253  0.00  0.00    +0.000 A 
ATOM     20  C   UNL     1       1.758   5.535  17.975  0.00  0.00    +0.000 A 
ATOM     21  C   UNL     1       2.162   4.210  18.148  0.00  0.00    +0.000 A 
BRANCH  16  22
ATOM     22  C   UNL     1       3.915   2.529  18.826  0.00  0.00    +0.000 C 
ATOM     23  O   UNL     1       3.398   1.547  18.308  0.00  0.00    +0.000 OA
BRANCH  22  25
ATOM     24  C   UNL     1       4.831   1.597  20.752  0.00  0.00    +0.000 C 
ATOM     25  O   UNL     1       4.976   2.509  19.667  0.00  0.00    +0.000 OA
ENDBRANCH  22  25
ENDBRANCH  16  22
ENDBRANCH  15  19
ENDBRANCH   1  15
TORSDOF 4
ENDMDL
