MODEL 1
REMARK VINA RESULT:      -7.0      0.000      0.000
REMARK  Name = 
REMARK  4 active torsions:
REMARK  status: ('A' for Active; 'I' for Inactive)
REMARK    1  A    between atoms: C_2  and  C_3
REMARK    2  A    between atoms: C_5  and  C_6
REMARK    3  A    between atoms: N_11  and  C_12
REMARK    4  A    between atoms: N_11  and  C_18
REMARK                            x       y       z     vdW  Elec       q    Type
REMARK                         _______ _______ _______ _____ _____    ______ ____
ROOT
ATOM      1  O   UNL     1       6.110   3.808  16.844  0.00  0.00    +0.000 OA
ATOM      2  C   UNL     1       5.709   4.745  17.543  0.00  0.00    +0.000 C 
ATOM      3  N   UNL     1       4.325   4.840  17.933  0.00  0.00    +0.000 N 
ENDROOT
BRANCH   3   4
ATOM      4  C   UNL     1       3.474   3.656  17.524  0.00  0.00    +0.000 C 
ATOM      5  C   UNL     1       3.816   2.358  18.258  0.00  0.00    +0.000 C 
ATOM      6  C   UNL     1       3.059   2.203  19.562  0.00  0.00    +0.000 C 
ATOM      7  C   UNL     1       1.549   2.247  19.397  0.00  0.00    +0.000 C 
ATOM      8  C   UNL     1       0.992   3.252  18.390  0.00  0.00    +0.000 C 
ATOM      9  C   UNL     1       1.949   3.800  17.315  0.00  0.00    +0.000 C 
ENDBRANCH   3   4
BRANCH   2  10
ATOM     10  C   UNL     1       6.678   5.801  17.895  0.00  0.00    +0.000 A 
ATOM     11  C   UNL     1       6.980   6.970  17.143  0.00  0.00    +0.000 A 
ATOM     12  C   UNL     1       7.903   7.648  17.898  0.00  0.00    +0.000 A 
ATOM     13  O   UNL     1       8.212   6.904  18.990  0.00  0.00    +0.000 OA
ATOM     14  N   UNL     1       7.479   5.742  18.975  0.00  0.00    +0.000 NA
BRANCH  12  15
ATOM     15  C   UNL     1       8.489   9.014  17.606  0.00  0.00    +0.000 C 
ATOM     16  C   UNL     1       7.740  10.217  18.152  0.00  0.00    +0.000 C 
ATOM     17  C   UNL     1       9.036   9.819  18.767  0.00  0.00    +0.000 C 
ENDBRANCH  12  15
ENDBRANCH   2  10
BRANCH   3  18
ATOM     18  C   UNL     1       3.839   5.993  18.748  0.00  0.00    +0.000 C 
ATOM     19  C   UNL     1       2.936   6.997  18.053  0.00  0.00    +0.000 C 
ATOM     20  C   UNL     1       2.293   7.812  19.151  0.00  0.00    +0.000 C 
ATOM     21  C   UNL     1       2.054   6.799  20.259  0.00  0.00    +0.000 C 
ATOM     22  C   UNL     1       3.043   5.649  20.026  0.00  0.00    +0.000 C 
ENDBRANCH   3  18
TORSDOF 4
ENDMDL
MODEL 2
REMARK VINA RESULT:      -6.9      2.806      4.646
REMARK  Name = 
REMARK  4 active torsions:
REMARK  status: ('A' for Active; 'I' for Inactive)
REMARK    1  A    between atoms: C_2  and  C_3
REMARK    2  A    between atoms: C_5  and  C_6
REMARK    3  A    between atoms: N_11  and  C_12
REMARK    4  A    between atoms: N_11  and  C_18
REMARK                            x       y       z     vdW  Elec       q    Type
REMARK                         _______ _______ _______ _____ _____    ______ ____
ROOT
ATOM      1  O   UNL     1       4.067   7.134  16.736  0.00  0.00    +0.000 OA
ATOM      2  C   UNL     1       4.460   5.968  16.857  0.00  0.00    +0.000 C 
ATOM      3  N   UNL     1       3.901   5.097  17.858  0.00  0.00    +0.000 N 
ENDROOT
BRANCH   3   4
ATOM      4  C   UNL     1       2.741   5.690  18.630  0.00  0.00    +0.000 C 
ATOM      5  C   UNL     1       1.373   5.136  18.224  0.00  0.00    +0.000 C 
ATOM      6  C   UNL     1       0.992   3.886  18.992  0.00  0.00    +0.000 C 
ATOM      7  C   UNL     1       0.974   4.082  20.499  0.00  0.00    +0.000 C 
ATOM      8  C   UNL     1       2.077   4.952  21.098  0.00  0.00    +0.000 C 
ATOM      9  C   UNL     1       2.826   5.914  20.157  0.00  0.00    +0.000 C 
ENDBRANCH   3   4
BRANCH   2  10
ATOM     10  C   UNL     1       5.575   5.529  15.996  0.00  0.00    +0.000 A 
ATOM     11  C   UNL     1       5.510   4.611  14.911  0.00  0.00    +0.000 A 
ATOM     12  C   UNL     1       6.786   4.564  14.409  0.00  0.00    +0.000 A 
ATOM     13  O   UNL     1       7.594   5.327  15.188  0.00  0.00    +0.000 OA
ATOM     14  N   UNL     1       6.854   5.901  16.193  0.00  0.00    +0.000 NA
BRANCH  12  15
ATOM     15  C   UNL     1       7.251   3.812  13.179  0.00  0.00    +0.000 C 
ATOM     16  C   UNL     1       6.204   3.500  12.125  0.00  0.00    +0.000 C 
ATOM     17  C   UNL     1       7.234   4.540  11.850  0.00  0.00    +0.000 C 
ENDBRANCH  12  15
ENDBRANCH   2  10
BRANCH   3  18
ATOM     18  C   UNL     1       4.404   3.700  18.023  0.00  0.00    +0.000 C 
ATOM     19  C   UNL     1       4.602   3.203  19.444  0.00  0.00    +0.000 C 
ATOM     20  C   UNL     1       4.735   1.700  19.346  0.00  0.00    +0.000 C 
ATOM     21  C   UNL     1       3.757   1.324  18.244  0.00  0.00    +0.000 C 
ATOM     22  C   UNL     1       3.555   2.580  17.386  0.00  0.00    +0.000 C 
ENDBRANCH   3  18
TORSDOF 4
ENDMDL
MODEL 3
REMARK VINA RESULT:      -6.8      0.956      1.041
REMARK  Name = 
REMARK  4 active torsions:
REMARK  status: ('A' for Active; 'I' for Inactive)
REMARK    1  A    between atoms: C_2  and  C_3
REMARK    2  A    between atoms: C_5  and  C_6
REMARK    3  A    between atoms: N_11  and  C_12
REMARK    4  A    between atoms: N_11  and  C_18
REMARK                            x       y       z     vdW  Elec       q    Type
REMARK                         _______ _______ _______ _____ _____    ______ ____
ROOT
ATOM      1  O   UNL     1       5.749   3.239  18.260  0.00  0.00    +0.000 OA
ATOM      2  C   UNL     1       5.405   4.388  18.560  0.00  0.00    +0.000 C 
ATOM      3  N   UNL     1       4.022   4.709  18.803  0.00  0.00    +0.000 N 
ENDROOT
BRANCH   3   4
ATOM      4  C   UNL     1       3.087   3.518  18.780  0.00  0.00    +0.000 C 
ATOM      5  C   UNL     1       3.367   2.484  19.872  0.00  0.00    +0.000 C 
ATOM      6  C   UNL     1       2.638   2.784  21.167  0.00  0.00    +0.000 C 
ATOM      7  C   UNL     1       1.130   2.879  21.007  0.00  0.00    +0.000 C 
ATOM      8  C   UNL     1       0.609   3.565  19.745  0.00  0.00    +0.000 C 
ATOM      9  C   UNL     1       1.569   3.696  18.548  0.00  0.00    +0.000 C 
ENDBRANCH   3   4
BRANCH   2  10
ATOM     10  C   UNL     1       6.448   5.432  18.581  0.00  0.00    +0.000 A 
ATOM     11  C   UNL     1       6.644   6.466  17.624  0.00  0.00    +0.000 A 
ATOM     12  C   UNL     1       7.703   7.195  18.103  0.00  0.00    +0.000 A 
ATOM     13  O   UNL     1       8.180   6.598  19.224  0.00  0.00    +0.000 OA
ATOM     14  N   UNL     1       7.425   5.484  19.506  0.00  0.00    +0.000 NA
BRANCH  12  15
ATOM     15  C   UNL     1       8.264   8.474  17.516  0.00  0.00    +0.000 C 
ATOM     16  C   UNL     1       7.535   9.764  17.847  0.00  0.00    +0.000 C 
ATOM     17  C   UNL     1       8.861   9.493  18.466  0.00  0.00    +0.000 C 
ENDBRANCH  12  15
ENDBRANCH   2  10
BRANCH   3  18
ATOM     18  C   UNL     1       3.608   6.106  19.130  0.00  0.00    +0.000 C 
ATOM     19  C   UNL     1       2.893   6.886  18.041  0.00  0.00    +0.000 C 
ATOM     20  C   UNL     1       2.260   8.076  18.726  0.00  0.00    +0.000 C 
ATOM     21  C   UNL     1       1.808   7.521  20.068  0.00  0.00    +0.000 C 
ATOM     22  C   UNL     1       2.671   6.282  20.345  0.00  0.00    +0.000 C 
ENDBRANCH   3  18
TORSDOF 4
ENDMDL
MODEL 4
REMARK VINA RESULT:      -6.7      2.660      5.454
REMARK  Name = 
REMARK  4 active torsions:
REMARK  status: ('A' for Active; 'I' for Inactive)
REMARK    1  A    between atoms: C_2  and  C_3
REMARK    2  A    between atoms: C_5  and  C_6
REMARK    3  A    between atoms: N_11  and  C_12
REMARK    4  A    between atoms: N_11  and  C_18
REMARK                            x       y       z     vdW  Elec       q    Type
REMARK                         _______ _______ _______ _____ _____    ______ ____
ROOT
ATOM      1  O   UNL     1       4.813   6.977  17.580  0.00  0.00    +0.000 OA
ATOM      2  C   UNL     1       3.790   6.535  18.115  0.00  0.00    +0.000 C 
ATOM      3  N   UNL     1       3.578   5.117  18.251  0.00  0.00    +0.000 N 
ENDROOT
BRANCH   3   4
ATOM      4  C   UNL     1       4.746   4.262  17.806  0.00  0.00    +0.000 C 
ATOM      5  C   UNL     1       4.702   3.863  16.330  0.00  0.00    +0.000 C 
ATOM      6  C   UNL     1       5.356   4.886  15.423  0.00  0.00    +0.000 C 
ATOM      7  C   UNL     1       6.809   5.166  15.774  0.00  0.00    +0.000 C 
ATOM      8  C   UNL     1       7.163   5.231  17.258  0.00  0.00    +0.000 C 
ATOM      9  C   UNL     1       6.191   4.580  18.260  0.00  0.00    +0.000 C 
ENDBRANCH   3   4
BRANCH   2  10
ATOM     10  C   UNL     1       2.760   7.506  18.534  0.00  0.00    +0.000 A 
ATOM     11  C   UNL     1       2.203   8.555  17.750  0.00  0.00    +0.000 A 
ATOM     12  C   UNL     1       1.269   9.146  18.563  0.00  0.00    +0.000 A 
ATOM     13  O   UNL     1       1.316   8.561  19.786  0.00  0.00    +0.000 OA
ATOM     14  N   UNL     1       2.263   7.565  19.783  0.00  0.00    +0.000 NA
BRANCH  12  15
ATOM     15  C   UNL     1       0.311  10.257  18.187  0.00  0.00    +0.000 C 
ATOM     16  C   UNL     1      -1.063   9.845  17.691  0.00  0.00    +0.000 C 
ATOM     17  C   UNL     1      -0.924  10.454  19.042  0.00  0.00    +0.000 C 
ENDBRANCH  12  15
ENDBRANCH   2  10
BRANCH   3  18
ATOM     18  C   UNL     1       2.324   4.586  18.865  0.00  0.00    +0.000 C 
ATOM     19  C   UNL     1       1.632   3.445  18.143  0.00  0.00    +0.000 C 
ATOM     20  C   UNL     1       0.651   2.857  19.132  0.00  0.00    +0.000 C 
ATOM     21  C   UNL     1       1.384   2.947  20.461  0.00  0.00    +0.000 C 
ATOM     22  C   UNL     1       2.434   4.056  20.312  0.00  0.00    +0.000 C 
ENDBRANCH   3  18
TORSDOF 4
ENDMDL
MODEL 5
REMARK VINA RESULT:      -6.6      2.548      5.445
REMARK  Name = 
REMARK  4 active torsions:
REMARK  status: ('A' for Active; 'I' for Inactive)
REMARK    1  A    between atoms: C_2  and  C_3
REMARK    2  A    between atoms: C_5  and  C_6
REMARK    3  A    between atoms: N_11  and  C_12
REMARK    4  A    between atoms: N_11  and  C_18
REMARK                            x       y       z     vdW  Elec       q    Type
REMARK                         _______ _______ _______ _____ _____    ______ ____
ROOT
ATOM      1  O   UNL     1       4.789   6.966  17.551  0.00  0.00    +0.000 OA
ATOM      2  C   UNL     1       3.772   6.536  18.108  0.00  0.00    +0.000 C 
ATOM      3  N   UNL     1       3.575   5.122  18.301  0.00  0.00    +0.000 N 
ENDROOT
BRANCH   3   4
ATOM      4  C   UNL     1       4.749   4.261  17.885  0.00  0.00    +0.000 C 
ATOM      5  C   UNL     1       4.695   3.792  16.430  0.00  0.00    +0.000 C 
ATOM      6  C   UNL     1       5.327   4.779  15.469  0.00  0.00    +0.000 C 
ATOM      7  C   UNL     1       6.779   5.093  15.791  0.00  0.00    +0.000 C 
ATOM      8  C   UNL     1       7.148   5.232  17.267  0.00  0.00    +0.000 C 
ATOM      9  C   UNL     1       6.194   4.618  18.308  0.00  0.00    +0.000 C 
ENDBRANCH   3   4
BRANCH   2  10
ATOM     10  C   UNL     1       2.736   7.513  18.493  0.00  0.00    +0.000 A 
ATOM     11  C   UNL     1       2.203   7.729  19.794  0.00  0.00    +0.000 A 
ATOM     12  C   UNL     1       1.308   8.758  19.644  0.00  0.00    +0.000 A 
ATOM     13  O   UNL     1       1.230   9.087  18.330  0.00  0.00    +0.000 OA
ATOM     14  N   UNL     1       2.089   8.295  17.607  0.00  0.00    +0.000 NA
BRANCH  12  15
ATOM     15  C   UNL     1       0.531   9.453  20.743  0.00  0.00    +0.000 C 
ATOM     16  C   UNL     1      -0.358   8.584  21.615  0.00  0.00    +0.000 C 
ATOM     17  C   UNL     1       0.899   9.146  22.181  0.00  0.00    +0.000 C 
ENDBRANCH  12  15
ENDBRANCH   2  10
BRANCH   3  18
ATOM     18  C   UNL     1       2.329   4.605  18.943  0.00  0.00    +0.000 C 
ATOM     19  C   UNL     1       1.590   3.494  18.218  0.00  0.00    +0.000 C 
ATOM     20  C   UNL     1       0.628   2.906  19.224  0.00  0.00    +0.000 C 
ATOM     21  C   UNL     1       1.402   2.952  20.532  0.00  0.00    +0.000 C 
ATOM     22  C   UNL     1       2.472   4.041  20.374  0.00  0.00    +0.000 C 
ENDBRANCH   3  18
TORSDOF 4
ENDMDL
MODEL 6
REMARK VINA RESULT:      -6.6      1.385      1.560
REMARK  Name = 
REMARK  4 active torsions:
REMARK  status: ('A' for Active; 'I' for Inactive)
REMARK    1  A    between atoms: C_2  and  C_3
REMARK    2  A    between atoms: C_5  and  C_6
REMARK    3  A    between atoms: N_11  and  C_12
REMARK    4  A    between atoms: N_11  and  C_18
REMARK                            x       y       z     vdW  Elec       q    Type
REMARK                         _______ _______ _______ _____ _____    ______ ____
ROOT
ATOM      1  O   UNL     1       4.939   3.484  16.947  0.00  0.00    +0.000 OA
ATOM      2  C   UNL     1       4.695   4.552  17.520  0.00  0.00    +0.000 C 
ATOM      3  N   UNL     1       3.558   4.680  18.394  0.00  0.00    +0.000 N 
ENDROOT
BRANCH   3   4
ATOM      4  C   UNL     1       2.799   3.392  18.632  0.00  0.00    +0.000 C 
ATOM      5  C   UNL     1       3.388   2.515  19.739  0.00  0.00    +0.000 C 
ATOM      6  C   UNL     1       2.848   2.859  21.112  0.00  0.00    +0.000 C 
ATOM      7  C   UNL     1       1.334   2.759  21.212  0.00  0.00    +0.000 C 
ATOM      8  C   UNL     1       0.528   3.247  20.010  0.00  0.00    +0.000 C 
ATOM      9  C   UNL     1       1.252   3.365  18.656  0.00  0.00    +0.000 C 
ENDBRANCH   3   4
BRANCH   2  10
ATOM     10  C   UNL     1       5.558   5.708  17.212  0.00  0.00    +0.000 A 
ATOM     11  C   UNL     1       6.653   6.189  17.983  0.00  0.00    +0.000 A 
ATOM     12  C   UNL     1       7.153   7.247  17.267  0.00  0.00    +0.000 A 
ATOM     13  O   UNL     1       6.366   7.457  16.182  0.00  0.00    +0.000 OA
ATOM     14  N   UNL     1       5.355   6.525  16.161  0.00  0.00    +0.000 NA
BRANCH  12  15
ATOM     15  C   UNL     1       8.390   8.058  17.590  0.00  0.00    +0.000 C 
ATOM     16  C   UNL     1       8.192   9.536  17.874  0.00  0.00    +0.000 C 
ATOM     17  C   UNL     1       8.532   8.615  18.993  0.00  0.00    +0.000 C 
ENDBRANCH  12  15
ENDBRANCH   2  10
BRANCH   3  18
ATOM     18  C   UNL     1       3.245   5.983  19.056  0.00  0.00    +0.000 C 
ATOM     19  C   UNL     1       2.370   6.955  18.285  0.00  0.00    +0.000 C 
ATOM     20  C   UNL     1       1.900   7.982  19.289  0.00  0.00    +0.000 C 
ATOM     21  C   UNL     1       1.679   7.171  20.557  0.00  0.00    +0.000 C 
ATOM     22  C   UNL     1       2.544   5.909  20.429  0.00  0.00    +0.000 C 
ENDBRANCH   3  18
TORSDOF 4
ENDMDL
MODEL 7
REMARK VINA RESULT:      -6.5      1.203      1.343
REMARK  Name = 
REMARK  4 active torsions:
REMARK  status: ('A' for Active; 'I' for Inactive)
REMARK    1  A    between atoms: C_2  and  C_3
REMARK    2  A    between atoms: C_5  and  C_6
REMARK    3  A    between atoms: N_11  and  C_12
REMARK    4  A    between atoms: N_11  and  C_18
REMARK                            x       y       z     vdW  Elec       q    Type
REMARK                         _______ _______ _______ _____ _____    ______ ____
ROOT
ATOM      1  O   UNL     1       7.036   4.289  17.335  0.00  0.00    +0.000 OA
ATOM      2  C   UNL     1       6.368   5.261  17.708  0.00  0.00    +0.000 C 
ATOM      3  N   UNL     1       4.978   5.116  18.057  0.00  0.00    +0.000 N 
ENDROOT
BRANCH   3   4
ATOM      4  C   UNL     1       4.474   3.688  18.045  0.00  0.00    +0.000 C 
ATOM      5  C   UNL     1       4.569   2.982  19.399  0.00  0.00    +0.000 C 
ATOM      6  C   UNL     1       3.345   3.202  20.266  0.00  0.00    +0.000 C 
ATOM      7  C   UNL     1       2.048   2.755  19.610  0.00  0.00    +0.000 C 
ATOM      8  C   UNL     1       1.896   3.032  18.116  0.00  0.00    +0.000 C 
ATOM      9  C   UNL     1       3.174   3.304  17.300  0.00  0.00    +0.000 C 
ENDBRANCH   3   4
BRANCH   2  10
ATOM     10  C   UNL     1       7.022   6.584  17.703  0.00  0.00    +0.000 A 
ATOM     11  C   UNL     1       7.949   7.085  18.659  0.00  0.00    +0.000 A 
ATOM     12  C   UNL     1       8.295   8.330  18.198  0.00  0.00    +0.000 A 
ATOM     13  O   UNL     1       7.563   8.609  17.090  0.00  0.00    +0.000 OA
ATOM     14  N   UNL     1       6.748   7.542  16.798  0.00  0.00    +0.000 NA
BRANCH  12  15
ATOM     15  C   UNL     1       9.332   9.261  18.790  0.00  0.00    +0.000 C 
ATOM     16  C   UNL     1       9.246  10.727  18.402  0.00  0.00    +0.000 C 
ATOM     17  C   UNL     1       8.868  10.310  19.781  0.00  0.00    +0.000 C 
ENDBRANCH  12  15
ENDBRANCH   2  10
BRANCH   3  18
ATOM     18  C   UNL     1       4.166   6.300  18.471  0.00  0.00    +0.000 C 
ATOM     19  C   UNL     1       3.173   6.842  17.460  0.00  0.00    +0.000 C 
ATOM     20  C   UNL     1       2.243   7.750  18.232  0.00  0.00    +0.000 C 
ATOM     21  C   UNL     1       2.078   7.042  19.568  0.00  0.00    +0.000 C 
ATOM     22  C   UNL     1       3.303   6.134  19.741  0.00  0.00    +0.000 C 
ENDBRANCH   3  18
TORSDOF 4
ENDMDL
MODEL 8
REMARK VINA RESULT:      -6.4      2.813      5.835
REMARK  Name = 
REMARK  4 active torsions:
REMARK  status: ('A' for Active; 'I' for Inactive)
REMARK    1  A    between atoms: C_2  and  C_3
REMARK    2  A    between atoms: C_5  and  C_6
REMARK    3  A    between atoms: N_11  and  C_12
REMARK    4  A    between atoms: N_11  and  C_18
REMARK                            x       y       z     vdW  Elec       q    Type
REMARK                         _______ _______ _______ _____ _____    ______ ____
ROOT
ATOM      1  O   UNL     1       3.418   8.259  17.669  0.00  0.00    +0.000 OA
ATOM      2  C   UNL     1       3.179   7.231  18.313  0.00  0.00    +0.000 C 
ATOM      3  N   UNL     1       3.722   5.960  17.909  0.00  0.00    +0.000 N 
ENDROOT
BRANCH   3   4
ATOM      4  C   UNL     1       4.680   6.029  16.739  0.00  0.00    +0.000 C 
ATOM      5  C   UNL     1       6.024   6.683  17.071  0.00  0.00    +0.000 C 
ATOM      6  C   UNL     1       7.045   5.695  17.598  0.00  0.00    +0.000 C 
ATOM      7  C   UNL     1       7.323   4.543  16.646  0.00  0.00    +0.000 C 
ATOM      8  C   UNL     1       6.128   3.965  15.890  0.00  0.00    +0.000 C 
ATOM      9  C   UNL     1       4.860   4.831  15.778  0.00  0.00    +0.000 C 
ENDBRANCH   3   4
BRANCH   2  10
ATOM     10  C   UNL     1       2.254   7.340  19.458  0.00  0.00    +0.000 A 
ATOM     11  C   UNL     1       1.539   8.497  19.875  0.00  0.00    +0.000 A 
ATOM     12  C   UNL     1       0.792   8.084  20.949  0.00  0.00    +0.000 A 
ATOM     13  O   UNL     1       1.096   6.791  21.226  0.00  0.00    +0.000 OA
ATOM     14  N   UNL     1       2.027   6.335  20.325  0.00  0.00    +0.000 NA
BRANCH  12  15
ATOM     15  C   UNL     1      -0.230   8.901  21.712  0.00  0.00    +0.000 C 
ATOM     16  C   UNL     1       0.180   9.415  23.081  0.00  0.00    +0.000 C 
ATOM     17  C   UNL     1       0.061  10.370  21.945  0.00  0.00    +0.000 C 
ENDBRANCH  12  15
ENDBRANCH   2  10
BRANCH   3  18
ATOM     18  C   UNL     1       3.400   4.715  18.669  0.00  0.00    +0.000 C 
ATOM     19  C   UNL     1       2.642   3.630  17.926  0.00  0.00    +0.000 C 
ATOM     20  C   UNL     1       2.782   2.376  18.759  0.00  0.00    +0.000 C 
ATOM     21  C   UNL     1       4.199   2.462  19.303  0.00  0.00    +0.000 C 
ATOM     22  C   UNL     1       4.596   3.944  19.270  0.00  0.00    +0.000 C 
ENDBRANCH   3  18
TORSDOF 4
ENDMDL
MODEL 9
REMARK VINA RESULT:      -6.3      3.094      5.212
REMARK  Name = 
REMARK  4 active torsions:
REMARK  status: ('A' for Active; 'I' for Inactive)
REMARK    1  A    between atoms: C_2  and  C_3
REMARK    2  A    between atoms: C_5  and  C_6
REMARK    3  A    between atoms: N_11  and  C_12
REMARK    4  A    between atoms: N_11  and  C_18
REMARK                            x       y       z     vdW  Elec       q    Type
REMARK                         _______ _______ _______ _____ _____    ______ ____
ROOT
ATOM      1  O   UNL     1       4.266   3.501  16.814  0.00  0.00    +0.000 OA
ATOM      2  C   UNL     1       5.244   4.246  16.692  0.00  0.00    +0.000 C 
ATOM      3  N   UNL     1       5.660   5.107  17.769  0.00  0.00    +0.000 N 
ENDROOT
BRANCH   3   4
ATOM      4  C   UNL     1       4.887   4.919  19.057  0.00  0.00    +0.000 C 
ATOM      5  C   UNL     1       3.774   5.946  19.273  0.00  0.00    +0.000 C 
ATOM      6  C   UNL     1       2.458   5.527  18.649  0.00  0.00    +0.000 C 
ATOM      7  C   UNL     1       1.944   4.189  19.156  0.00  0.00    +0.000 C 
ATOM      8  C   UNL     1       2.982   3.091  19.384  0.00  0.00    +0.000 C 
ATOM      9  C   UNL     1       4.455   3.513  19.535  0.00  0.00    +0.000 C 
ENDBRANCH   3   4
BRANCH   2  10
ATOM     10  C   UNL     1       5.918   4.282  15.379  0.00  0.00    +0.000 A 
ATOM     11  C   UNL     1       5.575   3.533  14.219  0.00  0.00    +0.000 A 
ATOM     12  C   UNL     1       6.464   3.943  13.258  0.00  0.00    +0.000 A 
ATOM     13  O   UNL     1       7.345   4.813  13.813  0.00  0.00    +0.000 OA
ATOM     14  N   UNL     1       7.031   5.001  15.138  0.00  0.00    +0.000 NA
BRANCH  12  15
ATOM     15  C   UNL     1       6.478   3.532  11.800  0.00  0.00    +0.000 C 
ATOM     16  C   UNL     1       7.204   2.245  11.453  0.00  0.00    +0.000 C 
ATOM     17  C   UNL     1       5.717   2.283  11.404  0.00  0.00    +0.000 C 
ENDBRANCH  12  15
ENDBRANCH   2  10
BRANCH   3  18
ATOM     18  C   UNL     1       6.821   6.032  17.604  0.00  0.00    +0.000 C 
ATOM     19  C   UNL     1       6.506   7.488  17.312  0.00  0.00    +0.000 C 
ATOM     20  C   UNL     1       7.784   8.253  17.569  0.00  0.00    +0.000 C 
ATOM     21  C   UNL     1       8.390   7.546  18.771  0.00  0.00    +0.000 C 
ATOM     22  C   UNL     1       7.803   6.128  18.792  0.00  0.00    +0.000 C 
ENDBRANCH   3  18
TORSDOF 4
ENDMDL
