MODEL 1
REMARK VINA RESULT:      -9.5      0.000      0.000
REMARK  Name = 
REMARK  3 active torsions:
REMARK  status: ('A' for Active; 'I' for Inactive)
REMARK    1  A    between atoms: C_5  and  C_6
REMARK    2  A    between atoms: N_14  and  C_15
REMARK    3  A    between atoms: C_15  and  C_16
REMARK                            x       y       z     vdW  Elec       q    Type
REMARK                         _______ _______ _______ _____ _____    ______ ____
ROOT
ATOM      1  C   UNL     1       4.535   4.738  17.918  0.00  0.00    +0.000 A 
ATOM      2  C   UNL     1       4.393   3.592  18.624  0.00  0.00    +0.000 A 
ATOM      3  N   UNL     1       3.564   3.600  19.719  0.00  0.00    +0.000 N 
ATOM      4  C   UNL     1       3.182   2.609  20.581  0.00  0.00    +0.000 A 
ATOM      5  C   UNL     1       2.312   3.219  21.456  0.00  0.00    +0.000 A 
ATOM      6  N   UNL     1       2.163   4.556  21.166  0.00  0.00    +0.000 NA
ATOM      7  C   UNL     1       2.933   4.745  20.117  0.00  0.00    +0.000 A 
ATOM      8  C   UNL     1       3.134   5.964  19.344  0.00  0.00    +0.000 A 
ATOM      9  N   UNL     1       2.536   7.151  19.721  0.00  0.00    +0.000 N 
ATOM     10  N   UNL     1       3.897   5.922  18.281  0.00  0.00    +0.000 NA
ATOM     11  H   UNL     1       2.052   7.143  20.613  0.00  0.00    +0.000 HD
ENDROOT
BRANCH   1  16
ATOM     12  C   UNL     1       6.002   4.083  14.491  0.00  0.00    +0.000 A 
ATOM     13  C   UNL     1       7.130   4.883  14.569  0.00  0.00    +0.000 A 
ATOM     14  N   UNL     1       7.460   5.605  15.657  0.00  0.00    +0.000 NA
ATOM     15  C   UNL     1       6.614   5.525  16.714  0.00  0.00    +0.000 A 
ATOM     16  C   UNL     1       5.436   4.776  16.743  0.00  0.00    +0.000 A 
ATOM     17  C   UNL     1       5.151   4.030  15.594  0.00  0.00    +0.000 A 
ENDBRANCH   1  16
BRANCH   9  18
ATOM     18  C   UNL     1       2.118   8.159  18.770  0.00  0.00    +0.000 C 
BRANCH  18  19
ATOM     19  C   UNL     1       1.107   9.133  19.350  0.00  0.00    +0.000 A 
ATOM     20  C   UNL     1       0.333   9.992  18.550  0.00  0.00    +0.000 A 
ATOM     21  C   UNL     1      -0.548  10.913  19.132  0.00  0.00    +0.000 A 
ATOM     22  C   UNL     1      -0.645  11.012  20.517  0.00  0.00    +0.000 A 
ATOM     23  C   UNL     1       0.122  10.173  21.326  0.00  0.00    +0.000 A 
ATOM     24  C   UNL     1       1.001   9.252  20.749  0.00  0.00    +0.000 A 
ATOM     25  O   UNL     1       0.082  10.209  22.698  0.00  0.00    +0.000 OA
ATOM     26  C   UNL     1      -1.064  10.929  23.171  0.00  0.00    +0.000 C 
ATOM     27  C   UNL     1      -1.254  12.221  22.396  0.00  0.00    +0.000 C 
ATOM     28  O   UNL     1      -1.509  11.953  21.012  0.00  0.00    +0.000 OA
ENDBRANCH  18  19
ENDBRANCH   9  18
TORSDOF 3
ENDMDL
MODEL 2
REMARK VINA RESULT:      -9.1      1.576      2.280
REMARK  Name = 
REMARK  3 active torsions:
REMARK  status: ('A' for Active; 'I' for Inactive)
REMARK    1  A    between atoms: C_5  and  C_6
REMARK    2  A    between atoms: N_14  and  C_15
REMARK    3  A    between atoms: C_15  and  C_16
REMARK                            x       y       z     vdW  Elec       q    Type
REMARK                         _______ _______ _______ _____ _____    ______ ____
ROOT
ATOM      1  C   UNL     1       4.370   5.165  17.638  0.00  0.00    +0.000 A 
ATOM      2  C   UNL     1       4.169   4.115  18.468  0.00  0.00    +0.000 A 
ATOM      3  N   UNL     1       3.273   4.260  19.498  0.00  0.00    +0.000 N 
ATOM      4  C   UNL     1       2.826   3.383  20.448  0.00  0.00    +0.000 A 
ATOM      5  C   UNL     1       1.908   4.099  21.185  0.00  0.00    +0.000 A 
ATOM      6  N   UNL     1       1.794   5.390  20.724  0.00  0.00    +0.000 NA
ATOM      7  C   UNL     1       2.632   5.447  19.712  0.00  0.00    +0.000 A 
ATOM      8  C   UNL     1       2.895   6.561  18.811  0.00  0.00    +0.000 A 
ATOM      9  N   UNL     1       2.289   7.789  19.002  0.00  0.00    +0.000 N 
ATOM     10  N   UNL     1       3.724   6.388  17.813  0.00  0.00    +0.000 NA
ATOM     11  H   UNL     1       1.749   7.891  19.855  0.00  0.00    +0.000 HD
ENDROOT
BRANCH   1  16
ATOM     12  C   UNL     1       6.032   4.109  14.406  0.00  0.00    +0.000 A 
ATOM     13  C   UNL     1       7.174   4.889  14.471  0.00  0.00    +0.000 A 
ATOM     14  N   UNL     1       7.455   5.719  15.495  0.00  0.00    +0.000 NA
ATOM     15  C   UNL     1       6.542   5.773  16.497  0.00  0.00    +0.000 A 
ATOM     16  C   UNL     1       5.344   5.056  16.528  0.00  0.00    +0.000 A 
ATOM     17  C   UNL     1       5.111   4.195  15.449  0.00  0.00    +0.000 A 
ENDBRANCH   1  16
BRANCH   9  18
ATOM     18  C   UNL     1       1.943   8.675  17.910  0.00  0.00    +0.000 C 
BRANCH  18  19
ATOM     19  C   UNL     1       0.839   9.652  18.271  0.00  0.00    +0.000 A 
ATOM     20  C   UNL     1       0.948  10.563  19.337  0.00  0.00    +0.000 A 
ATOM     21  C   UNL     1      -0.118  11.408  19.669  0.00  0.00    +0.000 A 
ATOM     22  C   UNL     1      -1.317  11.335  18.964  0.00  0.00    +0.000 A 
ATOM     23  C   UNL     1      -1.446  10.431  17.910  0.00  0.00    +0.000 A 
ATOM     24  C   UNL     1      -0.383   9.586  17.575  0.00  0.00    +0.000 A 
ATOM     25  O   UNL     1      -2.593  10.299  17.168  0.00  0.00    +0.000 OA
ATOM     26  C   UNL     1      -3.476  11.411  17.365  0.00  0.00    +0.000 C 
ATOM     27  C   UNL     1      -3.590  11.762  18.839  0.00  0.00    +0.000 C 
ATOM     28  O   UNL     1      -2.323  12.176  19.364  0.00  0.00    +0.000 OA
ENDBRANCH  18  19
ENDBRANCH   9  18
TORSDOF 3
ENDMDL
MODEL 3
REMARK VINA RESULT:      -9.1      0.834      1.602
REMARK  Name = 
REMARK  3 active torsions:
REMARK  status: ('A' for Active; 'I' for Inactive)
REMARK    1  A    between atoms: C_5  and  C_6
REMARK    2  A    between atoms: N_14  and  C_15
REMARK    3  A    between atoms: C_15  and  C_16
REMARK                            x       y       z     vdW  Elec       q    Type
REMARK                         _______ _______ _______ _____ _____    ______ ____
ROOT
ATOM      1  C   UNL     1       4.543   4.693  17.973  0.00  0.00    +0.000 A 
ATOM      2  C   UNL     1       4.413   3.524  18.640  0.00  0.00    +0.000 A 
ATOM      3  N   UNL     1       3.597   3.490  19.744  0.00  0.00    +0.000 N 
ATOM      4  C   UNL     1       3.229   2.468  20.576  0.00  0.00    +0.000 A 
ATOM      5  C   UNL     1       2.366   3.045  21.482  0.00  0.00    +0.000 A 
ATOM      6  N   UNL     1       2.209   4.390  21.239  0.00  0.00    +0.000 NA
ATOM      7  C   UNL     1       2.967   4.618  20.188  0.00  0.00    +0.000 A 
ATOM      8  C   UNL     1       3.154   5.863  19.456  0.00  0.00    +0.000 A 
ATOM      9  N   UNL     1       2.556   7.035  19.880  0.00  0.00    +0.000 N 
ATOM     10  N   UNL     1       3.905   5.862  18.384  0.00  0.00    +0.000 NA
ATOM     11  H   UNL     1       2.082   6.994  20.776  0.00  0.00    +0.000 HD
ENDROOT
BRANCH   1  16
ATOM     12  C   UNL     1       5.986   4.145  14.517  0.00  0.00    +0.000 A 
ATOM     13  C   UNL     1       7.099   4.965  14.601  0.00  0.00    +0.000 A 
ATOM     14  N   UNL     1       7.427   5.668  15.702  0.00  0.00    +0.000 NA
ATOM     15  C   UNL     1       6.594   5.548  16.766  0.00  0.00    +0.000 A 
ATOM     16  C   UNL     1       5.431   4.775  16.790  0.00  0.00    +0.000 A 
ATOM     17  C   UNL     1       5.148   4.051  15.627  0.00  0.00    +0.000 A 
ENDBRANCH   1  16
BRANCH   9  18
ATOM     18  C   UNL     1       2.123   8.073  18.969  0.00  0.00    +0.000 C 
BRANCH  18  19
ATOM     19  C   UNL     1       1.203   9.087  19.626  0.00  0.00    +0.000 A 
ATOM     20  C   UNL     1       0.729   8.944  20.942  0.00  0.00    +0.000 A 
ATOM     21  C   UNL     1      -0.163   9.876  21.488  0.00  0.00    +0.000 A 
ATOM     22  C   UNL     1      -0.617  10.945  20.720  0.00  0.00    +0.000 A 
ATOM     23  C   UNL     1      -0.163  11.098  19.410  0.00  0.00    +0.000 A 
ATOM     24  C   UNL     1       0.728  10.170  18.862  0.00  0.00    +0.000 A 
ATOM     25  O   UNL     1      -0.563  12.125  18.591  0.00  0.00    +0.000 OA
ATOM     26  C   UNL     1      -1.191  13.176  19.336  0.00  0.00    +0.000 C 
ATOM     27  C   UNL     1      -2.177  12.615  20.346  0.00  0.00    +0.000 C 
ATOM     28  O   UNL     1      -1.507  11.801  21.316  0.00  0.00    +0.000 OA
ENDBRANCH  18  19
ENDBRANCH   9  18
TORSDOF 3
ENDMDL
MODEL 4
REMARK VINA RESULT:      -9.0      1.133      1.750
REMARK  Name = 
REMARK  3 active torsions:
REMARK  status: ('A' for Active; 'I' for Inactive)
REMARK    1  A    between atoms: C_5  and  C_6
REMARK    2  A    between atoms: N_14  and  C_15
REMARK    3  A    between atoms: C_15  and  C_16
REMARK                            x       y       z     vdW  Elec       q    Type
REMARK                         _______ _______ _______ _____ _____    ______ ____
ROOT
ATOM      1  C   UNL     1       3.779   4.662  18.101  0.00  0.00    +0.000 A 
ATOM      2  C   UNL     1       3.515   3.404  18.523  0.00  0.00    +0.000 A 
ATOM      3  N   UNL     1       2.730   3.241  19.638  0.00  0.00    +0.000 N 
ATOM      4  C   UNL     1       2.253   2.121  20.263  0.00  0.00    +0.000 A 
ATOM      5  C   UNL     1       1.496   2.598  21.310  0.00  0.00    +0.000 A 
ATOM      6  N   UNL     1       1.510   3.973  21.355  0.00  0.00    +0.000 NA
ATOM      7  C   UNL     1       2.264   4.320  20.335  0.00  0.00    +0.000 A 
ATOM      8  C   UNL     1       2.593   5.658  19.861  0.00  0.00    +0.000 A 
ATOM      9  N   UNL     1       2.164   6.780  20.546  0.00  0.00    +0.000 N 
ATOM     10  N   UNL     1       3.310   5.788  18.774  0.00  0.00    +0.000 NA
ATOM     11  H   UNL     1       1.712   6.612  21.438  0.00  0.00    +0.000 HD
ENDROOT
BRANCH   1  16
ATOM     12  C   UNL     1       6.026   4.018  15.124  0.00  0.00    +0.000 A 
ATOM     13  C   UNL     1       6.224   5.322  14.701  0.00  0.00    +0.000 A 
ATOM     14  N   UNL     1       5.698   6.396  15.321  0.00  0.00    +0.000 NA
ATOM     15  C   UNL     1       4.931   6.149  16.413  0.00  0.00    +0.000 A 
ATOM     16  C   UNL     1       4.640   4.879  16.915  0.00  0.00    +0.000 A 
ATOM     17  C   UNL     1       5.226   3.800  16.245  0.00  0.00    +0.000 A 
ENDBRANCH   1  16
BRANCH   9  18
ATOM     18  C   UNL     1       1.847   8.030  19.889  0.00  0.00    +0.000 C 
BRANCH  18  19
ATOM     19  C   UNL     1       1.040   8.970  20.767  0.00  0.00    +0.000 A 
ATOM     20  C   UNL     1       0.948   8.815  22.162  0.00  0.00    +0.000 A 
ATOM     21  C   UNL     1       0.147   9.673  22.926  0.00  0.00    +0.000 A 
ATOM     22  C   UNL     1      -0.596  10.675  22.308  0.00  0.00    +0.000 A 
ATOM     23  C   UNL     1      -0.523  10.837  20.925  0.00  0.00    +0.000 A 
ATOM     24  C   UNL     1       0.276   9.984  20.159  0.00  0.00    +0.000 A 
ATOM     25  O   UNL     1      -1.224  11.801  20.242  0.00  0.00    +0.000 OA
ATOM     26  C   UNL     1      -1.731  12.807  21.129  0.00  0.00    +0.000 C 
ATOM     27  C   UNL     1      -2.355  12.181  22.364  0.00  0.00    +0.000 C 
ATOM     28  O   UNL     1      -1.375  11.459  23.120  0.00  0.00    +0.000 OA
ENDBRANCH  18  19
ENDBRANCH   9  18
TORSDOF 3
ENDMDL
MODEL 5
REMARK VINA RESULT:      -8.9      1.664      1.704
REMARK  Name = 
REMARK  3 active torsions:
REMARK  status: ('A' for Active; 'I' for Inactive)
REMARK    1  A    between atoms: C_5  and  C_6
REMARK    2  A    between atoms: N_14  and  C_15
REMARK    3  A    between atoms: C_15  and  C_16
REMARK                            x       y       z     vdW  Elec       q    Type
REMARK                         _______ _______ _______ _____ _____    ______ ____
ROOT
ATOM      1  C   UNL     1       4.399   5.119  17.594  0.00  0.00    +0.000 A 
ATOM      2  C   UNL     1       4.221   4.077  18.439  0.00  0.00    +0.000 A 
ATOM      3  N   UNL     1       3.327   4.221  19.471  0.00  0.00    +0.000 N 
ATOM      4  C   UNL     1       2.899   3.350  20.435  0.00  0.00    +0.000 A 
ATOM      5  C   UNL     1       1.974   4.061  21.167  0.00  0.00    +0.000 A 
ATOM      6  N   UNL     1       1.837   5.344  20.691  0.00  0.00    +0.000 NA
ATOM      7  C   UNL     1       2.668   5.401  19.673  0.00  0.00    +0.000 A 
ATOM      8  C   UNL     1       2.909   6.507  18.756  0.00  0.00    +0.000 A 
ATOM      9  N   UNL     1       2.284   7.727  18.934  0.00  0.00    +0.000 N 
ATOM     10  N   UNL     1       3.735   6.333  17.756  0.00  0.00    +0.000 NA
ATOM     11  H   UNL     1       1.747   7.832  19.788  0.00  0.00    +0.000 HD
ENDROOT
BRANCH   1  16
ATOM     12  C   UNL     1       6.038   4.086  14.342  0.00  0.00    +0.000 A 
ATOM     13  C   UNL     1       7.193   4.845  14.417  0.00  0.00    +0.000 A 
ATOM     14  N   UNL     1       7.490   5.654  15.453  0.00  0.00    +0.000 NA
ATOM     15  C   UNL     1       6.579   5.708  16.457  0.00  0.00    +0.000 A 
ATOM     16  C   UNL     1       5.370   5.011  16.480  0.00  0.00    +0.000 A 
ATOM     17  C   UNL     1       5.121   4.171  15.389  0.00  0.00    +0.000 A 
ENDBRANCH   1  16
BRANCH   9  18
ATOM     18  C   UNL     1       1.919   8.593  17.832  0.00  0.00    +0.000 C 
BRANCH  18  19
ATOM     19  C   UNL     1       0.997   9.724  18.253  0.00  0.00    +0.000 A 
ATOM     20  C   UNL     1      -0.366   9.762  17.909  0.00  0.00    +0.000 A 
ATOM     21  C   UNL     1      -1.166  10.853  18.271  0.00  0.00    +0.000 A 
ATOM     22  C   UNL     1      -0.611  11.934  18.953  0.00  0.00    +0.000 A 
ATOM     23  C   UNL     1       0.741  11.916  19.295  0.00  0.00    +0.000 A 
ATOM     24  C   UNL     1       1.542  10.828  18.936  0.00  0.00    +0.000 A 
ATOM     25  O   UNL     1       1.360  12.941  19.966  0.00  0.00    +0.000 OA
ATOM     26  C   UNL     1       0.406  13.826  20.568  0.00  0.00    +0.000 C 
ATOM     27  C   UNL     1      -0.718  14.155  19.601  0.00  0.00    +0.000 C 
ATOM     28  O   UNL     1      -1.452  12.975  19.252  0.00  0.00    +0.000 OA
ENDBRANCH  18  19
ENDBRANCH   9  18
TORSDOF 3
ENDMDL
MODEL 6
REMARK VINA RESULT:      -8.8      1.457      1.719
REMARK  Name = 
REMARK  3 active torsions:
REMARK  status: ('A' for Active; 'I' for Inactive)
REMARK    1  A    between atoms: C_5  and  C_6
REMARK    2  A    between atoms: N_14  and  C_15
REMARK    3  A    between atoms: C_15  and  C_16
REMARK                            x       y       z     vdW  Elec       q    Type
REMARK                         _______ _______ _______ _____ _____    ______ ____
ROOT
ATOM      1  C   UNL     1       4.414   5.146  17.594  0.00  0.00    +0.000 A 
ATOM      2  C   UNL     1       4.241   4.120  18.458  0.00  0.00    +0.000 A 
ATOM      3  N   UNL     1       3.351   4.280  19.491  0.00  0.00    +0.000 N 
ATOM      4  C   UNL     1       2.929   3.426  20.473  0.00  0.00    +0.000 A 
ATOM      5  C   UNL     1       2.005   4.148  21.195  0.00  0.00    +0.000 A 
ATOM      6  N   UNL     1       1.862   5.422  20.695  0.00  0.00    +0.000 NA
ATOM      7  C   UNL     1       2.690   5.462  19.674  0.00  0.00    +0.000 A 
ATOM      8  C   UNL     1       2.924   6.552  18.735  0.00  0.00    +0.000 A 
ATOM      9  N   UNL     1       2.297   7.773  18.893  0.00  0.00    +0.000 N 
ATOM     10  N   UNL     1       3.747   6.361  17.735  0.00  0.00    +0.000 NA
ATOM     11  H   UNL     1       1.762   7.893  19.747  0.00  0.00    +0.000 HD
ENDROOT
BRANCH   1  16
ATOM     12  C   UNL     1       6.042   4.058  14.354  0.00  0.00    +0.000 A 
ATOM     13  C   UNL     1       7.197   4.820  14.411  0.00  0.00    +0.000 A 
ATOM     14  N   UNL     1       7.496   5.647  15.432  0.00  0.00    +0.000 NA
ATOM     15  C   UNL     1       6.589   5.717  16.439  0.00  0.00    +0.000 A 
ATOM     16  C   UNL     1       5.381   5.019  16.478  0.00  0.00    +0.000 A 
ATOM     17  C   UNL     1       5.129   4.161  15.402  0.00  0.00    +0.000 A 
ENDBRANCH   1  16
BRANCH   9  18
ATOM     18  C   UNL     1       1.925   8.617  17.777  0.00  0.00    +0.000 C 
BRANCH  18  19
ATOM     19  C   UNL     1       1.444   9.990  18.211  0.00  0.00    +0.000 A 
ATOM     20  C   UNL     1       2.246  11.141  18.120  0.00  0.00    +0.000 A 
ATOM     21  C   UNL     1       1.780  12.378  18.585  0.00  0.00    +0.000 A 
ATOM     22  C   UNL     1       0.522  12.477  19.174  0.00  0.00    +0.000 A 
ATOM     23  C   UNL     1      -0.284  11.343  19.280  0.00  0.00    +0.000 A 
ATOM     24  C   UNL     1       0.178  10.108  18.816  0.00  0.00    +0.000 A 
ATOM     25  O   UNL     1      -1.534  11.359  19.846  0.00  0.00    +0.000 OA
ATOM     26  C   UNL     1      -2.034  12.697  19.977  0.00  0.00    +0.000 C 
ATOM     27  C   UNL     1      -0.966  13.627  20.526  0.00  0.00    +0.000 C 
ATOM     28  O   UNL     1       0.146  13.715  19.626  0.00  0.00    +0.000 OA
ENDBRANCH  18  19
ENDBRANCH   9  18
TORSDOF 3
ENDMDL
MODEL 7
REMARK VINA RESULT:      -8.8      4.962      7.647
REMARK  Name = 
REMARK  3 active torsions:
REMARK  status: ('A' for Active; 'I' for Inactive)
REMARK    1  A    between atoms: C_5  and  C_6
REMARK    2  A    between atoms: N_14  and  C_15
REMARK    3  A    between atoms: C_15  and  C_16
REMARK                            x       y       z     vdW  Elec       q    Type
REMARK                         _______ _______ _______ _____ _____    ______ ____
ROOT
ATOM      1  C   UNL     1       4.971   5.088  17.823  0.00  0.00    +0.000 A 
ATOM      2  C   UNL     1       4.915   4.307  16.720  0.00  0.00    +0.000 A 
ATOM      3  N   UNL     1       5.834   4.520  15.722  0.00  0.00    +0.000 N 
ATOM      4  C   UNL     1       6.062   3.873  14.538  0.00  0.00    +0.000 A 
ATOM      5  C   UNL     1       7.140   4.525  13.982  0.00  0.00    +0.000 A 
ATOM      6  N   UNL     1       7.566   5.561  14.781  0.00  0.00    +0.000 NA
ATOM      7  C   UNL     1       6.755   5.525  15.815  0.00  0.00    +0.000 A 
ATOM      8  C   UNL     1       6.764   6.361  17.009  0.00  0.00    +0.000 A 
ATOM      9  N   UNL     1       7.661   7.405  17.138  0.00  0.00    +0.000 N 
ATOM     10  N   UNL     1       5.904   6.114  17.964  0.00  0.00    +0.000 NA
ATOM     11  H   UNL     1       8.222   7.615  16.319  0.00  0.00    +0.000 HD
ENDROOT
BRANCH   1  16
ATOM     12  C   UNL     1       2.225   5.766  20.338  0.00  0.00    +0.000 A 
ATOM     13  C   UNL     1       2.148   4.518  20.934  0.00  0.00    +0.000 A 
ATOM     14  N   UNL     1       2.934   3.478  20.593  0.00  0.00    +0.000 NA
ATOM     15  C   UNL     1       3.834   3.700  19.602  0.00  0.00    +0.000 A 
ATOM     16  C   UNL     1       3.984   4.904  18.912  0.00  0.00    +0.000 A 
ATOM     17  C   UNL     1       3.157   5.956  19.319  0.00  0.00    +0.000 A 
ENDBRANCH   1  16
BRANCH   9  18
ATOM     18  C   UNL     1       8.201   7.827  18.413  0.00  0.00    +0.000 C 
BRANCH  18  19
ATOM     19  C   UNL     1       8.495   9.315  18.465  0.00  0.00    +0.000 A 
ATOM     20  C   UNL     1       8.008  10.221  17.507  0.00  0.00    +0.000 A 
ATOM     21  C   UNL     1       8.351  11.578  17.563  0.00  0.00    +0.000 A 
ATOM     22  C   UNL     1       9.209  12.044  18.556  0.00  0.00    +0.000 A 
ATOM     23  C   UNL     1       9.708  11.158  19.510  0.00  0.00    +0.000 A 
ATOM     24  C   UNL     1       9.367   9.803  19.457  0.00  0.00    +0.000 A 
ATOM     25  O   UNL     1      10.557  11.539  20.519  0.00  0.00    +0.000 OA
ATOM     26  C   UNL     1      10.573  12.964  20.682  0.00  0.00    +0.000 C 
ATOM     27  C   UNL     1      10.668  13.664  19.337  0.00  0.00    +0.000 C 
ATOM     28  O   UNL     1       9.518  13.379  18.531  0.00  0.00    +0.000 OA
ENDBRANCH  18  19
ENDBRANCH   9  18
TORSDOF 3
ENDMDL
MODEL 8
REMARK VINA RESULT:      -8.8      1.348      1.970
REMARK  Name = 
REMARK  3 active torsions:
REMARK  status: ('A' for Active; 'I' for Inactive)
REMARK    1  A    between atoms: C_5  and  C_6
REMARK    2  A    between atoms: N_14  and  C_15
REMARK    3  A    between atoms: C_15  and  C_16
REMARK                            x       y       z     vdW  Elec       q    Type
REMARK                         _______ _______ _______ _____ _____    ______ ____
ROOT
ATOM      1  C   UNL     1       4.531   4.435  16.758  0.00  0.00    +0.000 A 
ATOM      2  C   UNL     1       4.178   3.191  17.157  0.00  0.00    +0.000 A 
ATOM      3  N   UNL     1       3.255   3.068  18.166  0.00  0.00    +0.000 N 
ATOM      4  C   UNL     1       2.670   1.971  18.738  0.00  0.00    +0.000 A 
ATOM      5  C   UNL     1       1.803   2.485  19.677  0.00  0.00    +0.000 A 
ATOM      6  N   UNL     1       1.853   3.859  19.708  0.00  0.00    +0.000 NA
ATOM      7  C   UNL     1       2.739   4.170  18.787  0.00  0.00    +0.000 A 
ATOM      8  C   UNL     1       3.165   5.491  18.344  0.00  0.00    +0.000 A 
ATOM      9  N   UNL     1       2.689   6.634  18.957  0.00  0.00    +0.000 N 
ATOM     10  N   UNL     1       4.016   5.584  17.354  0.00  0.00    +0.000 NA
ATOM     11  H   UNL     1       2.124   6.492  19.788  0.00  0.00    +0.000 HD
ENDROOT
BRANCH   1  16
ATOM     12  C   UNL     1       6.310   4.210  13.424  0.00  0.00    +0.000 A 
ATOM     13  C   UNL     1       7.431   4.970  13.711  0.00  0.00    +0.000 A 
ATOM     14  N   UNL     1       7.663   5.535  14.912  0.00  0.00    +0.000 NA
ATOM     15  C   UNL     1       6.720   5.333  15.867  0.00  0.00    +0.000 A 
ATOM     16  C   UNL     1       5.539   4.610  15.686  0.00  0.00    +0.000 A 
ATOM     17  C   UNL     1       5.358   4.029  14.426  0.00  0.00    +0.000 A 
ENDBRANCH   1  16
BRANCH   9  18
ATOM     18  C   UNL     1       2.495   7.884  18.252  0.00  0.00    +0.000 C 
BRANCH  18  19
ATOM     19  C   UNL     1       1.607   8.855  19.008  0.00  0.00    +0.000 A 
ATOM     20  C   UNL     1       1.292   8.697  20.370  0.00  0.00    +0.000 A 
ATOM     21  C   UNL     1       0.424   9.588  21.013  0.00  0.00    +0.000 A 
ATOM     22  C   UNL     1      -0.167  10.629  20.301  0.00  0.00    +0.000 A 
ATOM     23  C   UNL     1       0.127  10.796  18.948  0.00  0.00    +0.000 A 
ATOM     24  C   UNL     1       0.995   9.909  18.303  0.00  0.00    +0.000 A 
ATOM     25  O   UNL     1      -0.413  11.797  18.180  0.00  0.00    +0.000 OA
ATOM     26  C   UNL     1      -1.004  12.821  18.991  0.00  0.00    +0.000 C 
ATOM     27  C   UNL     1      -1.840  12.218  20.106  0.00  0.00    +0.000 C 
ATOM     28  O   UNL     1      -1.024  11.444  20.994  0.00  0.00    +0.000 OA
ENDBRANCH  18  19
ENDBRANCH   9  18
TORSDOF 3
ENDMDL
MODEL 9
REMARK VINA RESULT:      -8.7      1.645      2.161
REMARK  Name = 
REMARK  3 active torsions:
REMARK  status: ('A' for Active; 'I' for Inactive)
REMARK    1  A    between atoms: C_5  and  C_6
REMARK    2  A    between atoms: N_14  and  C_15
REMARK    3  A    between atoms: C_15  and  C_16
REMARK                            x       y       z     vdW  Elec       q    Type
REMARK                         _______ _______ _______ _____ _____    ______ ____
ROOT
ATOM      1  C   UNL     1       4.449   4.764  17.908  0.00  0.00    +0.000 A 
ATOM      2  C   UNL     1       4.279   3.701  18.728  0.00  0.00    +0.000 A 
ATOM      3  N   UNL     1       3.404   3.822  19.779  0.00  0.00    +0.000 N 
ATOM      4  C   UNL     1       2.987   2.927  20.727  0.00  0.00    +0.000 A 
ATOM      5  C   UNL     1       2.078   3.623  21.493  0.00  0.00    +0.000 A 
ATOM      6  N   UNL     1       1.940   4.919  21.053  0.00  0.00    +0.000 NA
ATOM      7  C   UNL     1       2.754   4.999  20.023  0.00  0.00    +0.000 A 
ATOM      8  C   UNL     1       2.986   6.128  19.132  0.00  0.00    +0.000 A 
ATOM      9  N   UNL     1       2.370   7.346  19.352  0.00  0.00    +0.000 N 
ATOM     10  N   UNL     1       3.794   5.977  18.113  0.00  0.00    +0.000 NA
ATOM     11  H   UNL     1       1.848   7.431  20.218  0.00  0.00    +0.000 HD
ENDROOT
BRANCH   1  16
ATOM     12  C   UNL     1       5.850   4.419  14.409  0.00  0.00    +0.000 A 
ATOM     13  C   UNL     1       7.200   4.544  14.690  0.00  0.00    +0.000 A 
ATOM     14  N   UNL     1       7.691   4.714  15.932  0.00  0.00    +0.000 NA
ATOM     15  C   UNL     1       6.784   4.768  16.939  0.00  0.00    +0.000 A 
ATOM     16  C   UNL     1       5.400   4.681  16.776  0.00  0.00    +0.000 A 
ATOM     17  C   UNL     1       4.945   4.486  15.467  0.00  0.00    +0.000 A 
ENDBRANCH   1  16
BRANCH   9  18
ATOM     18  C   UNL     1       1.991   8.242  18.280  0.00  0.00    +0.000 C 
BRANCH  18  19
ATOM     19  C   UNL     1       1.453   9.569  18.785  0.00  0.00    +0.000 A 
ATOM     20  C   UNL     1       0.395   9.661  19.706  0.00  0.00    +0.000 A 
ATOM     21  C   UNL     1      -0.105  10.908  20.101  0.00  0.00    +0.000 A 
ATOM     22  C   UNL     1       0.421  12.078  19.561  0.00  0.00    +0.000 A 
ATOM     23  C   UNL     1       1.466  12.006  18.639  0.00  0.00    +0.000 A 
ATOM     24  C   UNL     1       1.968  10.763  18.243  0.00  0.00    +0.000 A 
ATOM     25  O   UNL     1       2.038  13.113  18.063  0.00  0.00    +0.000 OA
ATOM     26  C   UNL     1       1.692  14.311  18.770  0.00  0.00    +0.000 C 
ATOM     27  C   UNL     1       0.210  14.339  19.102  0.00  0.00    +0.000 C 
ATOM     28  O   UNL     1      -0.137  13.259  19.978  0.00  0.00    +0.000 OA
ENDBRANCH  18  19
ENDBRANCH   9  18
TORSDOF 3
ENDMDL
