MODEL 1
REMARK VINA RESULT:      -7.3      0.000      0.000
REMARK  Name = 
REMARK  7 active torsions:
REMARK  status: ('A' for Active; 'I' for Inactive)
REMARK    1  A    between atoms: C_1  and  N_2
REMARK    2  A    between atoms: C_6  and  C_7
REMARK    3  A    between atoms: N_16  and  C_17
REMARK    4  A    between atoms: C_20  and  C_21
REMARK    5  A    between atoms: C_24  and  C_25
REMARK    6  A    between atoms: C_33  and  C_34
REMARK    7  A    between atoms: C_33  and  C_35
REMARK                            x       y       z     vdW  Elec       q    Type
REMARK                         _______ _______ _______ _____ _____    ______ ____
ROOT
ATOM      1  C   UNL     1      -6.434  10.923  18.282  0.00  0.00    +0.000 C 
ATOM      2  N   UNL     1      -5.045  11.313  18.475  0.00  0.00    +0.000 N 
ATOM      3  C   UNL     1      -4.759  12.262  19.452  0.00  0.00    +0.000 A 
ATOM      4  O   UNL     1      -5.644  12.849  20.072  0.00  0.00    +0.000 OA
ATOM      5  C   UNL     1      -3.331  12.507  19.659  0.00  0.00    +0.000 A 
ATOM      6  C   UNL     1      -2.668  13.237  20.661  0.00  0.00    +0.000 A 
ATOM      7  N   UNL     1      -1.297  13.167  20.322  0.00  0.00    +0.000 N 
ATOM      8  C   UNL     1      -1.131  12.356  19.182  0.00  0.00    +0.000 A 
ATOM      9  C   UNL     1      -2.389  11.955  18.763  0.00  0.00    +0.000 A 
ATOM     10  N   UNL     1      -2.793  11.146  17.690  0.00  0.00    +0.000 N 
ATOM     11  C   UNL     1      -1.936  10.551  16.680  0.00  0.00    +0.000 C 
ATOM     12  C   UNL     1      -4.141  10.786  17.564  0.00  0.00    +0.000 A 
ATOM     13  O   UNL     1      -4.522  10.025  16.661  0.00  0.00    +0.000 OA
ATOM     14  C   UNL     1       0.230  12.009  18.644  0.00  0.00    +0.000 C 
ATOM     15  O   UNL     1       1.213  12.938  19.103  0.00  0.00    +0.000 OA
ATOM     16  C   UNL     1       1.193  13.084  20.511  0.00  0.00    +0.000 C 
ATOM     17  C   UNL     1      -0.111  13.787  20.977  0.00  0.00    +0.000 C 
ATOM     18  C   UNL     1       0.071  15.252  20.507  0.00  0.00    +0.000 C 
ATOM     19  C   UNL     1      -0.080  13.588  22.506  0.00  0.00    +0.000 C 
ENDROOT
BRANCH   6  20
ATOM     20  C   UNL     1      -3.287  13.915  21.851  0.00  0.00    +0.000 A 
ATOM     21  C   UNL     1      -3.454  15.310  21.890  0.00  0.00    +0.000 A 
ATOM     22  C   UNL     1      -3.938  15.975  23.029  0.00  0.00    +0.000 A 
ATOM     23  C   UNL     1      -4.364  15.258  24.140  0.00  0.00    +0.000 A 
ATOM     24  C   UNL     1      -4.265  13.879  24.117  0.00  0.00    +0.000 A 
ATOM     25  C   UNL     1      -3.688  13.239  23.010  0.00  0.00    +0.000 A 
ENDBRANCH   6  20
BRANCH  14  26
ATOM     26  C   UNL     1       0.687  10.580  18.922  0.00  0.00    +0.000 A 
ATOM     27  C   UNL     1       1.472   9.909  17.970  0.00  0.00    +0.000 A 
ATOM     28  C   UNL     1       1.959   8.624  18.223  0.00  0.00    +0.000 A 
ATOM     29  C   UNL     1       1.696   7.987  19.444  0.00  0.00    +0.000 A 
ATOM     30  C   UNL     1       0.915   8.652  20.397  0.00  0.00    +0.000 A 
ATOM     31  C   UNL     1       0.411   9.926  20.136  0.00  0.00    +0.000 A 
BRANCH  29  32
ATOM     32  C   UNL     1       2.254   6.622  19.757  0.00  0.00    +0.000 C 
ATOM     33  F   UNL     1       1.895   5.664  18.857  0.00  0.00    +0.000 F 
ATOM     34  F   UNL     1       3.616   6.613  19.787  0.00  0.00    +0.000 F 
ATOM     35  F   UNL     1       1.851   6.161  20.974  0.00  0.00    +0.000 F 
ENDBRANCH  29  32
ENDBRANCH  14  26
TORSDOF 3
ENDMDL
MODEL 2
REMARK VINA RESULT:      -7.3      1.346      1.778
REMARK  Name = 
REMARK  7 active torsions:
REMARK  status: ('A' for Active; 'I' for Inactive)
REMARK    1  A    between atoms: C_1  and  N_2
REMARK    2  A    between atoms: C_6  and  C_7
REMARK    3  A    between atoms: N_16  and  C_17
REMARK    4  A    between atoms: C_20  and  C_21
REMARK    5  A    between atoms: C_24  and  C_25
REMARK    6  A    between atoms: C_33  and  C_34
REMARK    7  A    between atoms: C_33  and  C_35
REMARK                            x       y       z     vdW  Elec       q    Type
REMARK                         _______ _______ _______ _____ _____    ______ ____
ROOT
ATOM      1  C   UNL     1      -5.812  11.909  19.742  0.00  0.00    +0.000 C 
ATOM      2  N   UNL     1      -4.385  12.073  19.505  0.00  0.00    +0.000 N 
ATOM      3  C   UNL     1      -3.718  13.086  20.187  0.00  0.00    +0.000 A 
ATOM      4  O   UNL     1      -4.312  13.900  20.892  0.00  0.00    +0.000 OA
ATOM      5  C   UNL     1      -2.270  13.104  19.980  0.00  0.00    +0.000 A 
ATOM      6  C   UNL     1      -1.266  13.842  20.632  0.00  0.00    +0.000 A 
ATOM      7  N   UNL     1      -0.064  13.486  19.978  0.00  0.00    +0.000 N 
ATOM      8  C   UNL     1      -0.328  12.506  19.002  0.00  0.00    +0.000 A 
ATOM      9  C   UNL     1      -1.693  12.275  18.993  0.00  0.00    +0.000 A 
ATOM     10  N   UNL     1      -2.481  11.405  18.223  0.00  0.00    +0.000 N 
ATOM     11  C   UNL     1      -2.021  10.533  17.157  0.00  0.00    +0.000 C 
ATOM     12  C   UNL     1      -3.846  11.273  18.509  0.00  0.00    +0.000 A 
ATOM     13  O   UNL     1      -4.557  10.470  17.886  0.00  0.00    +0.000 OA
ATOM     14  C   UNL     1       0.775  11.853  18.213  0.00  0.00    +0.000 C 
ATOM     15  O   UNL     1       1.959  12.652  18.231  0.00  0.00    +0.000 OA
ATOM     16  C   UNL     1       2.349  12.997  19.548  0.00  0.00    +0.000 C 
ATOM     17  C   UNL     1       1.327  13.976  20.190  0.00  0.00    +0.000 C 
ATOM     18  C   UNL     1       1.562  15.305  19.428  0.00  0.00    +0.000 C 
ATOM     19  C   UNL     1       1.755  13.993  21.671  0.00  0.00    +0.000 C 
ENDROOT
BRANCH   6  20
ATOM     20  C   UNL     1      -1.437  14.779  21.795  0.00  0.00    +0.000 A 
ATOM     21  C   UNL     1      -1.560  14.294  23.109  0.00  0.00    +0.000 A 
ATOM     22  C   UNL     1      -1.820  15.143  24.199  0.00  0.00    +0.000 A 
ATOM     23  C   UNL     1      -1.872  16.520  24.028  0.00  0.00    +0.000 A 
ATOM     24  C   UNL     1      -1.701  17.036  22.756  0.00  0.00    +0.000 A 
ATOM     25  C   UNL     1      -1.541  16.169  21.666  0.00  0.00    +0.000 A 
ENDBRANCH   6  20
BRANCH  14  26
ATOM     26  C   UNL     1       1.100  10.421  18.624  0.00  0.00    +0.000 A 
ATOM     27  C   UNL     1       1.781   9.583  17.725  0.00  0.00    +0.000 A 
ATOM     28  C   UNL     1       2.150   8.287  18.096  0.00  0.00    +0.000 A 
ATOM     29  C   UNL     1       1.871   7.804  19.382  0.00  0.00    +0.000 A 
ATOM     30  C   UNL     1       1.193   8.636  20.282  0.00  0.00    +0.000 A 
ATOM     31  C   UNL     1       0.806   9.922  19.905  0.00  0.00    +0.000 A 
BRANCH  29  32
ATOM     32  C   UNL     1       2.304   6.428  19.819  0.00  0.00    +0.000 C 
ATOM     33  F   UNL     1       1.903   6.103  21.080  0.00  0.00    +0.000 F 
ATOM     34  F   UNL     1       1.814   5.449  19.008  0.00  0.00    +0.000 F 
ATOM     35  F   UNL     1       3.658   6.279  19.807  0.00  0.00    +0.000 F 
ENDBRANCH  29  32
ENDBRANCH  14  26
TORSDOF 3
ENDMDL
MODEL 3
REMARK VINA RESULT:      -7.3      7.260     11.007
REMARK  Name = 
REMARK  7 active torsions:
REMARK  status: ('A' for Active; 'I' for Inactive)
REMARK    1  A    between atoms: C_1  and  N_2
REMARK    2  A    between atoms: C_6  and  C_7
REMARK    3  A    between atoms: N_16  and  C_17
REMARK    4  A    between atoms: C_20  and  C_21
REMARK    5  A    between atoms: C_24  and  C_25
REMARK    6  A    between atoms: C_33  and  C_34
REMARK    7  A    between atoms: C_33  and  C_35
REMARK                            x       y       z     vdW  Elec       q    Type
REMARK                         _______ _______ _______ _____ _____    ______ ____
ROOT
ATOM      1  C   UNL     1       6.932  11.583  25.012  0.00  0.00    +0.000 C 
ATOM      2  N   UNL     1       6.859  12.633  24.006  0.00  0.00    +0.000 N 
ATOM      3  C   UNL     1       7.880  12.713  23.064  0.00  0.00    +0.000 A 
ATOM      4  O   UNL     1       8.880  11.999  23.123  0.00  0.00    +0.000 OA
ATOM      5  C   UNL     1       7.667  13.719  22.024  0.00  0.00    +0.000 A 
ATOM      6  C   UNL     1       8.370  13.956  20.829  0.00  0.00    +0.000 A 
ATOM      7  N   UNL     1       7.745  15.086  20.252  0.00  0.00    +0.000 N 
ATOM      8  C   UNL     1       6.648  15.478  21.045  0.00  0.00    +0.000 A 
ATOM      9  C   UNL     1       6.605  14.641  22.148  0.00  0.00    +0.000 A 
ATOM     10  N   UNL     1       5.723  14.592  23.239  0.00  0.00    +0.000 N 
ATOM     11  C   UNL     1       4.619  15.498  23.504  0.00  0.00    +0.000 C 
ATOM     12  C   UNL     1       5.828  13.547  24.166  0.00  0.00    +0.000 A 
ATOM     13  O   UNL     1       5.027  13.443  25.108  0.00  0.00    +0.000 OA
ATOM     14  C   UNL     1       5.724  16.589  20.629  0.00  0.00    +0.000 C 
ATOM     15  O   UNL     1       6.348  17.440  19.666  0.00  0.00    +0.000 OA
ATOM     16  C   UNL     1       6.869  16.713  18.570  0.00  0.00    +0.000 C 
ATOM     17  C   UNL     1       8.075  15.837  19.008  0.00  0.00    +0.000 C 
ATOM     18  C   UNL     1       9.202  16.868  19.273  0.00  0.00    +0.000 C 
ATOM     19  C   UNL     1       8.302  14.929  17.783  0.00  0.00    +0.000 C 
ENDROOT
BRANCH   6  20
ATOM     20  C   UNL     1       9.516  13.156  20.274  0.00  0.00    +0.000 A 
ATOM     21  C   UNL     1      10.838  13.628  20.351  0.00  0.00    +0.000 A 
ATOM     22  C   UNL     1      11.912  12.946  19.754  0.00  0.00    +0.000 A 
ATOM     23  C   UNL     1      11.716  11.717  19.139  0.00  0.00    +0.000 A 
ATOM     24  C   UNL     1      10.436  11.196  19.092  0.00  0.00    +0.000 A 
ATOM     25  C   UNL     1       9.362  11.936  19.606  0.00  0.00    +0.000 A 
ENDBRANCH   6  20
BRANCH  14  26
ATOM     26  C   UNL     1       4.359  16.135  20.123  0.00  0.00    +0.000 A 
ATOM     27  C   UNL     1       4.126  14.768  19.897  0.00  0.00    +0.000 A 
ATOM     28  C   UNL     1       2.867  14.314  19.495  0.00  0.00    +0.000 A 
ATOM     29  C   UNL     1       1.802  15.211  19.332  0.00  0.00    +0.000 A 
ATOM     30  C   UNL     1       2.028  16.575  19.556  0.00  0.00    +0.000 A 
ATOM     31  C   UNL     1       3.290  17.030  19.937  0.00  0.00    +0.000 A 
BRANCH  29  32
ATOM     32  C   UNL     1       0.423  14.736  18.947  0.00  0.00    +0.000 C 
ATOM     33  F   UNL     1      -0.321  15.680  18.306  0.00  0.00    +0.000 F 
ATOM     34  F   UNL     1       0.460  13.661  18.112  0.00  0.00    +0.000 F 
ATOM     35  F   UNL     1      -0.314  14.347  20.024  0.00  0.00    +0.000 F 
ENDBRANCH  29  32
ENDBRANCH  14  26
TORSDOF 3
ENDMDL
MODEL 4
REMARK VINA RESULT:      -7.2      0.133      1.030
REMARK  Name = 
REMARK  7 active torsions:
REMARK  status: ('A' for Active; 'I' for Inactive)
REMARK    1  A    between atoms: C_1  and  N_2
REMARK    2  A    between atoms: C_6  and  C_7
REMARK    3  A    between atoms: N_16  and  C_17
REMARK    4  A    between atoms: C_20  and  C_21
REMARK    5  A    between atoms: C_24  and  C_25
REMARK    6  A    between atoms: C_33  and  C_34
REMARK    7  A    between atoms: C_33  and  C_35
REMARK                            x       y       z     vdW  Elec       q    Type
REMARK                         _______ _______ _______ _____ _____    ______ ____
ROOT
ATOM      1  C   UNL     1      -6.405  10.941  18.465  0.00  0.00    +0.000 C 
ATOM      2  N   UNL     1      -5.006  11.321  18.598  0.00  0.00    +0.000 N 
ATOM      3  C   UNL     1      -4.675  12.291  19.538  0.00  0.00    +0.000 A 
ATOM      4  O   UNL     1      -5.532  12.903  20.176  0.00  0.00    +0.000 OA
ATOM      5  C   UNL     1      -3.239  12.527  19.687  0.00  0.00    +0.000 A 
ATOM      6  C   UNL     1      -2.533  13.275  20.646  0.00  0.00    +0.000 A 
ATOM      7  N   UNL     1      -1.176  13.183  20.258  0.00  0.00    +0.000 N 
ATOM      8  C   UNL     1      -1.060  12.342  19.134  0.00  0.00    +0.000 A 
ATOM      9  C   UNL     1      -2.336  11.944  18.771  0.00  0.00    +0.000 A 
ATOM     10  N   UNL     1      -2.787  11.112  17.735  0.00  0.00    +0.000 N 
ATOM     11  C   UNL     1      -1.972  10.483  16.710  0.00  0.00    +0.000 C 
ATOM     12  C   UNL     1      -4.142  10.763  17.667  0.00  0.00    +0.000 A 
ATOM     13  O   UNL     1      -4.561   9.984  16.799  0.00  0.00    +0.000 OA
ATOM     14  C   UNL     1       0.278  11.968  18.556  0.00  0.00    +0.000 C 
ATOM     15  O   UNL     1       1.286  12.899  18.955  0.00  0.00    +0.000 OA
ATOM     16  C   UNL     1       1.319  13.080  20.359  0.00  0.00    +0.000 C 
ATOM     17  C   UNL     1       0.039  13.807  20.854  0.00  0.00    +0.000 C 
ATOM     18  C   UNL     1       0.217  15.258  20.341  0.00  0.00    +0.000 C 
ATOM     19  C   UNL     1       0.124  13.646  22.385  0.00  0.00    +0.000 C 
ENDROOT
BRANCH   6  20
ATOM     20  C   UNL     1      -3.102  13.989  21.840  0.00  0.00    +0.000 A 
ATOM     21  C   UNL     1      -3.467  13.286  23.002  0.00  0.00    +0.000 A 
ATOM     22  C   UNL     1      -4.091  13.916  24.092  0.00  0.00    +0.000 A 
ATOM     23  C   UNL     1      -4.287  15.291  24.099  0.00  0.00    +0.000 A 
ATOM     24  C   UNL     1      -3.890  16.022  22.994  0.00  0.00    +0.000 A 
ATOM     25  C   UNL     1      -3.359  15.364  21.876  0.00  0.00    +0.000 A 
ENDBRANCH   6  20
BRANCH  14  26
ATOM     26  C   UNL     1       0.732  10.543  18.854  0.00  0.00    +0.000 A 
ATOM     27  C   UNL     1       1.501   9.851  17.903  0.00  0.00    +0.000 A 
ATOM     28  C   UNL     1       1.985   8.568  18.172  0.00  0.00    +0.000 A 
ATOM     29  C   UNL     1       1.735   7.954  19.407  0.00  0.00    +0.000 A 
ATOM     30  C   UNL     1       0.969   8.639  20.359  0.00  0.00    +0.000 A 
ATOM     31  C   UNL     1       0.468   9.911  20.082  0.00  0.00    +0.000 A 
BRANCH  29  32
ATOM     32  C   UNL     1       2.290   6.591  19.738  0.00  0.00    +0.000 C 
ATOM     33  F   UNL     1       1.868   6.105  20.938  0.00  0.00    +0.000 F 
ATOM     34  F   UNL     1       1.943   5.653  18.813  0.00  0.00    +0.000 F 
ATOM     35  F   UNL     1       3.651   6.580  19.787  0.00  0.00    +0.000 F 
ENDBRANCH  29  32
ENDBRANCH  14  26
TORSDOF 3
ENDMDL
MODEL 5
REMARK VINA RESULT:      -7.2      7.331     11.109
REMARK  Name = 
REMARK  7 active torsions:
REMARK  status: ('A' for Active; 'I' for Inactive)
REMARK    1  A    between atoms: C_1  and  N_2
REMARK    2  A    between atoms: C_6  and  C_7
REMARK    3  A    between atoms: N_16  and  C_17
REMARK    4  A    between atoms: C_20  and  C_21
REMARK    5  A    between atoms: C_24  and  C_25
REMARK    6  A    between atoms: C_33  and  C_34
REMARK    7  A    between atoms: C_33  and  C_35
REMARK                            x       y       z     vdW  Elec       q    Type
REMARK                         _______ _______ _______ _____ _____    ______ ____
ROOT
ATOM      1  C   UNL     1       7.023  11.506  24.858  0.00  0.00    +0.000 C 
ATOM      2  N   UNL     1       6.957  12.583  23.881  0.00  0.00    +0.000 N 
ATOM      3  C   UNL     1       7.969  12.670  22.930  0.00  0.00    +0.000 A 
ATOM      4  O   UNL     1       8.957  11.938  22.958  0.00  0.00    +0.000 OA
ATOM      5  C   UNL     1       7.762  13.707  21.918  0.00  0.00    +0.000 A 
ATOM      6  C   UNL     1       8.455  13.963  20.722  0.00  0.00    +0.000 A 
ATOM      7  N   UNL     1       7.843  15.118  20.182  0.00  0.00    +0.000 N 
ATOM      8  C   UNL     1       6.763  15.508  20.998  0.00  0.00    +0.000 A 
ATOM      9  C   UNL     1       6.717  14.643  22.079  0.00  0.00    +0.000 A 
ATOM     10  N   UNL     1       5.847  14.580  23.179  0.00  0.00    +0.000 N 
ATOM     11  C   UNL     1       4.763  15.498  23.480  0.00  0.00    +0.000 C 
ATOM     12  C   UNL     1       5.944  13.510  24.077  0.00  0.00    +0.000 A 
ATOM     13  O   UNL     1       5.153  13.394  25.025  0.00  0.00    +0.000 OA
ATOM     14  C   UNL     1       5.853  16.645  20.622  0.00  0.00    +0.000 C 
ATOM     15  O   UNL     1       6.481  17.511  19.675  0.00  0.00    +0.000 OA
ATOM     16  C   UNL     1       6.977  16.804  18.553  0.00  0.00    +0.000 C 
ATOM     17  C   UNL     1       8.172  15.896  18.955  0.00  0.00    +0.000 C 
ATOM     18  C   UNL     1       9.320  16.900  19.233  0.00  0.00    +0.000 C 
ATOM     19  C   UNL     1       8.370  15.017  17.704  0.00  0.00    +0.000 C 
ENDROOT
BRANCH   6  20
ATOM     20  C   UNL     1       9.580  13.159  20.133  0.00  0.00    +0.000 A 
ATOM     21  C   UNL     1       9.336  11.949  19.460  0.00  0.00    +0.000 A 
ATOM     22  C   UNL     1      10.377  11.131  18.988  0.00  0.00    +0.000 A 
ATOM     23  C   UNL     1      11.701  11.540  19.090  0.00  0.00    +0.000 A 
ATOM     24  C   UNL     1      11.975  12.751  19.699  0.00  0.00    +0.000 A 
ATOM     25  C   UNL     1      10.931  13.508  20.250  0.00  0.00    +0.000 A 
ENDBRANCH   6  20
BRANCH  14  26
ATOM     26  C   UNL     1       4.475  16.228  20.120  0.00  0.00    +0.000 A 
ATOM     27  C   UNL     1       4.235  14.881  19.800  0.00  0.00    +0.000 A 
ATOM     28  C   UNL     1       2.966  14.457  19.399  0.00  0.00    +0.000 A 
ATOM     29  C   UNL     1       1.897  15.362  19.332  0.00  0.00    +0.000 A 
ATOM     30  C   UNL     1       2.131  16.706  19.650  0.00  0.00    +0.000 A 
ATOM     31  C   UNL     1       3.403  17.133  20.030  0.00  0.00    +0.000 A 
BRANCH  29  32
ATOM     32  C   UNL     1       0.508  14.915  18.950  0.00  0.00    +0.000 C 
ATOM     33  F   UNL     1       0.485  13.770  18.213  0.00  0.00    +0.000 F 
ATOM     34  F   UNL     1      -0.275  14.675  20.038  0.00  0.00    +0.000 F 
ATOM     35  F   UNL     1      -0.155  15.849  18.212  0.00  0.00    +0.000 F 
ENDBRANCH  29  32
ENDBRANCH  14  26
TORSDOF 3
ENDMDL
MODEL 6
REMARK VINA RESULT:      -7.2      4.538      7.279
REMARK  Name = 
REMARK  7 active torsions:
REMARK  status: ('A' for Active; 'I' for Inactive)
REMARK    1  A    between atoms: C_1  and  N_2
REMARK    2  A    between atoms: C_6  and  C_7
REMARK    3  A    between atoms: N_16  and  C_17
REMARK    4  A    between atoms: C_20  and  C_21
REMARK    5  A    between atoms: C_24  and  C_25
REMARK    6  A    between atoms: C_33  and  C_34
REMARK    7  A    between atoms: C_33  and  C_35
REMARK                            x       y       z     vdW  Elec       q    Type
REMARK                         _______ _______ _______ _____ _____    ______ ____
ROOT
ATOM      1  C   UNL     1       0.803  10.316  18.519  0.00  0.00    +0.000 C 
ATOM      2  N   UNL     1       0.416  11.235  19.580  0.00  0.00    +0.000 N 
ATOM      3  C   UNL     1       0.707  12.586  19.418  0.00  0.00    +0.000 A 
ATOM      4  O   UNL     1       1.367  13.003  18.467  0.00  0.00    +0.000 OA
ATOM      5  C   UNL     1       0.180  13.451  20.475  0.00  0.00    +0.000 A 
ATOM      6  C   UNL     1       0.112  14.853  20.555  0.00  0.00    +0.000 A 
ATOM      7  N   UNL     1      -0.449  15.122  21.824  0.00  0.00    +0.000 N 
ATOM      8  C   UNL     1      -0.776  13.911  22.465  0.00  0.00    +0.000 A 
ATOM      9  C   UNL     1      -0.377  12.875  21.637  0.00  0.00    +0.000 A 
ATOM     10  N   UNL     1      -0.466  11.482  21.788  0.00  0.00    +0.000 N 
ATOM     11  C   UNL     1      -0.980  10.766  22.942  0.00  0.00    +0.000 C 
ATOM     12  C   UNL     1      -0.098  10.647  20.726  0.00  0.00    +0.000 A 
ATOM     13  O   UNL     1      -0.220   9.415  20.807  0.00  0.00    +0.000 OA
ATOM     14  C   UNL     1      -1.487  13.880  23.790  0.00  0.00    +0.000 C 
ATOM     15  O   UNL     1      -1.344  15.125  24.477  0.00  0.00    +0.000 OA
ATOM     16  C   UNL     1      -1.722  16.225  23.670  0.00  0.00    +0.000 C 
ATOM     17  C   UNL     1      -0.721  16.423  22.499  0.00  0.00    +0.000 C 
ATOM     18  C   UNL     1       0.557  16.959  23.192  0.00  0.00    +0.000 C 
ATOM     19  C   UNL     1      -1.446  17.443  21.598  0.00  0.00    +0.000 C 
ENDROOT
BRANCH   6  20
ATOM     20  C   UNL     1       0.519  15.844  19.500  0.00  0.00    +0.000 A 
ATOM     21  C   UNL     1       1.820  16.375  19.463  0.00  0.00    +0.000 A 
ATOM     22  C   UNL     1       2.195  17.374  18.549  0.00  0.00    +0.000 A 
ATOM     23  C   UNL     1       1.308  17.813  17.575  0.00  0.00    +0.000 A 
ATOM     24  C   UNL     1       0.035  17.273  17.547  0.00  0.00    +0.000 A 
ATOM     25  C   UNL     1      -0.353  16.348  18.527  0.00  0.00    +0.000 A 
ENDBRANCH   6  20
BRANCH  14  26
ATOM     26  C   UNL     1      -2.958  13.484  23.722  0.00  0.00    +0.000 A 
ATOM     27  C   UNL     1      -3.571  12.907  24.848  0.00  0.00    +0.000 A 
ATOM     28  C   UNL     1      -4.932  12.592  24.838  0.00  0.00    +0.000 A 
ATOM     29  C   UNL     1      -5.722  12.868  23.713  0.00  0.00    +0.000 A 
ATOM     30  C   UNL     1      -5.116  13.443  22.588  0.00  0.00    +0.000 A 
ATOM     31  C   UNL     1      -3.753  13.737  22.590  0.00  0.00    +0.000 A 
BRANCH  29  32
ATOM     32  C   UNL     1      -7.202  12.582  23.699  0.00  0.00    +0.000 C 
ATOM     33  F   UNL     1      -7.790  12.797  22.489  0.00  0.00    +0.000 F 
ATOM     34  F   UNL     1      -7.483  11.290  24.025  0.00  0.00    +0.000 F 
ATOM     35  F   UNL     1      -7.890  13.349  24.590  0.00  0.00    +0.000 F 
ENDBRANCH  29  32
ENDBRANCH  14  26
TORSDOF 3
ENDMDL
MODEL 7
REMARK VINA RESULT:      -7.2      0.240      1.068
REMARK  Name = 
REMARK  7 active torsions:
REMARK  status: ('A' for Active; 'I' for Inactive)
REMARK    1  A    between atoms: C_1  and  N_2
REMARK    2  A    between atoms: C_6  and  C_7
REMARK    3  A    between atoms: N_16  and  C_17
REMARK    4  A    between atoms: C_20  and  C_21
REMARK    5  A    between atoms: C_24  and  C_25
REMARK    6  A    between atoms: C_33  and  C_34
REMARK    7  A    between atoms: C_33  and  C_35
REMARK                            x       y       z     vdW  Elec       q    Type
REMARK                         _______ _______ _______ _____ _____    ______ ____
ROOT
ATOM      1  C   UNL     1      -6.292  10.671  18.587  0.00  0.00    +0.000 C 
ATOM      2  N   UNL     1      -4.920  11.148  18.688  0.00  0.00    +0.000 N 
ATOM      3  C   UNL     1      -4.641  12.157  19.604  0.00  0.00    +0.000 A 
ATOM      4  O   UNL     1      -5.527  12.722  20.244  0.00  0.00    +0.000 OA
ATOM      5  C   UNL     1      -3.222  12.493  19.723  0.00  0.00    +0.000 A 
ATOM      6  C   UNL     1      -2.553  13.307  20.655  0.00  0.00    +0.000 A 
ATOM      7  N   UNL     1      -1.200  13.299  20.246  0.00  0.00    +0.000 N 
ATOM      8  C   UNL     1      -1.044  12.445  19.136  0.00  0.00    +0.000 A 
ATOM      9  C   UNL     1      -2.296  11.953  18.804  0.00  0.00    +0.000 A 
ATOM     10  N   UNL     1      -2.705  11.072  17.791  0.00  0.00    +0.000 N 
ATOM     11  C   UNL     1      -1.866  10.479  16.765  0.00  0.00    +0.000 C 
ATOM     12  C   UNL     1      -4.034  10.630  17.755  0.00  0.00    +0.000 A 
ATOM     13  O   UNL     1      -4.413   9.806  16.909  0.00  0.00    +0.000 OA
ATOM     14  C   UNL     1       0.306  12.151  18.543  0.00  0.00    +0.000 C 
ATOM     15  O   UNL     1       1.255  13.156  18.906  0.00  0.00    +0.000 OA
ATOM     16  C   UNL     1       1.297  13.368  20.306  0.00  0.00    +0.000 C 
ATOM     17  C   UNL     1      -0.021  14.016  20.809  0.00  0.00    +0.000 C 
ATOM     18  C   UNL     1       0.049  15.466  20.264  0.00  0.00    +0.000 C 
ATOM     19  C   UNL     1       0.100  13.894  22.341  0.00  0.00    +0.000 C 
ENDROOT
BRANCH   6  20
ATOM     20  C   UNL     1      -3.151  14.004  21.845  0.00  0.00    +0.000 A 
ATOM     21  C   UNL     1      -3.402  15.387  21.828  0.00  0.00    +0.000 A 
ATOM     22  C   UNL     1      -3.867  16.078  22.960  0.00  0.00    +0.000 A 
ATOM     23  C   UNL     1      -4.187  15.393  24.126  0.00  0.00    +0.000 A 
ATOM     24  C   UNL     1      -4.004  14.023  24.160  0.00  0.00    +0.000 A 
ATOM     25  C   UNL     1      -3.447  13.365  23.055  0.00  0.00    +0.000 A 
ENDBRANCH   6  20
BRANCH  14  26
ATOM     26  C   UNL     1       0.861  10.766  18.860  0.00  0.00    +0.000 A 
ATOM     27  C   UNL     1       0.529  10.152  20.080  0.00  0.00    +0.000 A 
ATOM     28  C   UNL     1       0.969   8.858  20.371  0.00  0.00    +0.000 A 
ATOM     29  C   UNL     1       1.730   8.135  19.442  0.00  0.00    +0.000 A 
ATOM     30  C   UNL     1       2.063   8.742  18.225  0.00  0.00    +0.000 A 
ATOM     31  C   UNL     1       1.642  10.042  17.943  0.00  0.00    +0.000 A 
BRANCH  29  32
ATOM     32  C   UNL     1       2.173   6.720  19.716  0.00  0.00    +0.000 C 
ATOM     33  F   UNL     1       3.522   6.583  19.841  0.00  0.00    +0.000 F 
ATOM     34  F   UNL     1       1.640   6.225  20.868  0.00  0.00    +0.000 F 
ATOM     35  F   UNL     1       1.799   5.857  18.731  0.00  0.00    +0.000 F 
ENDBRANCH  29  32
ENDBRANCH  14  26
TORSDOF 3
ENDMDL
MODEL 8
REMARK VINA RESULT:      -7.2      1.318      1.748
REMARK  Name = 
REMARK  7 active torsions:
REMARK  status: ('A' for Active; 'I' for Inactive)
REMARK    1  A    between atoms: C_1  and  N_2
REMARK    2  A    between atoms: C_6  and  C_7
REMARK    3  A    between atoms: N_16  and  C_17
REMARK    4  A    between atoms: C_20  and  C_21
REMARK    5  A    between atoms: C_24  and  C_25
REMARK    6  A    between atoms: C_33  and  C_34
REMARK    7  A    between atoms: C_33  and  C_35
REMARK                            x       y       z     vdW  Elec       q    Type
REMARK                         _______ _______ _______ _____ _____    ______ ____
ROOT
ATOM      1  C   UNL     1      -5.741  11.648  19.700  0.00  0.00    +0.000 C 
ATOM      2  N   UNL     1      -4.325  11.906  19.476  0.00  0.00    +0.000 N 
ATOM      3  C   UNL     1      -3.732  12.959  20.165  0.00  0.00    +0.000 A 
ATOM      4  O   UNL     1      -4.385  13.732  20.866  0.00  0.00    +0.000 OA
ATOM      5  C   UNL     1      -2.287  13.072  19.971  0.00  0.00    +0.000 A 
ATOM      6  C   UNL     1      -1.339  13.873  20.633  0.00  0.00    +0.000 A 
ATOM      7  N   UNL     1      -0.111  13.597  19.989  0.00  0.00    +0.000 N 
ATOM      8  C   UNL     1      -0.301  12.604  19.009  0.00  0.00    +0.000 A 
ATOM      9  C   UNL     1      -1.649  12.285  18.988  0.00  0.00    +0.000 A 
ATOM     10  N   UNL     1      -2.371  11.367  18.210  0.00  0.00    +0.000 N 
ATOM     11  C   UNL     1      -1.846  10.528  17.147  0.00  0.00    +0.000 C 
ATOM     12  C   UNL     1      -3.727  11.145  18.483  0.00  0.00    +0.000 A 
ATOM     13  O   UNL     1      -4.378  10.298  17.852  0.00  0.00    +0.000 OA
ATOM     14  C   UNL     1       0.849  12.027  18.229  0.00  0.00    +0.000 C 
ATOM     15  O   UNL     1       1.978  12.901  18.259  0.00  0.00    +0.000 OA
ATOM     16  C   UNL     1       2.333  13.268  19.579  0.00  0.00    +0.000 C 
ATOM     17  C   UNL     1       1.244  14.177  20.213  0.00  0.00    +0.000 C 
ATOM     18  C   UNL     1       1.398  15.520  19.456  0.00  0.00    +0.000 C 
ATOM     19  C   UNL     1       1.656  14.220  21.698  0.00  0.00    +0.000 C 
ENDROOT
BRANCH   6  20
ATOM     20  C   UNL     1      -1.581  14.795  21.796  0.00  0.00    +0.000 A 
ATOM     21  C   UNL     1      -1.684  16.185  21.614  0.00  0.00    +0.000 A 
ATOM     22  C   UNL     1      -1.812  17.074  22.695  0.00  0.00    +0.000 A 
ATOM     23  C   UNL     1      -1.937  16.597  23.993  0.00  0.00    +0.000 A 
ATOM     24  C   UNL     1      -1.895  15.231  24.204  0.00  0.00    +0.000 A 
ATOM     25  C   UNL     1      -1.669  14.364  23.125  0.00  0.00    +0.000 A 
ENDBRANCH   6  20
BRANCH  14  26
ATOM     26  C   UNL     1       1.264  10.618  18.641  0.00  0.00    +0.000 A 
ATOM     27  C   UNL     1       0.881  10.127  19.900  0.00  0.00    +0.000 A 
ATOM     28  C   UNL     1       1.191   8.818  20.281  0.00  0.00    +0.000 A 
ATOM     29  C   UNL     1       1.868   7.959  19.403  0.00  0.00    +0.000 A 
ATOM     30  C   UNL     1       2.251   8.444  18.146  0.00  0.00    +0.000 A 
ATOM     31  C   UNL     1       1.961   9.757  17.775  0.00  0.00    +0.000 A 
BRANCH  29  32
ATOM     32  C   UNL     1       2.168   6.529  19.774  0.00  0.00    +0.000 C 
ATOM     33  F   UNL     1       3.495   6.276  19.950  0.00  0.00    +0.000 F 
ATOM     34  F   UNL     1       1.561   6.157  20.936  0.00  0.00    +0.000 F 
ATOM     35  F   UNL     1       1.740   5.645  18.831  0.00  0.00    +0.000 F 
ENDBRANCH  29  32
ENDBRANCH  14  26
TORSDOF 3
ENDMDL
MODEL 9
REMARK VINA RESULT:      -7.1      7.211     11.011
REMARK  Name = 
REMARK  7 active torsions:
REMARK  status: ('A' for Active; 'I' for Inactive)
REMARK    1  A    between atoms: C_1  and  N_2
REMARK    2  A    between atoms: C_6  and  C_7
REMARK    3  A    between atoms: N_16  and  C_17
REMARK    4  A    between atoms: C_20  and  C_21
REMARK    5  A    between atoms: C_24  and  C_25
REMARK    6  A    between atoms: C_33  and  C_34
REMARK    7  A    between atoms: C_33  and  C_35
REMARK                            x       y       z     vdW  Elec       q    Type
REMARK                         _______ _______ _______ _____ _____    ______ ____
ROOT
ATOM      1  C   UNL     1       7.109  11.538  25.044  0.00  0.00    +0.000 C 
ATOM      2  N   UNL     1       6.959  12.599  24.057  0.00  0.00    +0.000 N 
ATOM      3  C   UNL     1       7.922  12.708  23.059  0.00  0.00    +0.000 A 
ATOM      4  O   UNL     1       8.937  12.012  23.051  0.00  0.00    +0.000 OA
ATOM      5  C   UNL     1       7.632  13.723  22.046  0.00  0.00    +0.000 A 
ATOM      6  C   UNL     1       8.260  13.988  20.816  0.00  0.00    +0.000 A 
ATOM      7  N   UNL     1       7.583  15.112  20.292  0.00  0.00    +0.000 N 
ATOM      8  C   UNL     1       6.528  15.475  21.152  0.00  0.00    +0.000 A 
ATOM      9  C   UNL     1       6.563  14.624  22.244  0.00  0.00    +0.000 A 
ATOM     10  N   UNL     1       5.747  14.546  23.383  0.00  0.00    +0.000 N 
ATOM     11  C   UNL     1       4.645  15.428  23.723  0.00  0.00    +0.000 C 
ATOM     12  C   UNL     1       5.923  13.492  24.289  0.00  0.00    +0.000 A 
ATOM     13  O   UNL     1       5.181  13.361  25.274  0.00  0.00    +0.000 OA
ATOM     14  C   UNL     1       5.561  16.574  20.804  0.00  0.00    +0.000 C 
ATOM     15  O   UNL     1       6.113  17.448  19.818  0.00  0.00    +0.000 OA
ATOM     16  C   UNL     1       6.583  16.744  18.684  0.00  0.00    +0.000 C 
ATOM     17  C   UNL     1       7.827  15.885  19.041  0.00  0.00    +0.000 C 
ATOM     18  C   UNL     1       8.949  16.932  19.253  0.00  0.00    +0.000 C 
ATOM     19  C   UNL     1       7.999  14.996  17.793  0.00  0.00    +0.000 C 
ENDROOT
BRANCH   6  20
ATOM     20  C   UNL     1       9.386  13.215  20.186  0.00  0.00    +0.000 A 
ATOM     21  C   UNL     1       9.144  12.029  19.472  0.00  0.00    +0.000 A 
ATOM     22  C   UNL     1      10.187  11.239  18.959  0.00  0.00    +0.000 A 
ATOM     23  C   UNL     1      11.508  11.656  19.061  0.00  0.00    +0.000 A 
ATOM     24  C   UNL     1      11.779  12.846  19.710  0.00  0.00    +0.000 A 
ATOM     25  C   UNL     1      10.735  13.573  20.300  0.00  0.00    +0.000 A 
ENDBRANCH   6  20
BRANCH  14  26
ATOM     26  C   UNL     1       4.177  16.101  20.372  0.00  0.00    +0.000 A 
ATOM     27  C   UNL     1       3.122  17.026  20.305  0.00  0.00    +0.000 A 
ATOM     28  C   UNL     1       1.858  16.637  19.851  0.00  0.00    +0.000 A 
ATOM     29  C   UNL     1       1.624  15.321  19.428  0.00  0.00    +0.000 A 
ATOM     30  C   UNL     1       2.674  14.395  19.492  0.00  0.00    +0.000 A 
ATOM     31  C   UNL     1       3.928  14.778  19.965  0.00  0.00    +0.000 A 
BRANCH  29  32
ATOM     32  C   UNL     1       0.283  14.892  18.888  0.00  0.00    +0.000 C 
ATOM     33  F   UNL     1      -0.327  15.841  18.124  0.00  0.00    +0.000 F 
ATOM     34  F   UNL     1       0.372  13.782  18.104  0.00  0.00    +0.000 F 
ATOM     35  F   UNL     1      -0.602  14.582  19.876  0.00  0.00    +0.000 F 
ENDBRANCH  29  32
ENDBRANCH  14  26
TORSDOF 3
ENDMDL
