MODEL 1
REMARK VINA RESULT:      -8.4      0.000      0.000
REMARK  Name = 
REMARK  2 active torsions:
REMARK  status: ('A' for Active; 'I' for Inactive)
REMARK    1  A    between atoms: C_1  and  C_2
REMARK    2  A    between atoms: C_5  and  C_6
REMARK                            x       y       z     vdW  Elec       q    Type
REMARK                         _______ _______ _______ _____ _____    ______ ____
ROOT
ATOM      1  C   UNL     1       4.538   1.657  19.901  0.00  0.00    +0.000 C 
ATOM      2  C   UNL     1       3.768   1.525  18.595  0.00  0.00    +0.000 C 
ATOM      3  N   UNL     1       4.101   2.579  17.666  0.00  0.00    +0.000 N 
ATOM      4  C   UNL     1       3.634   3.886  17.893  0.00  0.00    +0.000 A 
ATOM      5  C   UNL     1       4.261   5.005  17.274  0.00  0.00    +0.000 A 
ATOM      6  C   UNL     1       3.738   6.297  17.496  0.00  0.00    +0.000 A 
ATOM      7  C   UNL     1       2.612   6.496  18.290  0.00  0.00    +0.000 A 
ATOM      8 CL   UNL     1       2.021   8.088  18.556  0.00  0.00    +0.000 Cl
ATOM      9  C   UNL     1       1.964   5.417  18.864  0.00  0.00    +0.000 A 
ATOM     10  C   UNL     1       2.473   4.132  18.641  0.00  0.00    +0.000 A 
ATOM     11  S   UNL     1       1.604   2.796  19.382  0.00  0.00    +0.000 S 
ATOM     12  O   UNL     1       0.254   2.808  18.863  0.00  0.00    +0.000 OA
ATOM     13  O   UNL     1       1.877   2.836  20.803  0.00  0.00    +0.000 OA
ATOM     14  N   UNL     1       2.339   1.454  18.729  0.00  0.00    +0.000 NA
ATOM     15  H   UNL     1       5.103   2.574  17.476  0.00  0.00    +0.000 HD
ATOM     16  H   UNL     1       1.860   1.169  17.878  0.00  0.00    +0.000 HD
ENDROOT
BRANCH   5  17
ATOM     17  C   UNL     1       5.459   4.875  16.435  0.00  0.00    +0.000 A 
ATOM     18  C   UNL     1       5.611   4.721  15.025  0.00  0.00    +0.000 A 
ATOM     19  C   UNL     1       6.957   4.598  14.779  0.00  0.00    +0.000 A 
ATOM     20  O   UNL     1       7.657   4.702  15.933  0.00  0.00    +0.000 OA
ATOM     21  C   UNL     1       6.751   4.876  16.929  0.00  0.00    +0.000 A 
ENDBRANCH   5  17
TORSDOF 1
ENDMDL
MODEL 2
REMARK VINA RESULT:      -8.3      3.641      5.664
REMARK  Name = 
REMARK  2 active torsions:
REMARK  status: ('A' for Active; 'I' for Inactive)
REMARK    1  A    between atoms: C_1  and  C_2
REMARK    2  A    between atoms: C_5  and  C_6
REMARK                            x       y       z     vdW  Elec       q    Type
REMARK                         _______ _______ _______ _____ _____    ______ ____
ROOT
ATOM      1  C   UNL     1       7.630   6.850  18.476  0.00  0.00    +0.000 C 
ATOM      2  C   UNL     1       6.977   7.164  17.136  0.00  0.00    +0.000 C 
ATOM      3  N   UNL     1       5.536   7.143  17.224  0.00  0.00    +0.000 N 
ATOM      4  C   UNL     1       4.860   5.916  17.347  0.00  0.00    +0.000 A 
ATOM      5  C   UNL     1       3.529   5.861  17.851  0.00  0.00    +0.000 A 
ATOM      6  C   UNL     1       2.870   4.616  17.924  0.00  0.00    +0.000 A 
ATOM      7  C   UNL     1       3.488   3.443  17.494  0.00  0.00    +0.000 A 
ATOM      8 CL   UNL     1       2.661   1.942  17.622  0.00  0.00    +0.000 Cl
ATOM      9  C   UNL     1       4.764   3.483  16.961  0.00  0.00    +0.000 A 
ATOM     10  C   UNL     1       5.419   4.718  16.880  0.00  0.00    +0.000 A 
ATOM     11  S   UNL     1       7.033   4.713  16.183  0.00  0.00    +0.000 S 
ATOM     12  O   UNL     1       6.927   4.204  14.833  0.00  0.00    +0.000 OA
ATOM     13  O   UNL     1       7.924   4.119  17.156  0.00  0.00    +0.000 OA
ATOM     14  N   UNL     1       7.392   6.332  16.041  0.00  0.00    +0.000 NA
ATOM     15  H   UNL     1       5.219   7.811  17.926  0.00  0.00    +0.000 HD
ATOM     16  H   UNL     1       7.102   6.677  15.129  0.00  0.00    +0.000 HD
ENDROOT
BRANCH   5  17
ATOM     17  C   UNL     1       2.818   7.053  18.335  0.00  0.00    +0.000 A 
ATOM     18  C   UNL     1       2.450   8.264  17.677  0.00  0.00    +0.000 A 
ATOM     19  C   UNL     1       1.842   9.060  18.617  0.00  0.00    +0.000 A 
ATOM     20  O   UNL     1       1.771   8.415  19.805  0.00  0.00    +0.000 OA
ATOM     21  C   UNL     1       2.354   7.201  19.629  0.00  0.00    +0.000 A 
ENDBRANCH   5  17
TORSDOF 1
ENDMDL
MODEL 3
REMARK VINA RESULT:      -7.7      2.822      4.495
REMARK  Name = 
REMARK  2 active torsions:
REMARK  status: ('A' for Active; 'I' for Inactive)
REMARK    1  A    between atoms: C_1  and  C_2
REMARK    2  A    between atoms: C_5  and  C_6
REMARK                            x       y       z     vdW  Elec       q    Type
REMARK                         _______ _______ _______ _____ _____    ______ ____
ROOT
ATOM      1  C   UNL     1       0.850   2.916  18.630  0.00  0.00    +0.000 C 
ATOM      2  C   UNL     1       1.519   3.419  19.903  0.00  0.00    +0.000 C 
ATOM      3  N   UNL     1       2.041   4.756  19.742  0.00  0.00    +0.000 N 
ATOM      4  C   UNL     1       3.195   4.968  18.967  0.00  0.00    +0.000 A 
ATOM      5  C   UNL     1       3.495   6.257  18.440  0.00  0.00    +0.000 A 
ATOM      6  C   UNL     1       4.682   6.439  17.699  0.00  0.00    +0.000 A 
ATOM      7  C   UNL     1       5.574   5.389  17.490  0.00  0.00    +0.000 A 
ATOM      8 CL   UNL     1       6.997   5.645  16.561  0.00  0.00    +0.000 Cl
ATOM      9  C   UNL     1       5.320   4.142  18.032  0.00  0.00    +0.000 A 
ATOM     10  C   UNL     1       4.148   3.957  18.774  0.00  0.00    +0.000 A 
ATOM     11  S   UNL     1       3.882   2.357  19.450  0.00  0.00    +0.000 S 
ATOM     12  O   UNL     1       4.988   2.064  20.334  0.00  0.00    +0.000 OA
ATOM     13  O   UNL     1       3.523   1.478  18.358  0.00  0.00    +0.000 OA
ATOM     14  N   UNL     1       2.553   2.572  20.428  0.00  0.00    +0.000 NA
ATOM     15  H   UNL     1       1.293   5.393  19.472  0.00  0.00    +0.000 HD
ATOM     16  H   UNL     1       2.846   2.817  21.371  0.00  0.00    +0.000 HD
ENDROOT
BRANCH   5  17
ATOM     17  C   UNL     1       2.597   7.407  18.607  0.00  0.00    +0.000 A 
ATOM     18  C   UNL     1       2.114   8.371  17.672  0.00  0.00    +0.000 A 
ATOM     19  C   UNL     1       1.339   9.259  18.379  0.00  0.00    +0.000 A 
ATOM     20  O   UNL     1       1.274   8.893  19.681  0.00  0.00    +0.000 OA
ATOM     21  C   UNL     1       2.028   7.772  19.813  0.00  0.00    +0.000 A 
ENDBRANCH   5  17
TORSDOF 1
ENDMDL
MODEL 4
REMARK VINA RESULT:      -7.7      2.910      4.676
REMARK  Name = 
REMARK  2 active torsions:
REMARK  status: ('A' for Active; 'I' for Inactive)
REMARK    1  A    between atoms: C_1  and  C_2
REMARK    2  A    between atoms: C_5  and  C_6
REMARK                            x       y       z     vdW  Elec       q    Type
REMARK                         _______ _______ _______ _____ _____    ______ ____
ROOT
ATOM      1  C   UNL     1       0.697   3.136  19.786  0.00  0.00    +0.000 C 
ATOM      2  C   UNL     1       1.738   3.705  20.741  0.00  0.00    +0.000 C 
ATOM      3  N   UNL     1       2.184   5.016  20.329  0.00  0.00    +0.000 N 
ATOM      4  C   UNL     1       3.030   5.148  19.213  0.00  0.00    +0.000 A 
ATOM      5  C   UNL     1       3.149   6.392  18.529  0.00  0.00    +0.000 A 
ATOM      6  C   UNL     1       4.037   6.495  17.438  0.00  0.00    +0.000 A 
ATOM      7  C   UNL     1       4.814   5.413  17.031  0.00  0.00    +0.000 A 
ATOM      8 CL   UNL     1       5.867   5.572  15.681  0.00  0.00    +0.000 Cl
ATOM      9  C   UNL     1       4.745   4.210  17.711  0.00  0.00    +0.000 A 
ATOM     10  C   UNL     1       3.870   4.104  18.799  0.00  0.00    +0.000 A 
ATOM     11  S   UNL     1       3.831   2.559  19.636  0.00  0.00    +0.000 S 
ATOM     12  O   UNL     1       5.162   2.298  20.140  0.00  0.00    +0.000 OA
ATOM     13  O   UNL     1       3.141   1.619  18.779  0.00  0.00    +0.000 OA
ATOM     14  N   UNL     1       2.884   2.870  20.968  0.00  0.00    +0.000 NA
ATOM     15  H   UNL     1       1.390   5.651  20.267  0.00  0.00    +0.000 HD
ATOM     16  H   UNL     1       3.463   3.171  21.749  0.00  0.00    +0.000 HD
ENDROOT
BRANCH   5  17
ATOM     17  C   UNL     1       2.353   7.572  18.891  0.00  0.00    +0.000 A 
ATOM     18  C   UNL     1       1.811   7.996  20.141  0.00  0.00    +0.000 A 
ATOM     19  C   UNL     1       1.109   9.153  19.899  0.00  0.00    +0.000 A 
ATOM     20  O   UNL     1       1.208   9.498  18.594  0.00  0.00    +0.000 OA
ATOM     21  C   UNL     1       1.965   8.547  17.991  0.00  0.00    +0.000 A 
ENDBRANCH   5  17
TORSDOF 1
ENDMDL
MODEL 5
REMARK VINA RESULT:      -7.6      1.466      1.714
REMARK  Name = 
REMARK  2 active torsions:
REMARK  status: ('A' for Active; 'I' for Inactive)
REMARK    1  A    between atoms: C_1  and  C_2
REMARK    2  A    between atoms: C_5  and  C_6
REMARK                            x       y       z     vdW  Elec       q    Type
REMARK                         _______ _______ _______ _____ _____    ______ ____
ROOT
ATOM      1  C   UNL     1       4.490   1.635  19.825  0.00  0.00    +0.000 C 
ATOM      2  C   UNL     1       3.714   1.916  18.546  0.00  0.00    +0.000 C 
ATOM      3  N   UNL     1       3.923   3.266  18.076  0.00  0.00    +0.000 N 
ATOM      4  C   UNL     1       3.331   4.344  18.758  0.00  0.00    +0.000 A 
ATOM      5  C   UNL     1       3.831   5.669  18.607  0.00  0.00    +0.000 A 
ATOM      6  C   UNL     1       3.186   6.730  19.277  0.00  0.00    +0.000 A 
ATOM      7  C   UNL     1       2.059   6.509  20.066  0.00  0.00    +0.000 A 
ATOM      8 CL   UNL     1       1.316   7.824  20.886  0.00  0.00    +0.000 Cl
ATOM      9  C   UNL     1       1.533   5.236  20.189  0.00  0.00    +0.000 A 
ATOM     10  C   UNL     1       2.165   4.181  19.520  0.00  0.00    +0.000 A 
ATOM     11  S   UNL     1       1.447   2.586  19.701  0.00  0.00    +0.000 S 
ATOM     12  O   UNL     1       0.094   2.653  19.195  0.00  0.00    +0.000 OA
ATOM     13  O   UNL     1       1.740   2.127  21.042  0.00  0.00    +0.000 OA
ATOM     14  N   UNL     1       2.302   1.658  18.615  0.00  0.00    +0.000 NA
ATOM     15  H   UNL     1       4.917   3.430  17.919  0.00  0.00    +0.000 HD
ATOM     16  H   UNL     1       1.839   1.660  17.710  0.00  0.00    +0.000 HD
ENDROOT
BRANCH   5  17
ATOM     17  C   UNL     1       5.021   5.976  17.803  0.00  0.00    +0.000 A 
ATOM     18  C   UNL     1       6.412   5.908  18.112  0.00  0.00    +0.000 A 
ATOM     19  C   UNL     1       7.090   6.358  17.005  0.00  0.00    +0.000 A 
ATOM     20  O   UNL     1       6.221   6.666  16.015  0.00  0.00    +0.000 OA
ATOM     21  C   UNL     1       4.974   6.427  16.496  0.00  0.00    +0.000 A 
ENDBRANCH   5  17
TORSDOF 1
ENDMDL
MODEL 6
REMARK VINA RESULT:      -7.6      3.021      4.054
REMARK  Name = 
REMARK  2 active torsions:
REMARK  status: ('A' for Active; 'I' for Inactive)
REMARK    1  A    between atoms: C_1  and  C_2
REMARK    2  A    between atoms: C_5  and  C_6
REMARK                            x       y       z     vdW  Elec       q    Type
REMARK                         _______ _______ _______ _____ _____    ______ ____
ROOT
ATOM      1  C   UNL     1       2.557   6.128  18.890  0.00  0.00    +0.000 C 
ATOM      2  C   UNL     1       3.593   5.194  19.500  0.00  0.00    +0.000 C 
ATOM      3  N   UNL     1       4.917   5.452  18.984  0.00  0.00    +0.000 N 
ATOM      4  C   UNL     1       5.243   5.073  17.670  0.00  0.00    +0.000 A 
ATOM      5  C   UNL     1       6.347   5.663  16.990  0.00  0.00    +0.000 A 
ATOM      6  C   UNL     1       6.665   5.229  15.686  0.00  0.00    +0.000 A 
ATOM      7  C   UNL     1       5.936   4.221  15.060  0.00  0.00    +0.000 A 
ATOM      8 CL   UNL     1       6.340   3.737  13.461  0.00  0.00    +0.000 Cl
ATOM      9  C   UNL     1       4.888   3.605  15.722  0.00  0.00    +0.000 A 
ATOM     10  C   UNL     1       4.572   4.027  17.018  0.00  0.00    +0.000 A 
ATOM     11  S   UNL     1       3.241   3.203  17.817  0.00  0.00    +0.000 S 
ATOM     12  O   UNL     1       3.582   1.800  17.904  0.00  0.00    +0.000 OA
ATOM     13  O   UNL     1       2.015   3.654  17.195  0.00  0.00    +0.000 OA
ATOM     14  N   UNL     1       3.306   3.792  19.372  0.00  0.00    +0.000 NA
ATOM     15  H   UNL     1       5.179   6.420  19.164  0.00  0.00    +0.000 HD
ATOM     16  H   UNL     1       3.896   3.197  19.949  0.00  0.00    +0.000 HD
ENDROOT
BRANCH   5  17
ATOM     17  C   UNL     1       7.153   6.740  17.581  0.00  0.00    +0.000 A 
ATOM     18  C   UNL     1       7.262   8.124  17.255  0.00  0.00    +0.000 A 
ATOM     19  C   UNL     1       8.203   8.661  18.101  0.00  0.00    +0.000 A 
ATOM     20  O   UNL     1       8.660   7.715  18.956  0.00  0.00    +0.000 OA
ATOM     21  C   UNL     1       8.019   6.560  18.644  0.00  0.00    +0.000 A 
ENDBRANCH   5  17
TORSDOF 1
ENDMDL
MODEL 7
REMARK VINA RESULT:      -7.4      2.500      5.278
REMARK  Name = 
REMARK  2 active torsions:
REMARK  status: ('A' for Active; 'I' for Inactive)
REMARK    1  A    between atoms: C_1  and  C_2
REMARK    2  A    between atoms: C_5  and  C_6
REMARK                            x       y       z     vdW  Elec       q    Type
REMARK                         _______ _______ _______ _____ _____    ______ ____
ROOT
ATOM      1  C   UNL     1       5.068   3.635  16.076  0.00  0.00    +0.000 C 
ATOM      2  C   UNL     1       5.711   4.116  17.370  0.00  0.00    +0.000 C 
ATOM      3  N   UNL     1       4.724   4.433  18.375  0.00  0.00    +0.000 N 
ATOM      4  C   UNL     1       3.944   5.597  18.247  0.00  0.00    +0.000 A 
ATOM      5  C   UNL     1       2.711   5.732  18.947  0.00  0.00    +0.000 A 
ATOM      6  C   UNL     1       1.976   6.930  18.822  0.00  0.00    +0.000 A 
ATOM      7  C   UNL     1       2.442   7.988  18.046  0.00  0.00    +0.000 A 
ATOM      8 CL   UNL     1       1.505   9.421  17.900  0.00  0.00    +0.000 Cl
ATOM      9  C   UNL     1       3.658   7.891  17.394  0.00  0.00    +0.000 A 
ATOM     10  C   UNL     1       4.395   6.708  17.519  0.00  0.00    +0.000 A 
ATOM     11  S   UNL     1       5.939   6.644  16.681  0.00  0.00    +0.000 S 
ATOM     12  O   UNL     1       6.766   7.710  17.201  0.00  0.00    +0.000 OA
ATOM     13  O   UNL     1       5.660   6.513  15.267  0.00  0.00    +0.000 OA
ATOM     14  N   UNL     1       6.613   5.225  17.231  0.00  0.00    +0.000 NA
ATOM     15  H   UNL     1       4.142   3.618  18.562  0.00  0.00    +0.000 HD
ATOM     16  H   UNL     1       7.177   5.402  18.059  0.00  0.00    +0.000 HD
ENDROOT
BRANCH   5  17
ATOM     17  C   UNL     1       2.150   4.655  19.773  0.00  0.00    +0.000 A 
ATOM     18  C   UNL     1       2.330   4.332  21.151  0.00  0.00    +0.000 A 
ATOM     19  C   UNL     1       1.604   3.190  21.391  0.00  0.00    +0.000 A 
ATOM     20  O   UNL     1       0.955   2.801  20.269  0.00  0.00    +0.000 OA
ATOM     21  C   UNL     1       1.280   3.690  19.297  0.00  0.00    +0.000 A 
ENDBRANCH   5  17
TORSDOF 1
ENDMDL
MODEL 8
REMARK VINA RESULT:      -7.0      3.647      5.656
REMARK  Name = 
REMARK  2 active torsions:
REMARK  status: ('A' for Active; 'I' for Inactive)
REMARK    1  A    between atoms: C_1  and  C_2
REMARK    2  A    between atoms: C_5  and  C_6
REMARK                            x       y       z     vdW  Elec       q    Type
REMARK                         _______ _______ _______ _____ _____    ______ ____
ROOT
ATOM      1  C   UNL     1       7.452   7.025  17.836  0.00  0.00    +0.000 C 
ATOM      2  C   UNL     1       6.518   7.062  16.634  0.00  0.00    +0.000 C 
ATOM      3  N   UNL     1       5.133   6.943  17.026  0.00  0.00    +0.000 N 
ATOM      4  C   UNL     1       4.634   5.703  17.466  0.00  0.00    +0.000 A 
ATOM      5  C   UNL     1       3.443   5.629  18.242  0.00  0.00    +0.000 A 
ATOM      6  C   UNL     1       2.953   4.364  18.632  0.00  0.00    +0.000 A 
ATOM      7  C   UNL     1       3.601   3.189  18.257  0.00  0.00    +0.000 A 
ATOM      8 CL   UNL     1       2.986   1.669  18.773  0.00  0.00    +0.000 Cl
ATOM      9  C   UNL     1       4.735   3.241  17.467  0.00  0.00    +0.000 A 
ATOM     10  C   UNL     1       5.221   4.492  17.071  0.00  0.00    +0.000 A 
ATOM     11  S   UNL     1       6.657   4.499  16.057  0.00  0.00    +0.000 S 
ATOM     12  O   UNL     1       6.345   3.769  14.848  0.00  0.00    +0.000 OA
ATOM     13  O   UNL     1       7.782   4.145  16.895  0.00  0.00    +0.000 OA
ATOM     14  N   UNL     1       6.799   6.096  15.609  0.00  0.00    +0.000 NA
ATOM     15  H   UNL     1       4.889   7.690  17.675  0.00  0.00    +0.000 HD
ATOM     16  H   UNL     1       6.300   6.262  14.738  0.00  0.00    +0.000 HD
ENDROOT
BRANCH   5  17
ATOM     17  C   UNL     1       2.714   6.824  18.687  0.00  0.00    +0.000 A 
ATOM     18  C   UNL     1       2.258   7.225  19.977  0.00  0.00    +0.000 A 
ATOM     19  C   UNL     1       1.588   8.414  19.813  0.00  0.00    +0.000 A 
ATOM     20  O   UNL     1       1.627   8.799  18.516  0.00  0.00    +0.000 OA
ATOM     21  C   UNL     1       2.313   7.842  17.841  0.00  0.00    +0.000 A 
ENDBRANCH   5  17
TORSDOF 1
ENDMDL
MODEL 9
REMARK VINA RESULT:      -7.0      2.351      5.119
REMARK  Name = 
REMARK  2 active torsions:
REMARK  status: ('A' for Active; 'I' for Inactive)
REMARK    1  A    between atoms: C_1  and  C_2
REMARK    2  A    between atoms: C_5  and  C_6
REMARK                            x       y       z     vdW  Elec       q    Type
REMARK                         _______ _______ _______ _____ _____    ______ ____
ROOT
ATOM      1  C   UNL     1       5.454   3.620  15.720  0.00  0.00    +0.000 C 
ATOM      2  C   UNL     1       5.859   3.853  17.169  0.00  0.00    +0.000 C 
ATOM      3  N   UNL     1       4.712   4.068  18.020  0.00  0.00    +0.000 N 
ATOM      4  C   UNL     1       4.005   5.281  17.948  0.00  0.00    +0.000 A 
ATOM      5  C   UNL     1       2.668   5.378  18.429  0.00  0.00    +0.000 A 
ATOM      6  C   UNL     1       2.004   6.622  18.374  0.00  0.00    +0.000 A 
ATOM      7  C   UNL     1       2.637   7.759  17.878  0.00  0.00    +0.000 A 
ATOM      8 CL   UNL     1       1.787   9.251  17.805  0.00  0.00    +0.000 Cl
ATOM      9  C   UNL     1       3.950   7.694  17.447  0.00  0.00    +0.000 A 
ATOM     10  C   UNL     1       4.616   6.464  17.506  0.00  0.00    +0.000 A 
ATOM     11  S   UNL     1       6.286   6.440  16.958  0.00  0.00    +0.000 S 
ATOM     12  O   UNL     1       7.033   7.361  17.785  0.00  0.00    +0.000 OA
ATOM     13  O   UNL     1       6.271   6.548  15.515  0.00  0.00    +0.000 OA
ATOM     14  N   UNL     1       6.803   4.915  17.379  0.00  0.00    +0.000 NA
ATOM     15  H   UNL     1       4.082   3.269  17.964  0.00  0.00    +0.000 HD
ATOM     16  H   UNL     1       7.209   4.927  18.311  0.00  0.00    +0.000 HD
ENDROOT
BRANCH   5  17
ATOM     17  C   UNL     1       1.931   4.220  18.953  0.00  0.00    +0.000 A 
ATOM     18  C   UNL     1       1.263   3.149  18.290  0.00  0.00    +0.000 A 
ATOM     19  C   UNL     1       0.699   2.364  19.267  0.00  0.00    +0.000 A 
ATOM     20  O   UNL     1       1.002   2.851  20.494  0.00  0.00    +0.000 OA
ATOM     21  C   UNL     1       1.751   3.966  20.301  0.00  0.00    +0.000 A 
ENDBRANCH   5  17
TORSDOF 1
ENDMDL
