MODEL 1
REMARK VINA RESULT:      -6.5      0.000      0.000
REMARK  Name = 
REMARK  2 active torsions:
REMARK  status: ('A' for Active; 'I' for Inactive)
REMARK    1  A    between atoms: C_1  and  C_2
REMARK    2  A    between atoms: C_4  and  O_5
REMARK                            x       y       z     vdW  Elec       q    Type
REMARK                         _______ _______ _______ _____ _____    ______ ____
ROOT
ATOM      1  C   UNL     1       6.088   4.007  14.518  0.00  0.00    +0.000 C 
ATOM      2  C   UNL     1       6.045   4.164  16.006  0.00  0.00    +0.000 A 
ATOM      3  C   UNL     1       7.148   4.571  16.716  0.00  0.00    +0.000 A 
ATOM      4  C   UNL     1       6.966   4.653  18.073  0.00  0.00    +0.000 A 
ATOM      5  N   UNL     1       5.823   4.358  18.700  0.00  0.00    +0.000 NA
ATOM      6  C   UNL     1       4.794   3.957  17.946  0.00  0.00    +0.000 A 
ATOM      7  N   UNL     1       3.642   3.519  18.558  0.00  0.00    +0.000 N 
ATOM      8  C   UNL     1       3.458   3.771  19.988  0.00  0.00    +0.000 C 
ATOM      9  C   UNL     1       2.479   2.718  20.538  0.00  0.00    +0.000 C 
ATOM     10  O   UNL     1       1.231   2.726  19.818  0.00  0.00    +0.000 OA
ATOM     11  C   UNL     1       1.456   2.457  18.422  0.00  0.00    +0.000 C 
ATOM     12  C   UNL     1       2.400   3.492  17.787  0.00  0.00    +0.000 C 
ATOM     13  N   UNL     1       4.875   3.867  16.607  0.00  0.00    +0.000 NA
ENDROOT
BRANCH   4  14
ATOM     14  O   UNL     1       7.982   5.040  18.899  0.00  0.00    +0.000 OA
ATOM     15  H   UNL     1       8.558   5.647  18.411  0.00  0.00    +0.000 HD
ENDBRANCH   4  14
TORSDOF 1
ENDMDL
MODEL 2
REMARK VINA RESULT:      -6.5      1.202      1.311
REMARK  Name = 
REMARK  2 active torsions:
REMARK  status: ('A' for Active; 'I' for Inactive)
REMARK    1  A    between atoms: C_1  and  C_2
REMARK    2  A    between atoms: C_4  and  O_5
REMARK                            x       y       z     vdW  Elec       q    Type
REMARK                         _______ _______ _______ _____ _____    ______ ____
ROOT
ATOM      1  C   UNL     1       7.048   4.961  15.610  0.00  0.00    +0.000 C 
ATOM      2  C   UNL     1       6.660   5.031  17.054  0.00  0.00    +0.000 A 
ATOM      3  C   UNL     1       7.590   5.275  18.035  0.00  0.00    +0.000 A 
ATOM      4  C   UNL     1       7.092   5.293  19.313  0.00  0.00    +0.000 A 
ATOM      5  N   UNL     1       5.810   5.082  19.627  0.00  0.00    +0.000 NA
ATOM      6  C   UNL     1       4.963   4.839  18.620  0.00  0.00    +0.000 A 
ATOM      7  N   UNL     1       3.663   4.488  18.905  0.00  0.00    +0.000 N 
ATOM      8  C   UNL     1       3.161   4.670  20.267  0.00  0.00    +0.000 C 
ATOM      9  C   UNL     1       1.989   3.695  20.481  0.00  0.00    +0.000 C 
ATOM     10  O   UNL     1       0.959   3.878  19.492  0.00  0.00    +0.000 OA
ATOM     11  C   UNL     1       1.491   3.673  18.170  0.00  0.00    +0.000 C 
ATOM     12  C   UNL     1       2.647   4.639  17.864  0.00  0.00    +0.000 C 
ATOM     13  N   UNL     1       5.358   4.823  17.335  0.00  0.00    +0.000 NA
ENDROOT
BRANCH   4  14
ATOM     14  O   UNL     1       7.908   5.519  20.384  0.00  0.00    +0.000 OA
ATOM     15  H   UNL     1       8.664   6.046  20.086  0.00  0.00    +0.000 HD
ENDBRANCH   4  14
TORSDOF 1
ENDMDL
MODEL 3
REMARK VINA RESULT:      -6.4      2.132      4.944
REMARK  Name = 
REMARK  2 active torsions:
REMARK  status: ('A' for Active; 'I' for Inactive)
REMARK    1  A    between atoms: C_1  and  C_2
REMARK    2  A    between atoms: C_4  and  O_5
REMARK                            x       y       z     vdW  Elec       q    Type
REMARK                         _______ _______ _______ _____ _____    ______ ____
ROOT
ATOM      1  C   UNL     1       0.961   3.790  20.131  0.00  0.00    +0.000 C 
ATOM      2  C   UNL     1       2.422   3.502  19.979  0.00  0.00    +0.000 A 
ATOM      3  C   UNL     1       3.052   2.561  20.757  0.00  0.00    +0.000 A 
ATOM      4  C   UNL     1       4.395   2.417  20.519  0.00  0.00    +0.000 A 
ATOM      5  N   UNL     1       5.082   3.127  19.618  0.00  0.00    +0.000 NA
ATOM      6  C   UNL     1       4.405   4.034  18.905  0.00  0.00    +0.000 A 
ATOM      7  N   UNL     1       5.094   4.875  18.061  0.00  0.00    +0.000 N 
ATOM      8  C   UNL     1       6.490   4.575  17.742  0.00  0.00    +0.000 C 
ATOM      9  C   UNL     1       7.182   5.888  17.334  0.00  0.00    +0.000 C 
ATOM     10  O   UNL     1       6.499   6.529  16.240  0.00  0.00    +0.000 OA
ATOM     11  C   UNL     1       5.137   6.823  16.602  0.00  0.00    +0.000 C 
ATOM     12  C   UNL     1       4.364   5.551  16.989  0.00  0.00    +0.000 C 
ATOM     13  N   UNL     1       3.083   4.228  19.056  0.00  0.00    +0.000 NA
ENDROOT
BRANCH   4  14
ATOM     14  O   UNL     1       5.144   1.521  21.225  0.00  0.00    +0.000 OA
ATOM     15  H   UNL     1       4.630   1.231  21.993  0.00  0.00    +0.000 HD
ENDBRANCH   4  14
TORSDOF 1
ENDMDL
MODEL 4
REMARK VINA RESULT:      -6.4      1.851      5.464
REMARK  Name = 
REMARK  2 active torsions:
REMARK  status: ('A' for Active; 'I' for Inactive)
REMARK    1  A    between atoms: C_1  and  C_2
REMARK    2  A    between atoms: C_4  and  O_5
REMARK                            x       y       z     vdW  Elec       q    Type
REMARK                         _______ _______ _______ _____ _____    ______ ____
ROOT
ATOM      1  C   UNL     1       1.756   5.675  20.547  0.00  0.00    +0.000 C 
ATOM      2  C   UNL     1       2.295   4.856  19.417  0.00  0.00    +0.000 A 
ATOM      3  C   UNL     1       1.731   3.652  19.070  0.00  0.00    +0.000 A 
ATOM      4  C   UNL     1       2.341   3.006  18.025  0.00  0.00    +0.000 A 
ATOM      5  N   UNL     1       3.414   3.468  17.375  0.00  0.00    +0.000 NA
ATOM      6  C   UNL     1       3.917   4.641  17.776  0.00  0.00    +0.000 A 
ATOM      7  N   UNL     1       5.094   5.090  17.223  0.00  0.00    +0.000 N 
ATOM      8  C   UNL     1       5.611   4.435  16.021  0.00  0.00    +0.000 C 
ATOM      9  C   UNL     1       7.132   4.667  15.964  0.00  0.00    +0.000 C 
ATOM     10  O   UNL     1       7.457   6.069  16.003  0.00  0.00    +0.000 OA
ATOM     11  C   UNL     1       6.947   6.670  17.207  0.00  0.00    +0.000 C 
ATOM     12  C   UNL     1       5.421   6.513  17.320  0.00  0.00    +0.000 C 
ATOM     13  N   UNL     1       3.371   5.354  18.776  0.00  0.00    +0.000 NA
ENDROOT
BRANCH   4  14
ATOM     14  O   UNL     1       1.885   1.798  17.581  0.00  0.00    +0.000 OA
ATOM     15  H   UNL     1       2.360   1.099  18.054  0.00  0.00    +0.000 HD
ENDBRANCH   4  14
TORSDOF 1
ENDMDL
MODEL 5
REMARK VINA RESULT:      -6.4      2.623      4.115
REMARK  Name = 
REMARK  2 active torsions:
REMARK  status: ('A' for Active; 'I' for Inactive)
REMARK    1  A    between atoms: C_1  and  C_2
REMARK    2  A    between atoms: C_4  and  O_5
REMARK                            x       y       z     vdW  Elec       q    Type
REMARK                         _______ _______ _______ _____ _____    ______ ____
ROOT
ATOM      1  C   UNL     1       5.480   2.847  11.933  0.00  0.00    +0.000 C 
ATOM      2  C   UNL     1       6.222   3.787  12.831  0.00  0.00    +0.000 A 
ATOM      3  C   UNL     1       7.317   4.488  12.388  0.00  0.00    +0.000 A 
ATOM      4  C   UNL     1       7.905   5.298  13.326  0.00  0.00    +0.000 A 
ATOM      5  N   UNL     1       7.485   5.417  14.589  0.00  0.00    +0.000 NA
ATOM      6  C   UNL     1       6.420   4.695  14.953  0.00  0.00    +0.000 A 
ATOM      7  N   UNL     1       6.034   4.687  16.274  0.00  0.00    +0.000 N 
ATOM      8  C   UNL     1       6.603   5.679  17.187  0.00  0.00    +0.000 C 
ATOM      9  C   UNL     1       6.521   5.116  18.618  0.00  0.00    +0.000 C 
ATOM     10  O   UNL     1       5.171   4.762  18.972  0.00  0.00    +0.000 OA
ATOM     11  C   UNL     1       4.657   3.773  18.061  0.00  0.00    +0.000 C 
ATOM     12  C   UNL     1       4.671   4.275  16.608  0.00  0.00    +0.000 C 
ATOM     13  N   UNL     1       5.768   3.891  14.095  0.00  0.00    +0.000 NA
ENDROOT
BRANCH   4  14
ATOM     14  O   UNL     1       9.005   6.047  13.020  0.00  0.00    +0.000 OA
ATOM     15  H   UNL     1       9.698   5.850  13.667  0.00  0.00    +0.000 HD
ENDBRANCH   4  14
TORSDOF 1
ENDMDL
MODEL 6
REMARK VINA RESULT:      -6.3      1.410      2.619
REMARK  Name = 
REMARK  2 active torsions:
REMARK  status: ('A' for Active; 'I' for Inactive)
REMARK    1  A    between atoms: C_1  and  C_2
REMARK    2  A    between atoms: C_4  and  O_5
REMARK                            x       y       z     vdW  Elec       q    Type
REMARK                         _______ _______ _______ _____ _____    ______ ____
ROOT
ATOM      1  C   UNL     1       7.850   5.673  19.025  0.00  0.00    +0.000 C 
ATOM      2  C   UNL     1       6.888   4.949  18.137  0.00  0.00    +0.000 A 
ATOM      3  C   UNL     1       7.054   4.918  16.774  0.00  0.00    +0.000 A 
ATOM      4  C   UNL     1       6.085   4.231  16.087  0.00  0.00    +0.000 A 
ATOM      5  N   UNL     1       5.035   3.634  16.659  0.00  0.00    +0.000 NA
ATOM      6  C   UNL     1       4.931   3.716  17.990  0.00  0.00    +0.000 A 
ATOM      7  N   UNL     1       3.802   3.229  18.607  0.00  0.00    +0.000 N 
ATOM      8  C   UNL     1       2.884   2.383  17.844  0.00  0.00    +0.000 C 
ATOM      9  C   UNL     1       1.491   2.481  18.491  0.00  0.00    +0.000 C 
ATOM     10  O   UNL     1       1.527   2.125  19.886  0.00  0.00    +0.000 OA
ATOM     11  C   UNL     1       2.427   2.991  20.602  0.00  0.00    +0.000 C 
ATOM     12  C   UNL     1       3.855   2.922  20.036  0.00  0.00    +0.000 C 
ATOM     13  N   UNL     1       5.845   4.350  18.746  0.00  0.00    +0.000 NA
ENDROOT
BRANCH   4  14
ATOM     14  O   UNL     1       6.126   4.126  14.727  0.00  0.00    +0.000 OA
ATOM     15  H   UNL     1       5.883   3.221  14.482  0.00  0.00    +0.000 HD
ENDBRANCH   4  14
TORSDOF 1
ENDMDL
MODEL 7
REMARK VINA RESULT:      -6.3      2.034      2.270
REMARK  Name = 
REMARK  2 active torsions:
REMARK  status: ('A' for Active; 'I' for Inactive)
REMARK    1  A    between atoms: C_1  and  C_2
REMARK    2  A    between atoms: C_4  and  O_5
REMARK                            x       y       z     vdW  Elec       q    Type
REMARK                         _______ _______ _______ _____ _____    ______ ____
ROOT
ATOM      1  C   UNL     1       7.383   7.503  16.706  0.00  0.00    +0.000 C 
ATOM      2  C   UNL     1       7.084   6.560  17.829  0.00  0.00    +0.000 A 
ATOM      3  C   UNL     1       7.940   6.420  18.895  0.00  0.00    +0.000 A 
ATOM      4  C   UNL     1       7.544   5.508  19.840  0.00  0.00    +0.000 A 
ATOM      5  N   UNL     1       6.426   4.779  19.763  0.00  0.00    +0.000 NA
ATOM      6  C   UNL     1       5.647   4.960  18.691  0.00  0.00    +0.000 A 
ATOM      7  N   UNL     1       4.557   4.140  18.507  0.00  0.00    +0.000 N 
ATOM      8  C   UNL     1       4.107   3.296  19.614  0.00  0.00    +0.000 C 
ATOM      9  C   UNL     1       3.340   2.099  19.024  0.00  0.00    +0.000 C 
ATOM     10  O   UNL     1       2.249   2.528  18.188  0.00  0.00    +0.000 OA
ATOM     11  C   UNL     1       2.736   3.339  17.104  0.00  0.00    +0.000 C 
ATOM     12  C   UNL     1       3.485   4.581  17.614  0.00  0.00    +0.000 C 
ATOM     13  N   UNL     1       5.945   5.847  17.726  0.00  0.00    +0.000 NA
ENDROOT
BRANCH   4  14
ATOM     14  O   UNL     1       8.303   5.266  20.948  0.00  0.00    +0.000 OA
ATOM     15  H   UNL     1       8.570   6.117  21.327  0.00  0.00    +0.000 HD
ENDBRANCH   4  14
TORSDOF 1
ENDMDL
MODEL 8
REMARK VINA RESULT:      -6.2      1.757      2.757
REMARK  Name = 
REMARK  2 active torsions:
REMARK  status: ('A' for Active; 'I' for Inactive)
REMARK    1  A    between atoms: C_1  and  C_2
REMARK    2  A    between atoms: C_4  and  O_5
REMARK                            x       y       z     vdW  Elec       q    Type
REMARK                         _______ _______ _______ _____ _____    ______ ____
ROOT
ATOM      1  C   UNL     1       7.990   5.778  19.311  0.00  0.00    +0.000 C 
ATOM      2  C   UNL     1       6.831   5.577  18.386  0.00  0.00    +0.000 A 
ATOM      3  C   UNL     1       6.744   6.246  17.189  0.00  0.00    +0.000 A 
ATOM      4  C   UNL     1       5.618   5.975  16.454  0.00  0.00    +0.000 A 
ATOM      5  N   UNL     1       4.648   5.141  16.840  0.00  0.00    +0.000 NA
ATOM      6  C   UNL     1       4.794   4.533  18.023  0.00  0.00    +0.000 A 
ATOM      7  N   UNL     1       3.762   3.769  18.517  0.00  0.00    +0.000 N 
ATOM      8  C   UNL     1       2.660   3.401  17.628  0.00  0.00    +0.000 C 
ATOM      9  C   UNL     1       1.419   3.117  18.493  0.00  0.00    +0.000 C 
ATOM     10  O   UNL     1       1.682   2.104  19.482  0.00  0.00    +0.000 OA
ATOM     11  C   UNL     1       2.759   2.513  20.345  0.00  0.00    +0.000 C 
ATOM     12  C   UNL     1       4.051   2.781  19.557  0.00  0.00    +0.000 C 
ATOM     13  N   UNL     1       5.874   4.722  18.800  0.00  0.00    +0.000 NA
ENDROOT
BRANCH   4  14
ATOM     14  O   UNL     1       5.403   6.576  15.247  0.00  0.00    +0.000 OA
ATOM     15  H   UNL     1       5.667   7.505  15.317  0.00  0.00    +0.000 HD
ENDBRANCH   4  14
TORSDOF 1
ENDMDL
MODEL 9
REMARK VINA RESULT:      -6.1      1.872      2.694
REMARK  Name = 
REMARK  2 active torsions:
REMARK  status: ('A' for Active; 'I' for Inactive)
REMARK    1  A    between atoms: C_1  and  C_2
REMARK    2  A    between atoms: C_4  and  O_5
REMARK                            x       y       z     vdW  Elec       q    Type
REMARK                         _______ _______ _______ _____ _____    ______ ____
ROOT
ATOM      1  C   UNL     1       7.461   7.247  17.463  0.00  0.00    +0.000 C 
ATOM      2  C   UNL     1       6.643   6.062  17.055  0.00  0.00    +0.000 A 
ATOM      3  C   UNL     1       6.950   5.331  15.933  0.00  0.00    +0.000 A 
ATOM      4  C   UNL     1       6.102   4.284  15.674  0.00  0.00    +0.000 A 
ATOM      5  N   UNL     1       5.040   3.970  16.423  0.00  0.00    +0.000 NA
ATOM      6  C   UNL     1       4.796   4.734  17.493  0.00  0.00    +0.000 A 
ATOM      7  N   UNL     1       3.643   4.529  18.216  0.00  0.00    +0.000 N 
ATOM      8  C   UNL     1       2.864   3.313  17.981  0.00  0.00    +0.000 C 
ATOM      9  C   UNL     1       1.408   3.586  18.402  0.00  0.00    +0.000 C 
ATOM     10  O   UNL     1       1.326   4.031  19.769  0.00  0.00    +0.000 OA
ATOM     11  C   UNL     1       2.090   5.237  19.951  0.00  0.00    +0.000 C 
ATOM     12  C   UNL     1       3.569   5.035  19.586  0.00  0.00    +0.000 C 
ATOM     13  N   UNL     1       5.585   5.767  17.836  0.00  0.00    +0.000 NA
ENDROOT
BRANCH   4  14
ATOM     14  O   UNL     1       6.288   3.478  14.588  0.00  0.00    +0.000 OA
ATOM     15  H   UNL     1       7.153   3.051  14.669  0.00  0.00    +0.000 HD
ENDBRANCH   4  14
TORSDOF 1
ENDMDL
