MODEL 1
REMARK VINA RESULT:      -6.8      0.000      0.000
REMARK  Name = 
REMARK  8 active torsions:
REMARK  status: ('A' for Active; 'I' for Inactive)
REMARK    1  A    between atoms: C_1  and  C_2
REMARK    2  A    between atoms: C_2  and  C_3
REMARK    3  A    between atoms: C_2  and  N_12
REMARK    4  A    between atoms: N_5  and  C_6
REMARK    5  A    between atoms: C_6  and  C_7
REMARK    6  A    between atoms: N_12  and  C_13
REMARK    7  A    between atoms: N_12  and  C_14
REMARK    8  A    between atoms: C_14  and  C_15
REMARK                            x       y       z     vdW  Elec       q    Type
REMARK                         _______ _______ _______ _____ _____    ______ ____
ROOT
ATOM      1  C   UNL     1       2.535   2.531  21.347  0.00  0.00    +0.000 C 
ATOM      2  C   UNL     1       3.042   3.840  20.721  0.00  0.00    +0.000 C 
ENDROOT
BRANCH   2   3
ATOM      3  C   UNL     1       4.156   3.499  19.697  0.00  0.00    +0.000 C 
ATOM      4  O   UNL     1       5.040   2.672  19.925  0.00  0.00    +0.000 OA
ATOM      5  N   UNL     1       4.086   4.178  18.499  0.00  0.00    +0.000 N 
ATOM      6  H   UNL     1       3.445   4.955  18.414  0.00  0.00    +0.000 HD
BRANCH   5   7
ATOM      7  C   UNL     1       5.148   4.039  17.531  0.00  0.00    +0.000 C 
BRANCH   7   8
ATOM      8  C   UNL     1       6.100   5.181  17.672  0.00  0.00    +0.000 A 
ATOM      9  C   UNL     1       7.180   5.287  18.529  0.00  0.00    +0.000 A 
ATOM     10  C   UNL     1       7.836   6.547  18.423  0.00  0.00    +0.000 A 
ATOM     11  C   UNL     1       7.244   7.358  17.482  0.00  0.00    +0.000 A 
ATOM     12  S   UNL     1       5.909   6.598  16.728  0.00  0.00    +0.000 S 
ENDBRANCH   7   8
ENDBRANCH   5   7
ENDBRANCH   2   3
BRANCH   2  13
ATOM     13  N   UNL     1       1.998   4.707  20.088  0.00  0.00    +0.000 NA
ATOM     14  C   UNL     1       0.708   4.010  19.967  0.00  0.00    +0.000 C 
BRANCH  13  15
ATOM     15  C   UNL     1       1.862   5.995  20.817  0.00  0.00    +0.000 C 
BRANCH  15  16
ATOM     16  C   UNL     1       1.934   7.221  19.919  0.00  0.00    +0.000 A 
ATOM     17  C   UNL     1       2.579   7.097  18.673  0.00  0.00    +0.000 A 
ATOM     18  C   UNL     1       2.550   8.135  17.743  0.00  0.00    +0.000 A 
ATOM     19  C   UNL     1       1.875   9.316  18.040  0.00  0.00    +0.000 A 
ATOM     20  C   UNL     1       1.262   9.478  19.285  0.00  0.00    +0.000 A 
ATOM     21 CL   UNL     1       0.429  10.970  19.564  0.00  0.00    +0.000 Cl
ATOM     22  C   UNL     1       1.307   8.446  20.239  0.00  0.00    +0.000 A 
ATOM     23 CL   UNL     1       0.583   8.686  21.801  0.00  0.00    +0.000 Cl
ENDBRANCH  15  16
ENDBRANCH  13  15
ENDBRANCH   2  13
TORSDOF 6
ENDMDL
MODEL 2
REMARK VINA RESULT:      -6.6      2.071      4.627
REMARK  Name = 
REMARK  8 active torsions:
REMARK  status: ('A' for Active; 'I' for Inactive)
REMARK    1  A    between atoms: C_1  and  C_2
REMARK    2  A    between atoms: C_2  and  C_3
REMARK    3  A    between atoms: C_2  and  N_12
REMARK    4  A    between atoms: N_5  and  C_6
REMARK    5  A    between atoms: C_6  and  C_7
REMARK    6  A    between atoms: N_12  and  C_13
REMARK    7  A    between atoms: N_12  and  C_14
REMARK    8  A    between atoms: C_14  and  C_15
REMARK                            x       y       z     vdW  Elec       q    Type
REMARK                         _______ _______ _______ _____ _____    ______ ____
ROOT
ATOM      1  C   UNL     1       6.156   4.975  15.792  0.00  0.00    +0.000 C 
ATOM      2  C   UNL     1       4.932   5.239  16.684  0.00  0.00    +0.000 C 
ENDROOT
BRANCH   2   3
ATOM      3  C   UNL     1       4.730   4.018  17.619  0.00  0.00    +0.000 C 
ATOM      4  O   UNL     1       5.534   3.713  18.502  0.00  0.00    +0.000 OA
ATOM      5  N   UNL     1       3.576   3.294  17.403  0.00  0.00    +0.000 N 
ATOM      6  H   UNL     1       3.029   3.481  16.574  0.00  0.00    +0.000 HD
BRANCH   5   7
ATOM      7  C   UNL     1       3.358   2.061  18.122  0.00  0.00    +0.000 C 
BRANCH   7   8
ATOM      8  C   UNL     1       2.585   2.344  19.369  0.00  0.00    +0.000 A 
ATOM      9  C   UNL     1       1.237   2.627  19.487  0.00  0.00    +0.000 A 
ATOM     10  C   UNL     1       0.854   2.895  20.832  0.00  0.00    +0.000 A 
ATOM     11  C   UNL     1       1.918   2.798  21.699  0.00  0.00    +0.000 A 
ATOM     12  S   UNL     1       3.367   2.380  20.892  0.00  0.00    +0.000 S 
ENDBRANCH   7   8
ENDBRANCH   5   7
ENDBRANCH   2   3
BRANCH   2  13
ATOM     13  N   UNL     1       4.968   6.506  17.481  0.00  0.00    +0.000 NA
ATOM     14  C   UNL     1       6.190   7.282  17.221  0.00  0.00    +0.000 C 
BRANCH  13  15
ATOM     15  C   UNL     1       3.742   7.315  17.250  0.00  0.00    +0.000 C 
BRANCH  15  16
ATOM     16  C   UNL     1       2.809   7.374  18.450  0.00  0.00    +0.000 A 
ATOM     17  C   UNL     1       2.761   6.261  19.312  0.00  0.00    +0.000 A 
ATOM     18  C   UNL     1       2.042   6.308  20.505  0.00  0.00    +0.000 A 
ATOM     19  C   UNL     1       1.360   7.468  20.861  0.00  0.00    +0.000 A 
ATOM     20  C   UNL     1       1.360   8.571  20.003  0.00  0.00    +0.000 A 
ATOM     21 CL   UNL     1       0.501   9.979  20.532  0.00  0.00    +0.000 Cl
ATOM     22  C   UNL     1       2.061   8.524  18.785  0.00  0.00    +0.000 A 
ATOM     23 CL   UNL     1       2.006   9.887  17.709  0.00  0.00    +0.000 Cl
ENDBRANCH  15  16
ENDBRANCH  13  15
ENDBRANCH   2  13
TORSDOF 6
ENDMDL
MODEL 3
REMARK VINA RESULT:      -6.5      1.209      1.545
REMARK  Name = 
REMARK  8 active torsions:
REMARK  status: ('A' for Active; 'I' for Inactive)
REMARK    1  A    between atoms: C_1  and  C_2
REMARK    2  A    between atoms: C_2  and  C_3
REMARK    3  A    between atoms: C_2  and  N_12
REMARK    4  A    between atoms: N_5  and  C_6
REMARK    5  A    between atoms: C_6  and  C_7
REMARK    6  A    between atoms: N_12  and  C_13
REMARK    7  A    between atoms: N_12  and  C_14
REMARK    8  A    between atoms: C_14  and  C_15
REMARK                            x       y       z     vdW  Elec       q    Type
REMARK                         _______ _______ _______ _____ _____    ______ ____
ROOT
ATOM      1  C   UNL     1       2.717   2.844  21.455  0.00  0.00    +0.000 C 
ATOM      2  C   UNL     1       3.134   4.123  20.712  0.00  0.00    +0.000 C 
ENDROOT
BRANCH   2   3
ATOM      3  C   UNL     1       4.202   3.751  19.649  0.00  0.00    +0.000 C 
ATOM      4  O   UNL     1       4.237   2.650  19.097  0.00  0.00    +0.000 OA
ATOM      5  N   UNL     1       5.111   4.744  19.353  0.00  0.00    +0.000 N 
ATOM      6  H   UNL     1       5.144   5.568  19.938  0.00  0.00    +0.000 HD
BRANCH   5   7
ATOM      7  C   UNL     1       6.228   4.459  18.483  0.00  0.00    +0.000 C 
BRANCH   7   8
ATOM      8  C   UNL     1       5.944   4.999  17.119  0.00  0.00    +0.000 A 
ATOM      9  C   UNL     1       5.272   6.161  16.788  0.00  0.00    +0.000 A 
ATOM     10  C   UNL     1       5.145   6.333  15.380  0.00  0.00    +0.000 A 
ATOM     11  C   UNL     1       5.732   5.303  14.681  0.00  0.00    +0.000 A 
ATOM     12  S   UNL     1       6.437   4.142  15.721  0.00  0.00    +0.000 S 
ENDBRANCH   7   8
ENDBRANCH   5   7
ENDBRANCH   2   3
BRANCH   2  13
ATOM     13  N   UNL     1       2.022   4.904  20.083  0.00  0.00    +0.000 NA
ATOM     14  C   UNL     1       0.792   4.105  19.962  0.00  0.00    +0.000 C 
BRANCH  13  15
ATOM     15  C   UNL     1       1.783   6.175  20.817  0.00  0.00    +0.000 C 
BRANCH  15  16
ATOM     16  C   UNL     1       1.838   7.413  19.935  0.00  0.00    +0.000 A 
ATOM     17  C   UNL     1       2.486   7.315  18.688  0.00  0.00    +0.000 A 
ATOM     18  C   UNL     1       2.444   8.365  17.773  0.00  0.00    +0.000 A 
ATOM     19  C   UNL     1       1.751   9.532  18.084  0.00  0.00    +0.000 A 
ATOM     20  C   UNL     1       1.134   9.668  19.330  0.00  0.00    +0.000 A 
ATOM     21 CL   UNL     1       0.278  11.144  19.628  0.00  0.00    +0.000 Cl
ATOM     22  C   UNL     1       1.193   8.624  20.271  0.00  0.00    +0.000 A 
ATOM     23 CL   UNL     1       0.464   8.833  21.834  0.00  0.00    +0.000 Cl
ENDBRANCH  15  16
ENDBRANCH  13  15
ENDBRANCH   2  13
TORSDOF 6
ENDMDL
MODEL 4
REMARK VINA RESULT:      -6.4      1.052      1.398
REMARK  Name = 
REMARK  8 active torsions:
REMARK  status: ('A' for Active; 'I' for Inactive)
REMARK    1  A    between atoms: C_1  and  C_2
REMARK    2  A    between atoms: C_2  and  C_3
REMARK    3  A    between atoms: C_2  and  N_12
REMARK    4  A    between atoms: N_5  and  C_6
REMARK    5  A    between atoms: C_6  and  C_7
REMARK    6  A    between atoms: N_12  and  C_13
REMARK    7  A    between atoms: N_12  and  C_14
REMARK    8  A    between atoms: C_14  and  C_15
REMARK                            x       y       z     vdW  Elec       q    Type
REMARK                         _______ _______ _______ _____ _____    ______ ____
ROOT
ATOM      1  C   UNL     1       1.372   4.413  17.519  0.00  0.00    +0.000 C 
ATOM      2  C   UNL     1       2.055   4.009  18.835  0.00  0.00    +0.000 C 
ENDROOT
BRANCH   2   3
ATOM      3  C   UNL     1       3.526   3.622  18.529  0.00  0.00    +0.000 C 
ATOM      4  O   UNL     1       4.252   3.059  19.351  0.00  0.00    +0.000 OA
ATOM      5  N   UNL     1       3.970   3.941  17.264  0.00  0.00    +0.000 N 
ATOM      6  H   UNL     1       3.400   4.538  16.681  0.00  0.00    +0.000 HD
BRANCH   5   7
ATOM      7  C   UNL     1       5.360   3.750  16.921  0.00  0.00    +0.000 C 
BRANCH   7   8
ATOM      8  C   UNL     1       6.129   4.984  17.263  0.00  0.00    +0.000 A 
ATOM      9  C   UNL     1       7.155   5.119  18.179  0.00  0.00    +0.000 A 
ATOM     10  C   UNL     1       7.622   6.460  18.279  0.00  0.00    +0.000 A 
ATOM     11  C   UNL     1       6.945   7.305  17.429  0.00  0.00    +0.000 A 
ATOM     12  S   UNL     1       5.759   6.479  16.514  0.00  0.00    +0.000 S 
ENDBRANCH   7   8
ENDBRANCH   5   7
ENDBRANCH   2   3
BRANCH   2  13
ATOM     13  N   UNL     1       2.001   5.023  19.936  0.00  0.00    +0.000 NA
ATOM     14  C   UNL     1       2.125   4.399  21.262  0.00  0.00    +0.000 C 
BRANCH  13  15
ATOM     15  C   UNL     1       3.018   6.087  19.730  0.00  0.00    +0.000 C 
BRANCH  15  16
ATOM     16  C   UNL     1       2.435   7.416  19.274  0.00  0.00    +0.000 A 
ATOM     17  C   UNL     1       2.680   7.832  17.950  0.00  0.00    +0.000 A 
ATOM     18  C   UNL     1       2.054   8.962  17.426  0.00  0.00    +0.000 A 
ATOM     19  C   UNL     1       1.170   9.695  18.212  0.00  0.00    +0.000 A 
ATOM     20  C   UNL     1       0.942   9.326  19.540  0.00  0.00    +0.000 A 
ATOM     21 CL   UNL     1      -0.186  10.282  20.440  0.00  0.00    +0.000 Cl
ATOM     22  C   UNL     1       1.588   8.203  20.086  0.00  0.00    +0.000 A 
ATOM     23 CL   UNL     1       1.330   7.789  21.754  0.00  0.00    +0.000 Cl
ENDBRANCH  15  16
ENDBRANCH  13  15
ENDBRANCH   2  13
TORSDOF 6
ENDMDL
MODEL 5
REMARK VINA RESULT:      -6.4      3.832      5.589
REMARK  Name = 
REMARK  8 active torsions:
REMARK  status: ('A' for Active; 'I' for Inactive)
REMARK    1  A    between atoms: C_1  and  C_2
REMARK    2  A    between atoms: C_2  and  C_3
REMARK    3  A    between atoms: C_2  and  N_12
REMARK    4  A    between atoms: N_5  and  C_6
REMARK    5  A    between atoms: C_6  and  C_7
REMARK    6  A    between atoms: N_12  and  C_13
REMARK    7  A    between atoms: N_12  and  C_14
REMARK    8  A    between atoms: C_14  and  C_15
REMARK                            x       y       z     vdW  Elec       q    Type
REMARK                         _______ _______ _______ _____ _____    ______ ____
ROOT
ATOM      1  C   UNL     1       7.738   6.202  19.035  0.00  0.00    +0.000 C 
ATOM      2  C   UNL     1       6.833   6.249  17.793  0.00  0.00    +0.000 C 
ENDROOT
BRANCH   2   3
ATOM      3  C   UNL     1       7.389   5.255  16.740  0.00  0.00    +0.000 C 
ATOM      4  O   UNL     1       8.004   4.232  17.048  0.00  0.00    +0.000 OA
ATOM      5  N   UNL     1       7.141   5.587  15.425  0.00  0.00    +0.000 N 
ATOM      6  H   UNL     1       6.776   6.506  15.213  0.00  0.00    +0.000 HD
BRANCH   5   7
ATOM      7  C   UNL     1       7.731   4.807  14.363  0.00  0.00    +0.000 C 
BRANCH   7   8
ATOM      8  C   UNL     1       6.648   4.218  13.520  0.00  0.00    +0.000 A 
ATOM      9  C   UNL     1       5.314   4.052  13.843  0.00  0.00    +0.000 A 
ATOM     10  C   UNL     1       4.580   3.406  12.808  0.00  0.00    +0.000 A 
ATOM     11  C   UNL     1       5.373   3.110  11.723  0.00  0.00    +0.000 A 
ATOM     12  S   UNL     1       6.991   3.615  11.954  0.00  0.00    +0.000 S 
ENDBRANCH   7   8
ENDBRANCH   5   7
ENDBRANCH   2   3
BRANCH   2  13
ATOM     13  N   UNL     1       5.378   5.991  18.037  0.00  0.00    +0.000 NA
ATOM     14  C   UNL     1       4.566   6.261  16.840  0.00  0.00    +0.000 C 
BRANCH  13  15
ATOM     15  C   UNL     1       5.161   4.613  18.551  0.00  0.00    +0.000 C 
BRANCH  15  16
ATOM     16  C   UNL     1       3.785   4.394  19.161  0.00  0.00    +0.000 A 
ATOM     17  C   UNL     1       3.294   5.361  20.061  0.00  0.00    +0.000 A 
ATOM     18  C   UNL     1       1.987   5.297  20.540  0.00  0.00    +0.000 A 
ATOM     19  C   UNL     1       1.144   4.269  20.128  0.00  0.00    +0.000 A 
ATOM     20  C   UNL     1       1.620   3.276  19.268  0.00  0.00    +0.000 A 
ATOM     21 CL   UNL     1       0.500   2.045  18.790  0.00  0.00    +0.000 Cl
ATOM     22  C   UNL     1       2.945   3.317  18.799  0.00  0.00    +0.000 A 
ATOM     23 CL   UNL     1       3.534   2.046  17.771  0.00  0.00    +0.000 Cl
ENDBRANCH  15  16
ENDBRANCH  13  15
ENDBRANCH   2  13
TORSDOF 6
ENDMDL
MODEL 6
REMARK VINA RESULT:      -6.3      1.575      2.298
REMARK  Name = 
REMARK  8 active torsions:
REMARK  status: ('A' for Active; 'I' for Inactive)
REMARK    1  A    between atoms: C_1  and  C_2
REMARK    2  A    between atoms: C_2  and  C_3
REMARK    3  A    between atoms: C_2  and  N_12
REMARK    4  A    between atoms: N_5  and  C_6
REMARK    5  A    between atoms: C_6  and  C_7
REMARK    6  A    between atoms: N_12  and  C_13
REMARK    7  A    between atoms: N_12  and  C_14
REMARK    8  A    between atoms: C_14  and  C_15
REMARK                            x       y       z     vdW  Elec       q    Type
REMARK                         _______ _______ _______ _____ _____    ______ ____
ROOT
ATOM      1  C   UNL     1       1.268   4.426  17.570  0.00  0.00    +0.000 C 
ATOM      2  C   UNL     1       1.996   3.911  18.823  0.00  0.00    +0.000 C 
ENDROOT
BRANCH   2   3
ATOM      3  C   UNL     1       3.469   3.603  18.446  0.00  0.00    +0.000 C 
ATOM      4  O   UNL     1       4.259   3.068  19.226  0.00  0.00    +0.000 OA
ATOM      5  N   UNL     1       3.839   3.960  17.166  0.00  0.00    +0.000 N 
ATOM      6  H   UNL     1       3.213   4.534  16.619  0.00  0.00    +0.000 HD
BRANCH   5   7
ATOM      7  C   UNL     1       5.219   3.845  16.759  0.00  0.00    +0.000 C 
BRANCH   7   8
ATOM      8  C   UNL     1       5.952   5.092  17.133  0.00  0.00    +0.000 A 
ATOM      9  C   UNL     1       5.619   6.398  16.824  0.00  0.00    +0.000 A 
ATOM     10  C   UNL     1       6.580   7.332  17.306  0.00  0.00    +0.000 A 
ATOM     11  C   UNL     1       7.609   6.712  17.976  0.00  0.00    +0.000 A 
ATOM     12  S   UNL     1       7.411   5.013  18.027  0.00  0.00    +0.000 S 
ENDBRANCH   7   8
ENDBRANCH   5   7
ENDBRANCH   2   3
BRANCH   2  13
ATOM     13  N   UNL     1       1.940   4.804  20.023  0.00  0.00    +0.000 NA
ATOM     14  C   UNL     1       2.372   4.108  21.245  0.00  0.00    +0.000 C 
BRANCH  13  15
ATOM     15  C   UNL     1       2.717   6.051  19.795  0.00  0.00    +0.000 C 
BRANCH  15  16
ATOM     16  C   UNL     1       1.914   7.324  20.012  0.00  0.00    +0.000 A 
ATOM     17  C   UNL     1       1.227   7.480  21.233  0.00  0.00    +0.000 A 
ATOM     18  C   UNL     1       0.597   8.681  21.554  0.00  0.00    +0.000 A 
ATOM     19  C   UNL     1       0.642   9.750  20.664  0.00  0.00    +0.000 A 
ATOM     20  C   UNL     1       1.282   9.607  19.431  0.00  0.00    +0.000 A 
ATOM     21 CL   UNL     1       1.307  10.992  18.392  0.00  0.00    +0.000 Cl
ATOM     22  C   UNL     1       1.899   8.391  19.086  0.00  0.00    +0.000 A 
ATOM     23 CL   UNL     1       2.645   8.217  17.526  0.00  0.00    +0.000 Cl
ENDBRANCH  15  16
ENDBRANCH  13  15
ENDBRANCH   2  13
TORSDOF 6
ENDMDL
MODEL 7
REMARK VINA RESULT:      -6.2      3.247      5.970
REMARK  Name = 
REMARK  8 active torsions:
REMARK  status: ('A' for Active; 'I' for Inactive)
REMARK    1  A    between atoms: C_1  and  C_2
REMARK    2  A    between atoms: C_2  and  C_3
REMARK    3  A    between atoms: C_2  and  N_12
REMARK    4  A    between atoms: N_5  and  C_6
REMARK    5  A    between atoms: C_6  and  C_7
REMARK    6  A    between atoms: N_12  and  C_13
REMARK    7  A    between atoms: N_12  and  C_14
REMARK    8  A    between atoms: C_14  and  C_15
REMARK                            x       y       z     vdW  Elec       q    Type
REMARK                         _______ _______ _______ _____ _____    ______ ____
ROOT
ATOM      1  C   UNL     1       6.755   5.459  18.175  0.00  0.00    +0.000 C 
ATOM      2  C   UNL     1       5.276   5.228  17.824  0.00  0.00    +0.000 C 
ENDROOT
BRANCH   2   3
ATOM      3  C   UNL     1       4.641   6.590  17.441  0.00  0.00    +0.000 C 
ATOM      4  O   UNL     1       5.196   7.398  16.694  0.00  0.00    +0.000 OA
ATOM      5  N   UNL     1       3.399   6.838  17.986  0.00  0.00    +0.000 N 
ATOM      6  H   UNL     1       3.053   6.225  18.713  0.00  0.00    +0.000 HD
BRANCH   5   7
ATOM      7  C   UNL     1       2.780   8.130  17.807  0.00  0.00    +0.000 C 
BRANCH   7   8
ATOM      8  C   UNL     1       1.926   8.439  18.993  0.00  0.00    +0.000 A 
ATOM      9  C   UNL     1       1.111   9.539  19.189  0.00  0.00    +0.000 A 
ATOM     10  C   UNL     1       0.481   9.526  20.466  0.00  0.00    +0.000 A 
ATOM     11  C   UNL     1       0.825   8.414  21.199  0.00  0.00    +0.000 A 
ATOM     12  S   UNL     1       1.898   7.390  20.346  0.00  0.00    +0.000 S 
ENDBRANCH   7   8
ENDBRANCH   5   7
ENDBRANCH   2   3
BRANCH   2  13
ATOM     13  N   UNL     1       5.010   4.210  16.760  0.00  0.00    +0.000 NA
ATOM     14  C   UNL     1       6.199   3.963  15.929  0.00  0.00    +0.000 C 
BRANCH  13  15
ATOM     15  C   UNL     1       4.478   2.952  17.348  0.00  0.00    +0.000 C 
BRANCH  15  16
ATOM     16  C   UNL     1       3.245   3.152  18.214  0.00  0.00    +0.000 A 
ATOM     17  C   UNL     1       2.075   3.649  17.605  0.00  0.00    +0.000 A 
ATOM     18  C   UNL     1       0.873   3.715  18.307  0.00  0.00    +0.000 A 
ATOM     19  C   UNL     1       0.815   3.285  19.629  0.00  0.00    +0.000 A 
ATOM     20  C   UNL     1       1.970   2.827  20.267  0.00  0.00    +0.000 A 
ATOM     21 CL   UNL     1       1.804   2.294  21.907  0.00  0.00    +0.000 Cl
ATOM     22  C   UNL     1       3.193   2.780  19.576  0.00  0.00    +0.000 A 
ATOM     23 CL   UNL     1       4.629   2.255  20.403  0.00  0.00    +0.000 Cl
ENDBRANCH  15  16
ENDBRANCH  13  15
ENDBRANCH   2  13
TORSDOF 6
ENDMDL
MODEL 8
REMARK VINA RESULT:      -6.2      1.969      4.370
REMARK  Name = 
REMARK  8 active torsions:
REMARK  status: ('A' for Active; 'I' for Inactive)
REMARK    1  A    between atoms: C_1  and  C_2
REMARK    2  A    between atoms: C_2  and  C_3
REMARK    3  A    between atoms: C_2  and  N_12
REMARK    4  A    between atoms: N_5  and  C_6
REMARK    5  A    between atoms: C_6  and  C_7
REMARK    6  A    between atoms: N_12  and  C_13
REMARK    7  A    between atoms: N_12  and  C_14
REMARK    8  A    between atoms: C_14  and  C_15
REMARK                            x       y       z     vdW  Elec       q    Type
REMARK                         _______ _______ _______ _____ _____    ______ ____
ROOT
ATOM      1  C   UNL     1       7.342   5.181  17.790  0.00  0.00    +0.000 C 
ATOM      2  C   UNL     1       5.846   4.953  17.519  0.00  0.00    +0.000 C 
ENDROOT
BRANCH   2   3
ATOM      3  C   UNL     1       5.276   4.040  18.637  0.00  0.00    +0.000 C 
ATOM      4  O   UNL     1       5.397   4.299  19.836  0.00  0.00    +0.000 OA
ATOM      5  N   UNL     1       4.610   2.915  18.199  0.00  0.00    +0.000 N 
ATOM      6  H   UNL     1       4.670   2.660  17.222  0.00  0.00    +0.000 HD
BRANCH   5   7
ATOM      7  C   UNL     1       4.161   1.929  19.153  0.00  0.00    +0.000 C 
BRANCH   7   8
ATOM      8  C   UNL     1       2.863   2.369  19.747  0.00  0.00    +0.000 A 
ATOM      9  C   UNL     1       2.525   2.449  21.085  0.00  0.00    +0.000 A 
ATOM     10  C   UNL     1       1.177   2.864  21.281  0.00  0.00    +0.000 A 
ATOM     11  C   UNL     1       0.532   3.099  20.088  0.00  0.00    +0.000 A 
ATOM     12  S   UNL     1       1.553   2.825  18.743  0.00  0.00    +0.000 S 
ENDBRANCH   7   8
ENDBRANCH   5   7
ENDBRANCH   2   3
BRANCH   2  13
ATOM     13  N   UNL     1       5.013   6.189  17.379  0.00  0.00    +0.000 NA
ATOM     14  C   UNL     1       5.087   6.747  16.020  0.00  0.00    +0.000 C 
BRANCH  13  15
ATOM     15  C   UNL     1       3.609   5.934  17.795  0.00  0.00    +0.000 C 
BRANCH  15  16
ATOM     16  C   UNL     1       2.894   7.165  18.331  0.00  0.00    +0.000 A 
ATOM     17  C   UNL     1       2.778   8.288  17.489  0.00  0.00    +0.000 A 
ATOM     18  C   UNL     1       2.009   9.389  17.863  0.00  0.00    +0.000 A 
ATOM     19  C   UNL     1       1.340   9.388  19.083  0.00  0.00    +0.000 A 
ATOM     20  C   UNL     1       1.473   8.304  19.953  0.00  0.00    +0.000 A 
ATOM     21 CL   UNL     1       0.592   8.376  21.442  0.00  0.00    +0.000 Cl
ATOM     22  C   UNL     1       2.266   7.199  19.596  0.00  0.00    +0.000 A 
ATOM     23 CL   UNL     1       2.460   5.882  20.713  0.00  0.00    +0.000 Cl
ENDBRANCH  15  16
ENDBRANCH  13  15
ENDBRANCH   2  13
TORSDOF 6
ENDMDL
MODEL 9
REMARK VINA RESULT:      -6.2      3.812      5.450
REMARK  Name = 
REMARK  8 active torsions:
REMARK  status: ('A' for Active; 'I' for Inactive)
REMARK    1  A    between atoms: C_1  and  C_2
REMARK    2  A    between atoms: C_2  and  C_3
REMARK    3  A    between atoms: C_2  and  N_12
REMARK    4  A    between atoms: N_5  and  C_6
REMARK    5  A    between atoms: C_6  and  C_7
REMARK    6  A    between atoms: N_12  and  C_13
REMARK    7  A    between atoms: N_12  and  C_14
REMARK    8  A    between atoms: C_14  and  C_15
REMARK                            x       y       z     vdW  Elec       q    Type
REMARK                         _______ _______ _______ _____ _____    ______ ____
ROOT
ATOM      1  C   UNL     1       7.720   5.727  19.309  0.00  0.00    +0.000 C 
ATOM      2  C   UNL     1       6.608   6.010  18.285  0.00  0.00    +0.000 C 
ENDROOT
BRANCH   2   3
ATOM      3  C   UNL     1       7.260   6.216  16.893  0.00  0.00    +0.000 C 
ATOM      4  O   UNL     1       7.832   7.260  16.572  0.00  0.00    +0.000 OA
ATOM      5  N   UNL     1       7.167   5.143  16.032  0.00  0.00    +0.000 N 
ATOM      6  H   UNL     1       6.558   4.373  16.274  0.00  0.00    +0.000 HD
BRANCH   5   7
ATOM      7  C   UNL     1       7.617   5.276  14.667  0.00  0.00    +0.000 C 
BRANCH   7   8
ATOM      8  C   UNL     1       6.699   4.516  13.766  0.00  0.00    +0.000 A 
ATOM      9  C   UNL     1       5.393   4.135  14.009  0.00  0.00    +0.000 A 
ATOM     10  C   UNL     1       4.840   3.375  12.939  0.00  0.00    +0.000 A 
ATOM     11  C   UNL     1       5.737   3.210  11.909  0.00  0.00    +0.000 A 
ATOM     12  S   UNL     1       7.234   3.973  12.232  0.00  0.00    +0.000 S 
ENDBRANCH   7   8
ENDBRANCH   5   7
ENDBRANCH   2   3
BRANCH   2  13
ATOM     13  N   UNL     1       5.519   4.986  18.206  0.00  0.00    +0.000 NA
ATOM     14  C   UNL     1       5.543   4.071  19.358  0.00  0.00    +0.000 C 
BRANCH  13  15
ATOM     15  C   UNL     1       4.191   5.633  18.045  0.00  0.00    +0.000 C 
BRANCH  15  16
ATOM     16  C   UNL     1       3.089   4.990  18.872  0.00  0.00    +0.000 A 
ATOM     17  C   UNL     1       2.668   5.644  20.047  0.00  0.00    +0.000 A 
ATOM     18  C   UNL     1       1.567   5.187  20.768  0.00  0.00    +0.000 A 
ATOM     19  C   UNL     1       0.862   4.070  20.328  0.00  0.00    +0.000 A 
ATOM     20  C   UNL     1       1.284   3.380  19.189  0.00  0.00    +0.000 A 
ATOM     21 CL   UNL     1       0.340   2.012  18.702  0.00  0.00    +0.000 Cl
ATOM     22  C   UNL     1       2.410   3.818  18.469  0.00  0.00    +0.000 A 
ATOM     23 CL   UNL     1       2.949   2.917  17.084  0.00  0.00    +0.000 Cl
ENDBRANCH  15  16
ENDBRANCH  13  15
ENDBRANCH   2  13
TORSDOF 6
ENDMDL
