MODEL 1
REMARK VINA RESULT:      -7.8      0.000      0.000
REMARK  Name = 
REMARK  10 active torsions:
REMARK  status: ('A' for Active; 'I' for Inactive)
REMARK    1  A    between atoms: C_1  and  O_2
REMARK    2  A    between atoms: O_2  and  C_3
REMARK    3  A    between atoms: C_8  and  O_9
REMARK    4  A    between atoms: O_9  and  C_10
REMARK    5  A    between atoms: C_17  and  C_18
REMARK    6  A    between atoms: N_20  and  C_21
REMARK    7  A    between atoms: C_23  and  C_24
REMARK    8  A    between atoms: C_23  and  C_25
REMARK    9  A    between atoms: C_27  and  C_28
REMARK   10  A    between atoms: C_27  and  C_29
REMARK                            x       y       z     vdW  Elec       q    Type
REMARK                         _______ _______ _______ _____ _____    ______ ____
ROOT
ATOM      1  C   UNL     1       6.990   4.986  15.204  0.00  0.00    +0.000 A 
ATOM      2  C   UNL     1       6.182   3.922  14.734  0.00  0.00    +0.000 A 
ATOM      3  C   UNL     1       5.381   3.170  15.593  0.00  0.00    +0.000 A 
ATOM      4  C   UNL     1       5.366   3.536  16.926  0.00  0.00    +0.000 A 
ATOM      5  C   UNL     1       6.183   4.594  17.397  0.00  0.00    +0.000 A 
ATOM      6  C   UNL     1       7.005   5.349  16.567  0.00  0.00    +0.000 A 
ATOM      7  C   UNL     1       5.579   4.950  18.696  0.00  0.00    +0.000 C 
ATOM      8  O   UNL     1       6.102   5.429  19.681  0.00  0.00    +0.000 OA
ATOM      9  N   UNL     1       4.248   4.511  18.660  0.00  0.00    +0.000 N 
ATOM     10  C   UNL     1       4.338   3.223  17.994  0.00  0.00    +0.000 C 
ATOM     11  S   UNL     1       2.658   2.845  17.441  0.00  0.00    +0.000 S 
ATOM     12  C   UNL     1       2.041   4.529  17.762  0.00  0.00    +0.000 C 
ATOM     13  C   UNL     1       3.318   5.345  17.848  0.00  0.00    +0.000 C 
ENDROOT
BRANCH  13  14
ATOM     14  C   UNL     1       3.004   6.788  18.226  0.00  0.00    +0.000 C 
ATOM     15  O   UNL     1       3.659   7.717  17.751  0.00  0.00    +0.000 OA
ATOM     16  N   UNL     1       2.034   6.962  19.175  0.00  0.00    +0.000 N 
ATOM     17  H   UNL     1       1.462   6.165  19.444  0.00  0.00    +0.000 HD
BRANCH  16  18
ATOM     18  C   UNL     1       1.683   8.288  19.653  0.00  0.00    +0.000 C 
ATOM     19  C   UNL     1       0.953   8.178  20.989  0.00  0.00    +0.000 C 
ATOM     20  C   UNL     1       0.520   9.550  21.532  0.00  0.00    +0.000 C 
ATOM     21  C   UNL     1      -0.490   9.308  22.670  0.00  0.00    +0.000 C 
ATOM     22  C   UNL     1       1.712  10.313  22.140  0.00  0.00    +0.000 C 
ATOM     23  N   UNL     1      -0.184  10.343  20.513  0.00  0.00    +0.000 NA
ATOM     24  C   UNL     1       0.347  10.396  19.145  0.00  0.00    +0.000 C 
ATOM     25  C   UNL     1      -0.817  10.876  18.254  0.00  0.00    +0.000 C 
ATOM     26  C   UNL     1       1.479  11.428  18.994  0.00  0.00    +0.000 C 
ATOM     27  C   UNL     1       0.789   9.005  18.647  0.00  0.00    +0.000 C 
ATOM     28  H   UNL     1      -0.370  11.287  20.854  0.00  0.00    +0.000 HD
ENDBRANCH  16  18
ENDBRANCH  13  14
BRANCH   1  30
ATOM     29  C   UNL     1       7.682   5.007  12.926  0.00  0.00    +0.000 C 
ATOM     30  O   UNL     1       7.598   5.674  14.179  0.00  0.00    +0.000 OA
ENDBRANCH   1  30
BRANCH   6  31
ATOM     31  O   UNL     1       7.673   6.494  16.873  0.00  0.00    +0.000 OA
ATOM     32  C   UNL     1       6.980   7.676  17.233  0.00  0.00    +0.000 C 
ENDBRANCH   6  31
TORSDOF 4
ENDMDL
MODEL 2
REMARK VINA RESULT:      -6.4      3.695      8.440
REMARK  Name = 
REMARK  10 active torsions:
REMARK  status: ('A' for Active; 'I' for Inactive)
REMARK    1  A    between atoms: C_1  and  O_2
REMARK    2  A    between atoms: O_2  and  C_3
REMARK    3  A    between atoms: C_8  and  O_9
REMARK    4  A    between atoms: O_9  and  C_10
REMARK    5  A    between atoms: C_17  and  C_18
REMARK    6  A    between atoms: N_20  and  C_21
REMARK    7  A    between atoms: C_23  and  C_24
REMARK    8  A    between atoms: C_23  and  C_25
REMARK    9  A    between atoms: C_27  and  C_28
REMARK   10  A    between atoms: C_27  and  C_29
REMARK                            x       y       z     vdW  Elec       q    Type
REMARK                         _______ _______ _______ _____ _____    ______ ____
ROOT
ATOM      1  C   UNL     1       2.024  13.967  19.985  0.00  0.00    +0.000 A 
ATOM      2  C   UNL     1       1.694  14.076  21.357  0.00  0.00    +0.000 A 
ATOM      3  C   UNL     1       0.586  13.428  21.902  0.00  0.00    +0.000 A 
ATOM      4  C   UNL     1      -0.157  12.626  21.055  0.00  0.00    +0.000 A 
ATOM      5  C   UNL     1       0.168  12.526  19.680  0.00  0.00    +0.000 A 
ATOM      6  C   UNL     1       1.255  13.175  19.105  0.00  0.00    +0.000 A 
ATOM      7  C   UNL     1      -0.533  11.302  19.243  0.00  0.00    +0.000 C 
ATOM      8  O   UNL     1      -0.964  11.014  18.146  0.00  0.00    +0.000 OA
ATOM      9  N   UNL     1      -0.746  10.525  20.389  0.00  0.00    +0.000 N 
ATOM     10  C   UNL     1      -1.117  11.504  21.395  0.00  0.00    +0.000 C 
ATOM     11  S   UNL     1      -0.891  10.674  22.987  0.00  0.00    +0.000 S 
ATOM     12  C   UNL     1       0.023   9.273  22.266  0.00  0.00    +0.000 C 
ATOM     13  C   UNL     1       0.453   9.811  20.914  0.00  0.00    +0.000 C 
ENDROOT
BRANCH  13  14
ATOM     14  C   UNL     1       1.151   8.723  20.105  0.00  0.00    +0.000 C 
ATOM     15  O   UNL     1       1.580   8.961  18.974  0.00  0.00    +0.000 OA
ATOM     16  N   UNL     1       1.181   7.480  20.672  0.00  0.00    +0.000 N 
ATOM     17  H   UNL     1       0.908   7.378  21.646  0.00  0.00    +0.000 HD
BRANCH  16  18
ATOM     18  C   UNL     1       1.774   6.351  19.975  0.00  0.00    +0.000 C 
ATOM     19  C   UNL     1       1.535   5.070  20.769  0.00  0.00    +0.000 C 
ATOM     20  C   UNL     1       2.173   3.842  20.100  0.00  0.00    +0.000 C 
ATOM     21  C   UNL     1       2.181   2.696  21.130  0.00  0.00    +0.000 C 
ATOM     22  C   UNL     1       1.338   3.363  18.897  0.00  0.00    +0.000 C 
ATOM     23  N   UNL     1       3.577   4.084  19.738  0.00  0.00    +0.000 NA
ATOM     24  C   UNL     1       3.951   5.356  19.104  0.00  0.00    +0.000 C 
ATOM     25  C   UNL     1       5.475   5.494  19.290  0.00  0.00    +0.000 C 
ATOM     26  C   UNL     1       3.684   5.357  17.588  0.00  0.00    +0.000 C 
ATOM     27  C   UNL     1       3.274   6.560  19.791  0.00  0.00    +0.000 C 
ATOM     28  H   UNL     1       3.953   3.301  19.201  0.00  0.00    +0.000 HD
ENDBRANCH  16  18
ENDBRANCH  13  14
BRANCH   1  30
ATOM     29  C   UNL     1       4.179  14.653  20.732  0.00  0.00    +0.000 C 
ATOM     30  O   UNL     1       3.220  14.577  19.683  0.00  0.00    +0.000 OA
ENDBRANCH   1  30
BRANCH   6  31
ATOM     31  O   UNL     1       1.768  13.000  17.857  0.00  0.00    +0.000 OA
ATOM     32  C   UNL     1       2.723  11.989  17.590  0.00  0.00    +0.000 C 
ENDBRANCH   6  31
TORSDOF 4
ENDMDL
MODEL 3
REMARK VINA RESULT:      -6.4      3.670      8.422
REMARK  Name = 
REMARK  10 active torsions:
REMARK  status: ('A' for Active; 'I' for Inactive)
REMARK    1  A    between atoms: C_1  and  O_2
REMARK    2  A    between atoms: O_2  and  C_3
REMARK    3  A    between atoms: C_8  and  O_9
REMARK    4  A    between atoms: O_9  and  C_10
REMARK    5  A    between atoms: C_17  and  C_18
REMARK    6  A    between atoms: N_20  and  C_21
REMARK    7  A    between atoms: C_23  and  C_24
REMARK    8  A    between atoms: C_23  and  C_25
REMARK    9  A    between atoms: C_27  and  C_28
REMARK   10  A    between atoms: C_27  and  C_29
REMARK                            x       y       z     vdW  Elec       q    Type
REMARK                         _______ _______ _______ _____ _____    ______ ____
ROOT
ATOM      1  C   UNL     1       1.784  13.795  19.935  0.00  0.00    +0.000 A 
ATOM      2  C   UNL     1       1.356  14.000  21.269  0.00  0.00    +0.000 A 
ATOM      3  C   UNL     1       0.266  13.315  21.806  0.00  0.00    +0.000 A 
ATOM      4  C   UNL     1      -0.356  12.383  20.997  0.00  0.00    +0.000 A 
ATOM      5  C   UNL     1       0.067  12.186  19.659  0.00  0.00    +0.000 A 
ATOM      6  C   UNL     1       1.138  12.867  19.091  0.00  0.00    +0.000 A 
ATOM      7  C   UNL     1      -0.508  10.875  19.299  0.00  0.00    +0.000 C 
ATOM      8  O   UNL     1      -0.843  10.455  18.211  0.00  0.00    +0.000 OA
ATOM      9  N   UNL     1      -0.738  10.189  20.500  0.00  0.00    +0.000 N 
ATOM     10  C   UNL     1      -1.248  11.221  21.384  0.00  0.00    +0.000 C 
ATOM     11  S   UNL     1      -1.066  10.559  23.058  0.00  0.00    +0.000 S 
ATOM     12  C   UNL     1      -0.003   9.178  22.529  0.00  0.00    +0.000 C 
ATOM     13  C   UNL     1       0.474   9.625  21.160  0.00  0.00    +0.000 C 
ENDROOT
BRANCH  13  14
ATOM     14  C   UNL     1       1.304   8.530  20.500  0.00  0.00    +0.000 C 
ATOM     15  O   UNL     1       1.745   8.679  19.359  0.00  0.00    +0.000 OA
ATOM     16  N   UNL     1       1.440   7.370  21.212  0.00  0.00    +0.000 N 
ATOM     17  H   UNL     1       1.145   7.353  22.184  0.00  0.00    +0.000 HD
BRANCH  16  18
ATOM     18  C   UNL     1       2.166   6.236  20.665  0.00  0.00    +0.000 C 
ATOM     19  C   UNL     1       2.823   6.631  19.345  0.00  0.00    +0.000 C 
ATOM     20  C   UNL     1       3.578   5.459  18.696  0.00  0.00    +0.000 C 
ATOM     21  C   UNL     1       3.893   5.852  17.240  0.00  0.00    +0.000 C 
ATOM     22  C   UNL     1       4.925   5.204  19.398  0.00  0.00    +0.000 C 
ATOM     23  N   UNL     1       2.749   4.246  18.629  0.00  0.00    +0.000 NA
ATOM     24  C   UNL     1       1.949   3.851  19.796  0.00  0.00    +0.000 C 
ATOM     25  C   UNL     1       0.879   2.875  19.269  0.00  0.00    +0.000 C 
ATOM     26  C   UNL     1       2.777   3.085  20.843  0.00  0.00    +0.000 C 
ATOM     27  C   UNL     1       1.226   5.058  20.430  0.00  0.00    +0.000 C 
ATOM     28  H   UNL     1       3.297   3.452  18.295  0.00  0.00    +0.000 HD
ENDBRANCH  16  18
ENDBRANCH  13  14
BRANCH   1  30
ATOM     29  C   UNL     1       3.916  14.543  20.689  0.00  0.00    +0.000 C 
ATOM     30  O   UNL     1       2.948  14.472  19.648  0.00  0.00    +0.000 OA
ENDBRANCH   1  30
BRANCH   6  31
ATOM     31  O   UNL     1       1.744  12.623  17.897  0.00  0.00    +0.000 OA
ATOM     32  C   UNL     1       2.678  11.568  17.750  0.00  0.00    +0.000 C 
ENDBRANCH   6  31
TORSDOF 4
ENDMDL
MODEL 4
REMARK VINA RESULT:      -6.3      6.842      9.192
REMARK  Name = 
REMARK  10 active torsions:
REMARK  status: ('A' for Active; 'I' for Inactive)
REMARK    1  A    between atoms: C_1  and  O_2
REMARK    2  A    between atoms: O_2  and  C_3
REMARK    3  A    between atoms: C_8  and  O_9
REMARK    4  A    between atoms: O_9  and  C_10
REMARK    5  A    between atoms: C_17  and  C_18
REMARK    6  A    between atoms: N_20  and  C_21
REMARK    7  A    between atoms: C_23  and  C_24
REMARK    8  A    between atoms: C_23  and  C_25
REMARK    9  A    between atoms: C_27  and  C_28
REMARK   10  A    between atoms: C_27  and  C_29
REMARK                            x       y       z     vdW  Elec       q    Type
REMARK                         _______ _______ _______ _____ _____    ______ ____
ROOT
ATOM      1  C   UNL     1       2.769  13.385  19.386  0.00  0.00    +0.000 A 
ATOM      2  C   UNL     1       2.597  12.632  18.198  0.00  0.00    +0.000 A 
ATOM      3  C   UNL     1       1.766  11.514  18.149  0.00  0.00    +0.000 A 
ATOM      4  C   UNL     1       1.068  11.193  19.298  0.00  0.00    +0.000 A 
ATOM      5  C   UNL     1       1.248  11.940  20.489  0.00  0.00    +0.000 A 
ATOM      6  C   UNL     1       2.085  13.048  20.573  0.00  0.00    +0.000 A 
ATOM      7  C   UNL     1       0.067  11.592  21.303  0.00  0.00    +0.000 C 
ATOM      8  O   UNL     1      -0.055  11.568  22.510  0.00  0.00    +0.000 OA
ATOM      9  N   UNL     1      -0.922  11.146  20.414  0.00  0.00    +0.000 N 
ATOM     10  C   UNL     1      -0.177  10.345  19.458  0.00  0.00    +0.000 C 
ATOM     11  S   UNL     1      -1.259  10.181  18.017  0.00  0.00    +0.000 S 
ATOM     12  C   UNL     1      -2.420  11.464  18.589  0.00  0.00    +0.000 C 
ATOM     13  C   UNL     1      -1.609  12.211  19.631  0.00  0.00    +0.000 C 
ENDROOT
BRANCH  13  14
ATOM     14  C   UNL     1      -2.466  13.273  20.311  0.00  0.00    +0.000 C 
ATOM     15  O   UNL     1      -2.282  14.470  20.080  0.00  0.00    +0.000 OA
ATOM     16  N   UNL     1      -3.363  12.818  21.237  0.00  0.00    +0.000 N 
ATOM     17  H   UNL     1      -3.538  11.818  21.300  0.00  0.00    +0.000 HD
BRANCH  16  18
ATOM     18  C   UNL     1      -4.199  13.739  21.987  0.00  0.00    +0.000 C 
ATOM     19  C   UNL     1      -3.399  14.343  23.138  0.00  0.00    +0.000 C 
ATOM     20  C   UNL     1      -4.242  15.301  23.995  0.00  0.00    +0.000 C 
ATOM     21  C   UNL     1      -3.467  15.572  25.299  0.00  0.00    +0.000 C 
ATOM     22  C   UNL     1      -4.435  16.659  23.293  0.00  0.00    +0.000 C 
ATOM     23  N   UNL     1      -5.522  14.696  24.392  0.00  0.00    +0.000 NA
ATOM     24  C   UNL     1      -6.310  13.954  23.398  0.00  0.00    +0.000 C 
ATOM     25  C   UNL     1      -7.293  13.078  24.200  0.00  0.00    +0.000 C 
ATOM     26  C   UNL     1      -7.159  14.881  22.510  0.00  0.00    +0.000 C 
ATOM     27  C   UNL     1      -5.424  13.021  22.546  0.00  0.00    +0.000 C 
ATOM     28  H   UNL     1      -6.113  15.379  24.868  0.00  0.00    +0.000 HD
ENDBRANCH  16  18
ENDBRANCH  13  14
BRANCH   1  30
ATOM     29  C   UNL     1       2.942  15.542  18.394  0.00  0.00    +0.000 C 
ATOM     30  O   UNL     1       3.527  14.515  19.185  0.00  0.00    +0.000 OA
ENDBRANCH   1  30
BRANCH   6  31
ATOM     31  O   UNL     1       2.184  13.943  21.594  0.00  0.00    +0.000 OA
ATOM     32  C   UNL     1       1.216  14.960  21.776  0.00  0.00    +0.000 C 
ENDBRANCH   6  31
TORSDOF 4
ENDMDL
MODEL 5
REMARK VINA RESULT:      -6.3      3.762      9.183
REMARK  Name = 
REMARK  10 active torsions:
REMARK  status: ('A' for Active; 'I' for Inactive)
REMARK    1  A    between atoms: C_1  and  O_2
REMARK    2  A    between atoms: O_2  and  C_3
REMARK    3  A    between atoms: C_8  and  O_9
REMARK    4  A    between atoms: O_9  and  C_10
REMARK    5  A    between atoms: C_17  and  C_18
REMARK    6  A    between atoms: N_20  and  C_21
REMARK    7  A    between atoms: C_23  and  C_24
REMARK    8  A    between atoms: C_23  and  C_25
REMARK    9  A    between atoms: C_27  and  C_28
REMARK   10  A    between atoms: C_27  and  C_29
REMARK                            x       y       z     vdW  Elec       q    Type
REMARK                         _______ _______ _______ _____ _____    ______ ____
ROOT
ATOM      1  C   UNL     1      -0.169  13.709  21.916  0.00  0.00    +0.000 A 
ATOM      2  C   UNL     1      -1.509  13.666  21.461  0.00  0.00    +0.000 A 
ATOM      3  C   UNL     1      -1.826  13.442  20.122  0.00  0.00    +0.000 A 
ATOM      4  C   UNL     1      -0.775  13.211  19.254  0.00  0.00    +0.000 A 
ATOM      5  C   UNL     1       0.566  13.264  19.708  0.00  0.00    +0.000 A 
ATOM      6  C   UNL     1       0.913  13.503  21.033  0.00  0.00    +0.000 A 
ATOM      7  C   UNL     1       1.321  12.557  18.654  0.00  0.00    +0.000 C 
ATOM      8  O   UNL     1       2.474  12.702  18.307  0.00  0.00    +0.000 OA
ATOM      9  N   UNL     1       0.409  11.725  17.990  0.00  0.00    +0.000 N 
ATOM     10  C   UNL     1      -0.786  12.546  17.893  0.00  0.00    +0.000 C 
ATOM     11  S   UNL     1      -2.137  11.395  17.543  0.00  0.00    +0.000 S 
ATOM     12  C   UNL     1      -1.143   9.918  17.926  0.00  0.00    +0.000 C 
ATOM     13  C   UNL     1       0.016  10.488  18.723  0.00  0.00    +0.000 C 
ENDROOT
BRANCH  13  14
ATOM     14  C   UNL     1       1.029   9.397  19.046  0.00  0.00    +0.000 C 
ATOM     15  O   UNL     1       1.431   9.236  20.199  0.00  0.00    +0.000 OA
ATOM     16  N   UNL     1       1.514   8.693  17.978  0.00  0.00    +0.000 N 
ATOM     17  H   UNL     1       1.063   8.802  17.073  0.00  0.00    +0.000 HD
BRANCH  16  18
ATOM     18  C   UNL     1       2.522   7.662  18.154  0.00  0.00    +0.000 C 
ATOM     19  C   UNL     1       3.458   7.644  16.948  0.00  0.00    +0.000 C 
ATOM     20  C   UNL     1       4.529   6.545  17.058  0.00  0.00    +0.000 C 
ATOM     21  C   UNL     1       5.180   6.383  15.671  0.00  0.00    +0.000 C 
ATOM     22  C   UNL     1       5.647   6.948  18.039  0.00  0.00    +0.000 C 
ATOM     23  N   UNL     1       3.940   5.241  17.396  0.00  0.00    +0.000 NA
ATOM     24  C   UNL     1       2.911   5.161  18.441  0.00  0.00    +0.000 C 
ATOM     25  C   UNL     1       2.187   3.817  18.225  0.00  0.00    +0.000 C 
ATOM     26  C   UNL     1       3.514   5.122  19.857  0.00  0.00    +0.000 C 
ATOM     27  C   UNL     1       1.870   6.292  18.308  0.00  0.00    +0.000 C 
ATOM     28  H   UNL     1       4.670   4.548  17.569  0.00  0.00    +0.000 HD
ENDBRANCH  16  18
ENDBRANCH  13  14
BRANCH   1  30
ATOM     29  C   UNL     1      -1.175  14.442  23.946  0.00  0.00    +0.000 C 
ATOM     30  O   UNL     1      -0.083  13.814  23.286  0.00  0.00    +0.000 OA
ENDBRANCH   1  30
BRANCH   6  31
ATOM     31  O   UNL     1       2.140  13.386  21.610  0.00  0.00    +0.000 OA
ATOM     32  C   UNL     1       3.094  14.428  21.525  0.00  0.00    +0.000 C 
ENDBRANCH   6  31
TORSDOF 4
ENDMDL
MODEL 6
REMARK VINA RESULT:      -6.2      8.243     12.858
REMARK  Name = 
REMARK  10 active torsions:
REMARK  status: ('A' for Active; 'I' for Inactive)
REMARK    1  A    between atoms: C_1  and  O_2
REMARK    2  A    between atoms: O_2  and  C_3
REMARK    3  A    between atoms: C_8  and  O_9
REMARK    4  A    between atoms: O_9  and  C_10
REMARK    5  A    between atoms: C_17  and  C_18
REMARK    6  A    between atoms: N_20  and  C_21
REMARK    7  A    between atoms: C_23  and  C_24
REMARK    8  A    between atoms: C_23  and  C_25
REMARK    9  A    between atoms: C_27  and  C_28
REMARK   10  A    between atoms: C_27  and  C_29
REMARK                            x       y       z     vdW  Elec       q    Type
REMARK                         _______ _______ _______ _____ _____    ______ ____
ROOT
ATOM      1  C   UNL     1      -7.801  14.059  18.868  0.00  0.00    +0.000 A 
ATOM      2  C   UNL     1      -7.865  15.436  19.193  0.00  0.00    +0.000 A 
ATOM      3  C   UNL     1      -7.651  15.898  20.491  0.00  0.00    +0.000 A 
ATOM      4  C   UNL     1      -7.322  14.958  21.450  0.00  0.00    +0.000 A 
ATOM      5  C   UNL     1      -7.269  13.579  21.127  0.00  0.00    +0.000 A 
ATOM      6  C   UNL     1      -7.496  13.088  19.846  0.00  0.00    +0.000 A 
ATOM      7  C   UNL     1      -6.489  12.990  22.234  0.00  0.00    +0.000 C 
ATOM      8  O   UNL     1      -6.533  11.868  22.692  0.00  0.00    +0.000 OA
ATOM      9  N   UNL     1      -5.728  14.027  22.791  0.00  0.00    +0.000 N 
ATOM     10  C   UNL     1      -6.643  15.154  22.790  0.00  0.00    +0.000 C 
ATOM     11  S   UNL     1      -5.605  16.622  22.986  0.00  0.00    +0.000 S 
ATOM     12  C   UNL     1      -4.055  15.719  22.670  0.00  0.00    +0.000 C 
ATOM     13  C   UNL     1      -4.537  14.447  21.999  0.00  0.00    +0.000 C 
ENDROOT
BRANCH  13  14
ATOM     14  C   UNL     1      -3.369  13.499  21.751  0.00  0.00    +0.000 C 
ATOM     15  O   UNL     1      -3.070  12.642  22.585  0.00  0.00    +0.000 OA
ATOM     16  N   UNL     1      -2.643  13.725  20.615  0.00  0.00    +0.000 N 
ATOM     17  H   UNL     1      -3.007  14.374  19.922  0.00  0.00    +0.000 HD
BRANCH  16  18
ATOM     18  C   UNL     1      -1.477  12.920  20.297  0.00  0.00    +0.000 C 
ATOM     19  C   UNL     1      -0.418  13.787  19.622  0.00  0.00    +0.000 C 
ATOM     20  C   UNL     1       0.830  12.982  19.226  0.00  0.00    +0.000 C 
ATOM     21  C   UNL     1       1.663  13.848  18.261  0.00  0.00    +0.000 C 
ATOM     22  C   UNL     1       1.718  12.687  20.450  0.00  0.00    +0.000 C 
ATOM     23  N   UNL     1       0.480  11.759  18.488  0.00  0.00    +0.000 NA
ATOM     24  C   UNL     1      -0.630  10.921  18.963  0.00  0.00    +0.000 C 
ATOM     25  C   UNL     1      -1.037  10.036  17.768  0.00  0.00    +0.000 C 
ATOM     26  C   UNL     1      -0.206   9.973  20.099  0.00  0.00    +0.000 C 
ATOM     27  C   UNL     1      -1.853  11.768  19.370  0.00  0.00    +0.000 C 
ATOM     28  H   UNL     1       1.308  11.184  18.326  0.00  0.00    +0.000 HD
ENDBRANCH  16  18
ENDBRANCH  13  14
BRANCH   1  30
ATOM     29  C   UNL     1      -6.936  14.442  16.683  0.00  0.00    +0.000 C 
ATOM     30  O   UNL     1      -7.916  13.833  17.516  0.00  0.00    +0.000 OA
ENDBRANCH   1  30
BRANCH   6  31
ATOM     31  O   UNL     1      -7.284  11.825  19.387  0.00  0.00    +0.000 OA
ATOM     32  C   UNL     1      -6.041  11.446  18.824  0.00  0.00    +0.000 C 
ENDBRANCH   6  31
TORSDOF 4
ENDMDL
MODEL 7
REMARK VINA RESULT:      -6.1      7.516      9.050
REMARK  Name = 
REMARK  10 active torsions:
REMARK  status: ('A' for Active; 'I' for Inactive)
REMARK    1  A    between atoms: C_1  and  O_2
REMARK    2  A    between atoms: O_2  and  C_3
REMARK    3  A    between atoms: C_8  and  O_9
REMARK    4  A    between atoms: O_9  and  C_10
REMARK    5  A    between atoms: C_17  and  C_18
REMARK    6  A    between atoms: N_20  and  C_21
REMARK    7  A    between atoms: C_23  and  C_24
REMARK    8  A    between atoms: C_23  and  C_25
REMARK    9  A    between atoms: C_27  and  C_28
REMARK   10  A    between atoms: C_27  and  C_29
REMARK                            x       y       z     vdW  Elec       q    Type
REMARK                         _______ _______ _______ _____ _____    ______ ____
ROOT
ATOM      1  C   UNL     1       9.171  13.232  19.127  0.00  0.00    +0.000 A 
ATOM      2  C   UNL     1       9.453  12.012  19.790  0.00  0.00    +0.000 A 
ATOM      3  C   UNL     1       9.451  11.913  21.181  0.00  0.00    +0.000 A 
ATOM      4  C   UNL     1       9.112  13.046  21.896  0.00  0.00    +0.000 A 
ATOM      5  C   UNL     1       8.840  14.268  21.232  0.00  0.00    +0.000 A 
ATOM      6  C   UNL     1       8.852  14.402  19.848  0.00  0.00    +0.000 A 
ATOM      7  C   UNL     1       8.120  15.064  22.246  0.00  0.00    +0.000 C 
ATOM      8  O   UNL     1       8.067  16.269  22.381  0.00  0.00    +0.000 OA
ATOM      9  N   UNL     1       7.571  14.156  23.161  0.00  0.00    +0.000 N 
ATOM     10  C   UNL     1       8.622  13.167  23.325  0.00  0.00    +0.000 C 
ATOM     11  S   UNL     1       7.816  11.718  24.049  0.00  0.00    +0.000 S 
ATOM     12  C   UNL     1       6.134  12.343  23.735  0.00  0.00    +0.000 C 
ATOM     13  C   UNL     1       6.364  13.419  22.690  0.00  0.00    +0.000 C 
ENDROOT
BRANCH  13  14
ATOM     14  C   UNL     1       5.060  14.143  22.375  0.00  0.00    +0.000 C 
ATOM     15  O   UNL     1       4.292  14.474  23.280  0.00  0.00    +0.000 OA
ATOM     16  N   UNL     1       4.772  14.310  21.048  0.00  0.00    +0.000 N 
ATOM     17  H   UNL     1       5.495  14.112  20.361  0.00  0.00    +0.000 HD
BRANCH  16  18
ATOM     18  C   UNL     1       3.534  14.940  20.623  0.00  0.00    +0.000 C 
ATOM     19  C   UNL     1       2.488  13.871  20.321  0.00  0.00    +0.000 C 
ATOM     20  C   UNL     1       1.162  14.475  19.828  0.00  0.00    +0.000 C 
ATOM     21  C   UNL     1       0.319  13.334  19.228  0.00  0.00    +0.000 C 
ATOM     22  C   UNL     1       0.352  15.072  20.994  0.00  0.00    +0.000 C 
ATOM     23  N   UNL     1       1.374  15.448  18.746  0.00  0.00    +0.000 NA
ATOM     24  C   UNL     1       2.459  16.432  18.860  0.00  0.00    +0.000 C 
ATOM     25  C   UNL     1       2.716  16.953  17.432  0.00  0.00    +0.000 C 
ATOM     26  C   UNL     1       2.060  17.649  19.715  0.00  0.00    +0.000 C 
ATOM     27  C   UNL     1       3.763  15.790  19.377  0.00  0.00    +0.000 C 
ATOM     28  H   UNL     1       0.500  15.916  18.504  0.00  0.00    +0.000 HD
ENDBRANCH  16  18
ENDBRANCH  13  14
BRANCH   1  30
ATOM     29  C   UNL     1       7.852  12.650  17.232  0.00  0.00    +0.000 C 
ATOM     30  O   UNL     1       9.100  13.082  17.761  0.00  0.00    +0.000 OA
ENDBRANCH   1  30
BRANCH   6  31
ATOM     31  O   UNL     1       8.424  15.462  19.109  0.00  0.00    +0.000 OA
ATOM     32  C   UNL     1       9.209  16.633  18.979  0.00  0.00    +0.000 C 
ENDBRANCH   6  31
TORSDOF 4
ENDMDL
MODEL 8
REMARK VINA RESULT:      -6.1      8.514     10.400
REMARK  Name = 
REMARK  10 active torsions:
REMARK  status: ('A' for Active; 'I' for Inactive)
REMARK    1  A    between atoms: C_1  and  O_2
REMARK    2  A    between atoms: O_2  and  C_3
REMARK    3  A    between atoms: C_8  and  O_9
REMARK    4  A    between atoms: O_9  and  C_10
REMARK    5  A    between atoms: C_17  and  C_18
REMARK    6  A    between atoms: N_20  and  C_21
REMARK    7  A    between atoms: C_23  and  C_24
REMARK    8  A    between atoms: C_23  and  C_25
REMARK    9  A    between atoms: C_27  and  C_28
REMARK   10  A    between atoms: C_27  and  C_29
REMARK                            x       y       z     vdW  Elec       q    Type
REMARK                         _______ _______ _______ _____ _____    ______ ____
ROOT
ATOM      1  C   UNL     1       2.109  17.207  18.751  0.00  0.00    +0.000 A 
ATOM      2  C   UNL     1       2.588  16.223  17.852  0.00  0.00    +0.000 A 
ATOM      3  C   UNL     1       2.731  14.889  18.229  0.00  0.00    +0.000 A 
ATOM      4  C   UNL     1       2.338  14.548  19.509  0.00  0.00    +0.000 A 
ATOM      5  C   UNL     1       1.870  15.534  20.412  0.00  0.00    +0.000 A 
ATOM      6  C   UNL     1       1.733  16.875  20.071  0.00  0.00    +0.000 A 
ATOM      7  C   UNL     1       1.166  14.754  21.450  0.00  0.00    +0.000 C 
ATOM      8  O   UNL     1       0.993  15.016  22.622  0.00  0.00    +0.000 OA
ATOM      9  N   UNL     1       0.812  13.529  20.867  0.00  0.00    +0.000 N 
ATOM     10  C   UNL     1       1.978  13.187  20.071  0.00  0.00    +0.000 C 
ATOM     11  S   UNL     1       1.412  11.931  18.898  0.00  0.00    +0.000 S 
ATOM     12  C   UNL     1      -0.352  12.214  19.256  0.00  0.00    +0.000 C 
ATOM     13  C   UNL     1      -0.344  13.574  19.928  0.00  0.00    +0.000 C 
ENDROOT
BRANCH  13  14
ATOM     14  C   UNL     1      -1.745  13.940  20.406  0.00  0.00    +0.000 C 
ATOM     15  O   UNL     1      -2.076  15.120  20.533  0.00  0.00    +0.000 OA
ATOM     16  N   UNL     1      -2.550  12.893  20.762  0.00  0.00    +0.000 N 
ATOM     17  H   UNL     1      -2.255  11.948  20.532  0.00  0.00    +0.000 HD
BRANCH  16  18
ATOM     18  C   UNL     1      -3.888  13.119  21.281  0.00  0.00    +0.000 C 
ATOM     19  C   UNL     1      -3.925  12.793  22.772  0.00  0.00    +0.000 C 
ATOM     20  C   UNL     1      -5.329  12.976  23.373  0.00  0.00    +0.000 C 
ATOM     21  C   UNL     1      -5.339  12.300  24.758  0.00  0.00    +0.000 C 
ATOM     22  C   UNL     1      -5.653  14.466  23.595  0.00  0.00    +0.000 C 
ATOM     23  N   UNL     1      -6.359  12.298  22.573  0.00  0.00    +0.000 NA
ATOM     24  C   UNL     1      -6.331  12.416  21.109  0.00  0.00    +0.000 C 
ATOM     25  C   UNL     1      -7.196  11.258  20.570  0.00  0.00    +0.000 C 
ATOM     26  C   UNL     1      -6.974  13.723  20.612  0.00  0.00    +0.000 C 
ATOM     27  C   UNL     1      -4.904  12.248  20.548  0.00  0.00    +0.000 C 
ATOM     28  H   UNL     1      -7.292  12.517  22.924  0.00  0.00    +0.000 HD
ENDBRANCH  16  18
ENDBRANCH  13  14
BRANCH   1  30
ATOM     29  C   UNL     1       1.028  18.460  17.040  0.00  0.00    +0.000 C 
ATOM     30  O   UNL     1       1.925  18.428  18.144  0.00  0.00    +0.000 OA
ENDBRANCH   1  30
BRANCH   6  31
ATOM     31  O   UNL     1       1.121  17.860  20.783  0.00  0.00    +0.000 OA
ATOM     32  C   UNL     1      -0.284  18.032  20.740  0.00  0.00    +0.000 C 
ENDBRANCH   6  31
TORSDOF 4
ENDMDL
MODEL 9
REMARK VINA RESULT:      -6.0      3.864      8.199
REMARK  Name = 
REMARK  10 active torsions:
REMARK  status: ('A' for Active; 'I' for Inactive)
REMARK    1  A    between atoms: C_1  and  O_2
REMARK    2  A    between atoms: O_2  and  C_3
REMARK    3  A    between atoms: C_8  and  O_9
REMARK    4  A    between atoms: O_9  and  C_10
REMARK    5  A    between atoms: C_17  and  C_18
REMARK    6  A    between atoms: N_20  and  C_21
REMARK    7  A    between atoms: C_23  and  C_24
REMARK    8  A    between atoms: C_23  and  C_25
REMARK    9  A    between atoms: C_27  and  C_28
REMARK   10  A    between atoms: C_27  and  C_29
REMARK                            x       y       z     vdW  Elec       q    Type
REMARK                         _______ _______ _______ _____ _____    ______ ____
ROOT
ATOM      1  C   UNL     1       2.191  13.490  19.399  0.00  0.00    +0.000 A 
ATOM      2  C   UNL     1       1.513  14.137  20.461  0.00  0.00    +0.000 A 
ATOM      3  C   UNL     1       0.297  13.666  20.954  0.00  0.00    +0.000 A 
ATOM      4  C   UNL     1      -0.203  12.504  20.397  0.00  0.00    +0.000 A 
ATOM      5  C   UNL     1       0.470  11.863  19.328  0.00  0.00    +0.000 A 
ATOM      6  C   UNL     1       1.674  12.320  18.803  0.00  0.00    +0.000 A 
ATOM      7  C   UNL     1      -0.100  10.501  19.321  0.00  0.00    +0.000 C 
ATOM      8  O   UNL     1      -0.231   9.728  18.396  0.00  0.00    +0.000 OA
ATOM      9  N   UNL     1      -0.611  10.269  20.605  0.00  0.00    +0.000 N 
ATOM     10  C   UNL     1      -1.226  11.536  20.957  0.00  0.00    +0.000 C 
ATOM     11  S   UNL     1      -1.430  11.495  22.754  0.00  0.00    +0.000 S 
ATOM     12  C   UNL     1      -0.369  10.029  22.964  0.00  0.00    +0.000 C 
ATOM     13  C   UNL     1       0.404   9.983  21.659  0.00  0.00    +0.000 C 
ENDROOT
BRANCH  13  14
ATOM     14  C   UNL     1       1.282   8.738  21.604  0.00  0.00    +0.000 C 
ATOM     15  O   UNL     1       2.209   8.589  22.401  0.00  0.00    +0.000 OA
ATOM     16  N   UNL     1       1.030   7.872  20.576  0.00  0.00    +0.000 N 
ATOM     17  H   UNL     1       0.187   7.999  20.023  0.00  0.00    +0.000 HD
BRANCH  16  18
ATOM     18  C   UNL     1       1.834   6.676  20.389  0.00  0.00    +0.000 C 
ATOM     19  C   UNL     1       2.543   6.736  19.039  0.00  0.00    +0.000 C 
ATOM     20  C   UNL     1       3.383   5.478  18.765  0.00  0.00    +0.000 C 
ATOM     21  C   UNL     1       3.759   5.479  17.271  0.00  0.00    +0.000 C 
ATOM     22  C   UNL     1       4.700   5.499  19.563  0.00  0.00    +0.000 C 
ATOM     23  N   UNL     1       2.614   4.246  18.998  0.00  0.00    +0.000 NA
ATOM     24  C   UNL     1       1.770   4.136  20.195  0.00  0.00    +0.000 C 
ATOM     25  C   UNL     1       0.773   2.994  19.913  0.00  0.00    +0.000 C 
ATOM     26  C   UNL     1       2.573   3.730  21.444  0.00  0.00    +0.000 C 
ATOM     27  C   UNL     1       0.961   5.426  20.447  0.00  0.00    +0.000 C 
ATOM     28  H   UNL     1       3.213   3.424  18.915  0.00  0.00    +0.000 HD
ENDBRANCH  16  18
ENDBRANCH  13  14
BRANCH   1  30
ATOM     29  C   UNL     1       3.534  14.888  18.016  0.00  0.00    +0.000 C 
ATOM     30  O   UNL     1       3.428  14.041  19.154  0.00  0.00    +0.000 OA
ENDBRANCH   1  30
BRANCH   6  31
ATOM     31  O   UNL     1       2.495  11.686  17.922  0.00  0.00    +0.000 OA
ATOM     32  C   UNL     1       2.600  10.274  17.900  0.00  0.00    +0.000 C 
ENDBRANCH   6  31
TORSDOF 4
ENDMDL
