MODEL 1
REMARK VINA RESULT:      -8.2      0.000      0.000
REMARK  Name = 
REMARK  6 active torsions:
REMARK  status: ('A' for Active; 'I' for Inactive)
REMARK    1  A    between atoms: C_1  and  S_2
REMARK    2  A    between atoms: S_2  and  C_5
REMARK    3  A    between atoms: C_8  and  C_9
REMARK    4  A    between atoms: C_12  and  O_13
REMARK    5  A    between atoms: O_13  and  C_14
REMARK    6  A    between atoms: C_14  and  C_15
REMARK                            x       y       z     vdW  Elec       q    Type
REMARK                         _______ _______ _______ _____ _____    ______ ____
ROOT
ATOM      1  C   UNL     1       5.879   5.482  18.686  0.00  0.00    +0.000 A 
ATOM      2  C   UNL     1       7.151   5.604  19.272  0.00  0.00    +0.000 A 
ATOM      3  C   UNL     1       8.001   6.622  18.882  0.00  0.00    +0.000 A 
ATOM      4  C   UNL     1       7.658   7.513  17.872  0.00  0.00    +0.000 A 
ATOM      5  C   UNL     1       6.390   7.407  17.277  0.00  0.00    +0.000 A 
ATOM      6  C   UNL     1       5.519   6.384  17.684  0.00  0.00    +0.000 A 
ENDROOT
BRANCH   1  10
ATOM      7  C   UNL     1       3.112   3.488  19.907  0.00  0.00    +0.000 A 
ATOM      8  N   UNL     1       4.104   2.618  19.999  0.00  0.00    +0.000 NA
ATOM      9  N   UNL     1       5.244   3.231  19.532  0.00  0.00    +0.000 NA
ATOM     10  C   UNL     1       4.951   4.462  19.176  0.00  0.00    +0.000 A 
ATOM     11  N   UNL     1       3.605   4.654  19.391  0.00  0.00    +0.000 N 
ATOM     12  H   UNL     1       3.087   5.507  19.216  0.00  0.00    +0.000 HD
BRANCH   7  14
ATOM     13  C   UNL     1       0.745   2.295  18.993  0.00  0.00    +0.000 C 
ATOM     14  S   UNL     1       1.445   3.167  20.362  0.00  0.00    +0.000 S 
ATOM     15  O   UNL     1       0.816   4.452  20.473  0.00  0.00    +0.000 OA
ATOM     16  O   UNL     1       1.523   2.251  21.496  0.00  0.00    +0.000 OA
ENDBRANCH   7  14
ENDBRANCH   1  10
BRANCH   4  17
ATOM     17  O   UNL     1       8.552   8.490  17.481  0.00  0.00    +0.000 OA
BRANCH  17  18
ATOM     18  C   UNL     1       8.146   9.824  17.888  0.00  0.00    +0.000 C 
BRANCH  18  19
ATOM     19  C   UNL     1       9.289  10.525  18.574  0.00  0.00    +0.000 A 
ATOM     20  C   UNL     1       9.301  10.666  19.966  0.00  0.00    +0.000 A 
ATOM     21  C   UNL     1      10.302  11.413  20.587  0.00  0.00    +0.000 A 
ATOM     22  C   UNL     1      11.319  11.991  19.827  0.00  0.00    +0.000 A 
ATOM     23  C   UNL     1      11.338  11.815  18.445  0.00  0.00    +0.000 A 
ATOM     24  C   UNL     1      10.327  11.088  17.818  0.00  0.00    +0.000 A 
ENDBRANCH  18  19
ENDBRANCH  17  18
ENDBRANCH   4  17
TORSDOF 5
ENDMDL
MODEL 2
REMARK VINA RESULT:      -8.0      1.046      1.627
REMARK  Name = 
REMARK  6 active torsions:
REMARK  status: ('A' for Active; 'I' for Inactive)
REMARK    1  A    between atoms: C_1  and  S_2
REMARK    2  A    between atoms: S_2  and  C_5
REMARK    3  A    between atoms: C_8  and  C_9
REMARK    4  A    between atoms: C_12  and  O_13
REMARK    5  A    between atoms: O_13  and  C_14
REMARK    6  A    between atoms: C_14  and  C_15
REMARK                            x       y       z     vdW  Elec       q    Type
REMARK                         _______ _______ _______ _____ _____    ______ ____
ROOT
ATOM      1  C   UNL     1       6.058   5.652  18.378  0.00  0.00    +0.000 A 
ATOM      2  C   UNL     1       7.285   5.750  19.056  0.00  0.00    +0.000 A 
ATOM      3  C   UNL     1       8.133   6.813  18.809  0.00  0.00    +0.000 A 
ATOM      4  C   UNL     1       7.835   7.778  17.854  0.00  0.00    +0.000 A 
ATOM      5  C   UNL     1       6.611   7.696  17.169  0.00  0.00    +0.000 A 
ATOM      6  C   UNL     1       5.742   6.626  17.431  0.00  0.00    +0.000 A 
ENDROOT
BRANCH   1  10
ATOM      7  C   UNL     1       3.256   3.436  18.982  0.00  0.00    +0.000 A 
ATOM      8  N   UNL     1       4.239   2.751  19.545  0.00  0.00    +0.000 NA
ATOM      9  N   UNL     1       5.402   3.465  19.367  0.00  0.00    +0.000 NA
ATOM     10  C   UNL     1       5.126   4.576  18.719  0.00  0.00    +0.000 A 
ATOM     11  N   UNL     1       3.776   4.583  18.451  0.00  0.00    +0.000 N 
ATOM     12  H   UNL     1       3.266   5.312  17.967  0.00  0.00    +0.000 HD
BRANCH   7  14
ATOM     13  C   UNL     1       0.798   3.716  20.303  0.00  0.00    +0.000 C 
ATOM     14  S   UNL     1       1.576   2.924  18.926  0.00  0.00    +0.000 S 
ATOM     15  O   UNL     1       1.592   1.507  19.146  0.00  0.00    +0.000 OA
ATOM     16  O   UNL     1       1.036   3.505  17.700  0.00  0.00    +0.000 OA
ENDBRANCH   7  14
ENDBRANCH   1  10
BRANCH   4  17
ATOM     17  O   UNL     1       8.726   8.802  17.606  0.00  0.00    +0.000 OA
BRANCH  17  18
ATOM     18  C   UNL     1       8.298  10.074  18.163  0.00  0.00    +0.000 C 
BRANCH  18  19
ATOM     19  C   UNL     1       9.487  10.835  18.687  0.00  0.00    +0.000 A 
ATOM     20  C   UNL     1      10.503  11.249  17.819  0.00  0.00    +0.000 A 
ATOM     21  C   UNL     1      11.655  11.853  18.323  0.00  0.00    +0.000 A 
ATOM     22  C   UNL     1      11.782  12.085  19.692  0.00  0.00    +0.000 A 
ATOM     23  C   UNL     1      10.753  11.717  20.557  0.00  0.00    +0.000 A 
ATOM     24  C   UNL     1       9.611  11.093  20.060  0.00  0.00    +0.000 A 
ENDBRANCH  18  19
ENDBRANCH  17  18
ENDBRANCH   4  17
TORSDOF 5
ENDMDL
MODEL 3
REMARK VINA RESULT:      -7.9      6.007      8.666
REMARK  Name = 
REMARK  6 active torsions:
REMARK  status: ('A' for Active; 'I' for Inactive)
REMARK    1  A    between atoms: C_1  and  S_2
REMARK    2  A    between atoms: S_2  and  C_5
REMARK    3  A    between atoms: C_8  and  C_9
REMARK    4  A    between atoms: C_12  and  O_13
REMARK    5  A    between atoms: O_13  and  C_14
REMARK    6  A    between atoms: C_14  and  C_15
REMARK                            x       y       z     vdW  Elec       q    Type
REMARK                         _______ _______ _______ _____ _____    ______ ____
ROOT
ATOM      1  C   UNL     1       2.946   7.188  18.761  0.00  0.00    +0.000 A 
ATOM      2  C   UNL     1       2.617   8.206  17.848  0.00  0.00    +0.000 A 
ATOM      3  C   UNL     1       1.713   9.190  18.200  0.00  0.00    +0.000 A 
ATOM      4  C   UNL     1       1.062   9.177  19.429  0.00  0.00    +0.000 A 
ATOM      5  C   UNL     1       1.380   8.169  20.353  0.00  0.00    +0.000 A 
ATOM      6  C   UNL     1       2.311   7.178  20.003  0.00  0.00    +0.000 A 
ENDROOT
BRANCH   1  10
ATOM      7  C   UNL     1       5.699   5.250  17.425  0.00  0.00    +0.000 A 
ATOM      8  N   UNL     1       5.144   4.364  18.235  0.00  0.00    +0.000 NA
ATOM      9  N   UNL     1       4.077   4.974  18.854  0.00  0.00    +0.000 NA
ATOM     10  C   UNL     1       3.977   6.209  18.413  0.00  0.00    +0.000 A 
ATOM     11  N   UNL     1       4.997   6.419  17.514  0.00  0.00    +0.000 N 
ATOM     12  H   UNL     1       5.178   7.275  17.003  0.00  0.00    +0.000 HD
BRANCH   7  14
ATOM     13  C   UNL     1       6.537   3.968  15.075  0.00  0.00    +0.000 C 
ATOM     14  S   UNL     1       7.115   4.952  16.425  0.00  0.00    +0.000 S 
ATOM     15  O   UNL     1       8.004   4.168  17.233  0.00  0.00    +0.000 OA
ATOM     16  O   UNL     1       7.502   6.260  15.905  0.00  0.00    +0.000 OA
ENDBRANCH   7  14
ENDBRANCH   1  10
BRANCH   4  17
ATOM     17  O   UNL     1       0.134  10.154  19.727  0.00  0.00    +0.000 OA
BRANCH  17  18
ATOM     18  C   UNL     1      -0.139  11.038  18.607  0.00  0.00    +0.000 C 
BRANCH  18  19
ATOM     19  C   UNL     1      -1.569  10.882  18.162  0.00  0.00    +0.000 A 
ATOM     20  C   UNL     1      -1.897  10.008  17.120  0.00  0.00    +0.000 A 
ATOM     21  C   UNL     1      -3.204   9.951  16.636  0.00  0.00    +0.000 A 
ATOM     22  C   UNL     1      -4.200  10.736  17.215  0.00  0.00    +0.000 A 
ATOM     23  C   UNL     1      -3.890  11.574  18.284  0.00  0.00    +0.000 A 
ATOM     24  C   UNL     1      -2.581  11.651  18.756  0.00  0.00    +0.000 A 
ENDBRANCH  18  19
ENDBRANCH  17  18
ENDBRANCH   4  17
TORSDOF 5
ENDMDL
MODEL 4
REMARK VINA RESULT:      -7.8      6.052      8.270
REMARK  Name = 
REMARK  6 active torsions:
REMARK  status: ('A' for Active; 'I' for Inactive)
REMARK    1  A    between atoms: C_1  and  S_2
REMARK    2  A    between atoms: S_2  and  C_5
REMARK    3  A    between atoms: C_8  and  C_9
REMARK    4  A    between atoms: C_12  and  O_13
REMARK    5  A    between atoms: O_13  and  C_14
REMARK    6  A    between atoms: C_14  and  C_15
REMARK                            x       y       z     vdW  Elec       q    Type
REMARK                         _______ _______ _______ _____ _____    ______ ____
ROOT
ATOM      1  C   UNL     1       2.456   7.509  19.011  0.00  0.00    +0.000 A 
ATOM      2  C   UNL     1       1.736   7.958  20.132  0.00  0.00    +0.000 A 
ATOM      3  C   UNL     1       0.962   9.100  20.050  0.00  0.00    +0.000 A 
ATOM      4  C   UNL     1       0.913   9.867  18.892  0.00  0.00    +0.000 A 
ATOM      5  C   UNL     1       1.625   9.432  17.762  0.00  0.00    +0.000 A 
ATOM      6  C   UNL     1       2.398   8.263  17.838  0.00  0.00    +0.000 A 
ENDROOT
BRANCH   1  10
ATOM      7  C   UNL     1       3.705   4.148  19.527  0.00  0.00    +0.000 A 
ATOM      8  N   UNL     1       4.776   4.735  19.018  0.00  0.00    +0.000 NA
ATOM      9  N   UNL     1       4.444   6.039  18.734  0.00  0.00    +0.000 NA
ATOM     10  C   UNL     1       3.193   6.246  19.081  0.00  0.00    +0.000 A 
ATOM     11  N   UNL     1       2.692   5.064  19.577  0.00  0.00    +0.000 N 
ATOM     12  H   UNL     1       1.754   4.913  19.929  0.00  0.00    +0.000 HD
BRANCH   7  14
ATOM     13  C   UNL     1       2.660   2.467  21.513  0.00  0.00    +0.000 C 
ATOM     14  S   UNL     1       3.621   2.466  20.029  0.00  0.00    +0.000 S 
ATOM     15  O   UNL     1       4.968   2.084  20.340  0.00  0.00    +0.000 OA
ATOM     16  O   UNL     1       2.853   1.790  18.987  0.00  0.00    +0.000 OA
ENDBRANCH   7  14
ENDBRANCH   1  10
BRANCH   4  17
ATOM     17  O   UNL     1       0.162  11.024  18.863  0.00  0.00    +0.000 OA
BRANCH  17  18
ATOM     18  C   UNL     1      -1.192  10.834  19.355  0.00  0.00    +0.000 C 
BRANCH  18  19
ATOM     19  C   UNL     1      -2.157  10.761  18.202  0.00  0.00    +0.000 A 
ATOM     20  C   UNL     1      -1.883   9.943  17.100  0.00  0.00    +0.000 A 
ATOM     21  C   UNL     1      -2.721   9.964  15.985  0.00  0.00    +0.000 A 
ATOM     22  C   UNL     1      -3.859  10.770  15.979  0.00  0.00    +0.000 A 
ATOM     23  C   UNL     1      -4.162  11.552  17.092  0.00  0.00    +0.000 A 
ATOM     24  C   UNL     1      -3.315  11.551  18.199  0.00  0.00    +0.000 A 
ENDBRANCH  18  19
ENDBRANCH  17  18
ENDBRANCH   4  17
TORSDOF 5
ENDMDL
MODEL 5
REMARK VINA RESULT:      -7.7      4.576      9.308
REMARK  Name = 
REMARK  6 active torsions:
REMARK  status: ('A' for Active; 'I' for Inactive)
REMARK    1  A    between atoms: C_1  and  S_2
REMARK    2  A    between atoms: S_2  and  C_5
REMARK    3  A    between atoms: C_8  and  C_9
REMARK    4  A    between atoms: C_12  and  O_13
REMARK    5  A    between atoms: O_13  and  C_14
REMARK    6  A    between atoms: C_14  and  C_15
REMARK                            x       y       z     vdW  Elec       q    Type
REMARK                         _______ _______ _______ _____ _____    ______ ____
ROOT
ATOM      1  C   UNL     1       7.889   8.011  18.111  0.00  0.00    +0.000 A 
ATOM      2  C   UNL     1       6.858   7.851  17.168  0.00  0.00    +0.000 A 
ATOM      3  C   UNL     1       6.228   6.628  17.028  0.00  0.00    +0.000 A 
ATOM      4  C   UNL     1       6.623   5.515  17.761  0.00  0.00    +0.000 A 
ATOM      5  C   UNL     1       7.650   5.658  18.708  0.00  0.00    +0.000 A 
ATOM      6  C   UNL     1       8.279   6.903  18.864  0.00  0.00    +0.000 A 
ENDROOT
BRANCH   1  10
ATOM      7  C   UNL     1       9.563  11.015  19.248  0.00  0.00    +0.000 A 
ATOM      8  N   UNL     1       8.990  11.456  18.140  0.00  0.00    +0.000 NA
ATOM      9  N   UNL     1       8.326  10.398  17.563  0.00  0.00    +0.000 NA
ATOM     10  C   UNL     1       8.481   9.333  18.320  0.00  0.00    +0.000 A 
ATOM     11  N   UNL     1       9.269   9.688  19.391  0.00  0.00    +0.000 N 
ATOM     12  H   UNL     1       9.558   9.080  20.148  0.00  0.00    +0.000 HD
BRANCH   7  14
ATOM     13  C   UNL     1      10.524  13.620  19.644  0.00  0.00    +0.000 C 
ATOM     14  S   UNL     1      10.548  11.991  20.329  0.00  0.00    +0.000 S 
ATOM     15  O   UNL     1      11.876  11.459  20.233  0.00  0.00    +0.000 OA
ATOM     16  O   UNL     1       9.822  12.017  21.596  0.00  0.00    +0.000 OA
ENDBRANCH   7  14
ENDBRANCH   1  10
BRANCH   4  17
ATOM     17  O   UNL     1       5.997   4.301  17.562  0.00  0.00    +0.000 OA
BRANCH  17  18
ATOM     18  C   UNL     1       4.791   4.410  16.759  0.00  0.00    +0.000 C 
BRANCH  18  19
ATOM     19  C   UNL     1       3.631   3.776  17.481  0.00  0.00    +0.000 A 
ATOM     20  C   UNL     1       3.724   2.463  17.956  0.00  0.00    +0.000 A 
ATOM     21  C   UNL     1       2.611   1.841  18.522  0.00  0.00    +0.000 A 
ATOM     22  C   UNL     1       1.411   2.539  18.655  0.00  0.00    +0.000 A 
ATOM     23  C   UNL     1       1.326   3.862  18.227  0.00  0.00    +0.000 A 
ATOM     24  C   UNL     1       2.429   4.479  17.640  0.00  0.00    +0.000 A 
ENDBRANCH  18  19
ENDBRANCH  17  18
ENDBRANCH   4  17
TORSDOF 5
ENDMDL
MODEL 6
REMARK VINA RESULT:      -7.7      1.009      1.613
REMARK  Name = 
REMARK  6 active torsions:
REMARK  status: ('A' for Active; 'I' for Inactive)
REMARK    1  A    between atoms: C_1  and  S_2
REMARK    2  A    between atoms: S_2  and  C_5
REMARK    3  A    between atoms: C_8  and  C_9
REMARK    4  A    between atoms: C_12  and  O_13
REMARK    5  A    between atoms: O_13  and  C_14
REMARK    6  A    between atoms: C_14  and  C_15
REMARK                            x       y       z     vdW  Elec       q    Type
REMARK                         _______ _______ _______ _____ _____    ______ ____
ROOT
ATOM      1  C   UNL     1       5.681   5.694  18.199  0.00  0.00    +0.000 A 
ATOM      2  C   UNL     1       5.496   6.777  17.322  0.00  0.00    +0.000 A 
ATOM      3  C   UNL     1       6.503   7.706  17.143  0.00  0.00    +0.000 A 
ATOM      4  C   UNL     1       7.695   7.637  17.855  0.00  0.00    +0.000 A 
ATOM      5  C   UNL     1       7.897   6.560  18.734  0.00  0.00    +0.000 A 
ATOM      6  C   UNL     1       6.881   5.606  18.904  0.00  0.00    +0.000 A 
ENDROOT
BRANCH   1  10
ATOM      7  C   UNL     1       2.963   3.464  19.075  0.00  0.00    +0.000 A 
ATOM      8  N   UNL     1       3.443   2.859  18.000  0.00  0.00    +0.000 NA
ATOM      9  N   UNL     1       4.485   3.619  17.522  0.00  0.00    +0.000 NA
ATOM     10  C   UNL     1       4.646   4.663  18.306  0.00  0.00    +0.000 A 
ATOM     11  N   UNL     1       3.690   4.601  19.294  0.00  0.00    +0.000 N 
ATOM     12  H   UNL     1       3.566   5.264  20.048  0.00  0.00    +0.000 HD
BRANCH   7  14
ATOM     13  C   UNL     1       2.251   2.637  21.658  0.00  0.00    +0.000 C 
ATOM     14  S   UNL     1       1.605   2.890  20.032  0.00  0.00    +0.000 S 
ATOM     15  O   UNL     1       1.238   1.623  19.468  0.00  0.00    +0.000 OA
ATOM     16  O   UNL     1       0.667   4.008  20.081  0.00  0.00    +0.000 OA
ENDBRANCH   7  14
ENDBRANCH   1  10
BRANCH   4  17
ATOM     17  O   UNL     1       8.660   8.608  17.680  0.00  0.00    +0.000 OA
BRANCH  17  18
ATOM     18  C   UNL     1       8.234   9.921  18.134  0.00  0.00    +0.000 C 
BRANCH  18  19
ATOM     19  C   UNL     1       9.389  10.649  18.767  0.00  0.00    +0.000 A 
ATOM     20  C   UNL     1       9.405  10.891  20.145  0.00  0.00    +0.000 A 
ATOM     21  C   UNL     1      10.419  11.665  20.711  0.00  0.00    +0.000 A 
ATOM     22  C   UNL     1      11.445  12.166  19.911  0.00  0.00    +0.000 A 
ATOM     23  C   UNL     1      11.461  11.889  18.546  0.00  0.00    +0.000 A 
ATOM     24  C   UNL     1      10.437  11.137  17.973  0.00  0.00    +0.000 A 
ENDBRANCH  18  19
ENDBRANCH  17  18
ENDBRANCH   4  17
TORSDOF 5
ENDMDL
MODEL 7
REMARK VINA RESULT:      -7.6      4.614      9.146
REMARK  Name = 
REMARK  6 active torsions:
REMARK  status: ('A' for Active; 'I' for Inactive)
REMARK    1  A    between atoms: C_1  and  S_2
REMARK    2  A    between atoms: S_2  and  C_5
REMARK    3  A    between atoms: C_8  and  C_9
REMARK    4  A    between atoms: C_12  and  O_13
REMARK    5  A    between atoms: O_13  and  C_14
REMARK    6  A    between atoms: C_14  and  C_15
REMARK                            x       y       z     vdW  Elec       q    Type
REMARK                         _______ _______ _______ _____ _____    ______ ____
ROOT
ATOM      1  C   UNL     1       7.905   8.015  18.172  0.00  0.00    +0.000 A 
ATOM      2  C   UNL     1       8.299   6.945  18.995  0.00  0.00    +0.000 A 
ATOM      3  C   UNL     1       7.788   5.679  18.780  0.00  0.00    +0.000 A 
ATOM      4  C   UNL     1       6.837   5.432  17.797  0.00  0.00    +0.000 A 
ATOM      5  C   UNL     1       6.434   6.489  16.965  0.00  0.00    +0.000 A 
ATOM      6  C   UNL     1       6.965   7.772  17.170  0.00  0.00    +0.000 A 
ENDROOT
BRANCH   1  10
ATOM      7  C   UNL     1       9.624  11.019  19.240  0.00  0.00    +0.000 A 
ATOM      8  N   UNL     1       9.105  11.426  18.093  0.00  0.00    +0.000 NA
ATOM      9  N   UNL     1       8.431  10.363  17.538  0.00  0.00    +0.000 NA
ATOM     10  C   UNL     1       8.527   9.329  18.345  0.00  0.00    +0.000 A 
ATOM     11  N   UNL     1       9.287   9.708  19.428  0.00  0.00    +0.000 N 
ATOM     12  H   UNL     1       9.530   9.127  20.221  0.00  0.00    +0.000 HD
BRANCH   7  14
ATOM     13  C   UNL     1      10.573  13.633  19.604  0.00  0.00    +0.000 C 
ATOM     14  S   UNL     1      10.598  12.014  20.314  0.00  0.00    +0.000 S 
ATOM     15  O   UNL     1      11.929  11.485  20.235  0.00  0.00    +0.000 OA
ATOM     16  O   UNL     1       9.862  12.056  21.575  0.00  0.00    +0.000 OA
ENDBRANCH   7  14
ENDBRANCH   1  10
BRANCH   4  17
ATOM     17  O   UNL     1       6.319   4.162  17.642  0.00  0.00    +0.000 OA
BRANCH  17  18
ATOM     18  C   UNL     1       5.282   4.093  16.627  0.00  0.00    +0.000 C 
BRANCH  18  19
ATOM     19  C   UNL     1       3.951   3.801  17.266  0.00  0.00    +0.000 A 
ATOM     20  C   UNL     1       3.078   4.844  17.596  0.00  0.00    +0.000 A 
ATOM     21  C   UNL     1       1.898   4.579  18.290  0.00  0.00    +0.000 A 
ATOM     22  C   UNL     1       1.561   3.267  18.623  0.00  0.00    +0.000 A 
ATOM     23  C   UNL     1       2.403   2.219  18.257  0.00  0.00    +0.000 A 
ATOM     24  C   UNL     1       3.594   2.482  17.583  0.00  0.00    +0.000 A 
ENDBRANCH  18  19
ENDBRANCH  17  18
ENDBRANCH   4  17
TORSDOF 5
ENDMDL
MODEL 8
REMARK VINA RESULT:      -7.5      5.527      7.243
REMARK  Name = 
REMARK  6 active torsions:
REMARK  status: ('A' for Active; 'I' for Inactive)
REMARK    1  A    between atoms: C_1  and  S_2
REMARK    2  A    between atoms: S_2  and  C_5
REMARK    3  A    between atoms: C_8  and  C_9
REMARK    4  A    between atoms: C_12  and  O_13
REMARK    5  A    between atoms: O_13  and  C_14
REMARK    6  A    between atoms: C_14  and  C_15
REMARK                            x       y       z     vdW  Elec       q    Type
REMARK                         _______ _______ _______ _____ _____    ______ ____
ROOT
ATOM      1  C   UNL     1       2.943   7.134  17.945  0.00  0.00    +0.000 A 
ATOM      2  C   UNL     1       4.157   7.349  17.269  0.00  0.00    +0.000 A 
ATOM      3  C   UNL     1       4.868   6.279  16.759  0.00  0.00    +0.000 A 
ATOM      4  C   UNL     1       4.445   4.968  16.944  0.00  0.00    +0.000 A 
ATOM      5  C   UNL     1       3.234   4.735  17.615  0.00  0.00    +0.000 A 
ATOM      6  C   UNL     1       2.502   5.822  18.118  0.00  0.00    +0.000 A 
ENDROOT
BRANCH   1  10
ATOM      7  C   UNL     1       0.950   9.620  19.668  0.00  0.00    +0.000 A 
ATOM      8  N   UNL     1       0.946  10.109  18.439  0.00  0.00    +0.000 NA
ATOM      9  N   UNL     1       1.705   9.273  17.653  0.00  0.00    +0.000 NA
ATOM     10  C   UNL     1       2.151   8.281  18.393  0.00  0.00    +0.000 A 
ATOM     11  N   UNL     1       1.700   8.477  19.678  0.00  0.00    +0.000 N 
ATOM     12  H   UNL     1       1.877   7.875  20.473  0.00  0.00    +0.000 HD
BRANCH   7  14
ATOM     13  C   UNL     1      -1.077  11.433  20.352  0.00  0.00    +0.000 C 
ATOM     14  S   UNL     1       0.136  10.350  21.045  0.00  0.00    +0.000 S 
ATOM     15  O   UNL     1       1.132  11.128  21.720  0.00  0.00    +0.000 OA
ATOM     16  O   UNL     1      -0.560   9.250  21.709  0.00  0.00    +0.000 OA
ENDBRANCH   7  14
ENDBRANCH   1  10
BRANCH   4  17
ATOM     17  O   UNL     1       5.205   3.923  16.456  0.00  0.00    +0.000 OA
BRANCH  17  18
ATOM     18  C   UNL     1       6.543   4.330  16.063  0.00  0.00    +0.000 C 
BRANCH  18  19
ATOM     19  C   UNL     1       6.657   4.349  14.562  0.00  0.00    +0.000 A 
ATOM     20  C   UNL     1       5.864   3.503  13.779  0.00  0.00    +0.000 A 
ATOM     21  C   UNL     1       6.053   3.441  12.398  0.00  0.00    +0.000 A 
ATOM     22  C   UNL     1       7.006   4.255  11.785  0.00  0.00    +0.000 A 
ATOM     23  C   UNL     1       7.767   5.134  12.553  0.00  0.00    +0.000 A 
ATOM     24  C   UNL     1       7.597   5.181  13.936  0.00  0.00    +0.000 A 
ENDBRANCH  18  19
ENDBRANCH  17  18
ENDBRANCH   4  17
TORSDOF 5
ENDMDL
MODEL 9
REMARK VINA RESULT:      -7.5      6.069      8.220
REMARK  Name = 
REMARK  6 active torsions:
REMARK  status: ('A' for Active; 'I' for Inactive)
REMARK    1  A    between atoms: C_1  and  S_2
REMARK    2  A    between atoms: S_2  and  C_5
REMARK    3  A    between atoms: C_8  and  C_9
REMARK    4  A    between atoms: C_12  and  O_13
REMARK    5  A    between atoms: O_13  and  C_14
REMARK    6  A    between atoms: C_14  and  C_15
REMARK                            x       y       z     vdW  Elec       q    Type
REMARK                         _______ _______ _______ _____ _____    ______ ____
ROOT
ATOM      1  C   UNL     1       2.312   7.581  18.941  0.00  0.00    +0.000 A 
ATOM      2  C   UNL     1       2.323   8.434  17.824  0.00  0.00    +0.000 A 
ATOM      3  C   UNL     1       1.695   9.664  17.882  0.00  0.00    +0.000 A 
ATOM      4  C   UNL     1       0.992  10.072  19.010  0.00  0.00    +0.000 A 
ATOM      5  C   UNL     1       0.972   9.232  20.136  0.00  0.00    +0.000 A 
ATOM      6  C   UNL     1       1.624   7.990  20.083  0.00  0.00    +0.000 A 
ENDROOT
BRANCH   1  10
ATOM      7  C   UNL     1       3.696   4.254  19.320  0.00  0.00    +0.000 A 
ATOM      8  N   UNL     1       4.609   4.816  18.544  0.00  0.00    +0.000 NA
ATOM      9  N   UNL     1       4.201   6.103  18.281  0.00  0.00    +0.000 NA
ATOM     10  C   UNL     1       3.063   6.325  18.900  0.00  0.00    +0.000 A 
ATOM     11  N   UNL     1       2.709   5.169  19.560  0.00  0.00    +0.000 N 
ATOM     12  H   UNL     1       1.883   5.035  20.129  0.00  0.00    +0.000 HD
BRANCH   7  14
ATOM     13  C   UNL     1       3.385   1.587  18.513  0.00  0.00    +0.000 C 
ATOM     14  S   UNL     1       3.757   2.601  19.913  0.00  0.00    +0.000 S 
ATOM     15  O   UNL     1       2.694   2.490  20.870  0.00  0.00    +0.000 OA
ATOM     16  O   UNL     1       5.151   2.374  20.284  0.00  0.00    +0.000 OA
ENDBRANCH   7  14
ENDBRANCH   1  10
BRANCH   4  17
ATOM     17  O   UNL     1       0.342  11.290  19.015  0.00  0.00    +0.000 OA
BRANCH  17  18
ATOM     18  C   UNL     1      -0.999  11.215  19.567  0.00  0.00    +0.000 C 
BRANCH  18  19
ATOM     19  C   UNL     1      -2.001  11.002  18.464  0.00  0.00    +0.000 A 
ATOM     20  C   UNL     1      -1.733  10.102  17.426  0.00  0.00    +0.000 A 
ATOM     21  C   UNL     1      -2.611   9.992  16.348  0.00  0.00    +0.000 A 
ATOM     22  C   UNL     1      -3.783  10.749  16.318  0.00  0.00    +0.000 A 
ATOM     23  C   UNL     1      -4.079  11.612  17.371  0.00  0.00    +0.000 A 
ATOM     24  C   UNL     1      -3.192  11.742  18.439  0.00  0.00    +0.000 A 
ENDBRANCH  18  19
ENDBRANCH  17  18
ENDBRANCH   4  17
TORSDOF 5
ENDMDL
