MODEL 1
REMARK VINA RESULT:      -7.8      0.000      0.000
REMARK  Name = 
REMARK  6 active torsions:
REMARK  status: ('A' for Active; 'I' for Inactive)
REMARK    1  A    between atoms: C_1  and  O_2
REMARK    2  A    between atoms: O_2  and  C_3
REMARK    3  A    between atoms: C_7  and  N_8
REMARK    4  A    between atoms: C_9  and  C_11
REMARK    5  A    between atoms: C_16  and  N_17
REMARK    6  A    between atoms: C_18  and  C_20
REMARK                            x       y       z     vdW  Elec       q    Type
REMARK                         _______ _______ _______ _____ _____    ______ ____
ROOT
ATOM      1  C   UNL     1       5.210   5.603  16.292  0.00  0.00    +0.000 A 
ATOM      2  C   UNL     1       5.791   5.998  15.067  0.00  0.00    +0.000 A 
ATOM      3  C   UNL     1       6.302   5.054  14.178  0.00  0.00    +0.000 A 
ATOM      4  C   UNL     1       6.209   3.706  14.487  0.00  0.00    +0.000 A 
ATOM      5  C   UNL     1       5.603   3.301  15.678  0.00  0.00    +0.000 A 
ATOM      6  C   UNL     1       5.104   4.227  16.610  0.00  0.00    +0.000 A 
ENDROOT
BRANCH   1   8
ATOM      7  N   UNL     1       3.318   6.714  17.363  0.00  0.00    +0.000 N 
ATOM      8  C   UNL     1       4.700   6.670  17.209  0.00  0.00    +0.000 C 
ATOM      9  O   UNL     1       5.510   7.442  17.713  0.00  0.00    +0.000 OA
ATOM     10  H   UNL     1       2.761   6.220  16.677  0.00  0.00    +0.000 HD
BRANCH   7  15
ATOM     11  C   UNL     1       1.301   9.479  18.793  0.00  0.00    +0.000 A 
ATOM     12  C   UNL     1       1.102   9.032  20.101  0.00  0.00    +0.000 A 
ATOM     13  C   UNL     1       1.641   7.816  20.515  0.00  0.00    +0.000 A 
ATOM     14  C   UNL     1       2.384   7.039  19.623  0.00  0.00    +0.000 A 
ATOM     15  C   UNL     1       2.590   7.470  18.312  0.00  0.00    +0.000 A 
ATOM     16  C   UNL     1       2.018   8.686  17.894  0.00  0.00    +0.000 A 
BRANCH  11  18
ATOM     17  C   UNL     1       0.808  11.679  19.513  0.00  0.00    +0.000 C 
ATOM     18  O   UNL     1       0.712  10.681  18.505  0.00  0.00    +0.000 OA
ENDBRANCH  11  18
ENDBRANCH   7  15
ENDBRANCH   1   8
BRANCH   6  19
ATOM     19  N   UNL     1       4.495   3.783  17.822  0.00  0.00    +0.000 N 
ATOM     20  C   UNL     1       3.142   3.515  17.985  0.00  0.00    +0.000 C 
ATOM     21  O   UNL     1       2.299   3.522  17.091  0.00  0.00    +0.000 OA
ATOM     22  H   UNL     1       5.144   3.553  18.578  0.00  0.00    +0.000 HD
BRANCH  20  23
ATOM     23  C   UNL     1       2.659   3.126  19.336  0.00  0.00    +0.000 A 
ATOM     24  C   UNL     1       3.491   2.606  20.322  0.00  0.00    +0.000 A 
ATOM     25  C   UNL     1       2.928   2.358  21.565  0.00  0.00    +0.000 A 
ATOM     26  N   UNL     1       1.629   2.580  21.871  0.00  0.00    +0.000 NA
ATOM     27  C   UNL     1       0.851   3.097  20.899  0.00  0.00    +0.000 A 
ATOM     28  C   UNL     1       1.316   3.388  19.633  0.00  0.00    +0.000 A 
ENDBRANCH  20  23
ENDBRANCH   6  19
TORSDOF 5
ENDMDL
MODEL 2
REMARK VINA RESULT:      -7.5      0.958      1.763
REMARK  Name = 
REMARK  6 active torsions:
REMARK  status: ('A' for Active; 'I' for Inactive)
REMARK    1  A    between atoms: C_1  and  O_2
REMARK    2  A    between atoms: O_2  and  C_3
REMARK    3  A    between atoms: C_7  and  N_8
REMARK    4  A    between atoms: C_9  and  C_11
REMARK    5  A    between atoms: C_16  and  N_17
REMARK    6  A    between atoms: C_18  and  C_20
REMARK                            x       y       z     vdW  Elec       q    Type
REMARK                         _______ _______ _______ _____ _____    ______ ____
ROOT
ATOM      1  C   UNL     1       5.204   5.715  16.318  0.00  0.00    +0.000 A 
ATOM      2  C   UNL     1       5.819   6.054  15.094  0.00  0.00    +0.000 A 
ATOM      3  C   UNL     1       6.322   5.067  14.246  0.00  0.00    +0.000 A 
ATOM      4  C   UNL     1       6.184   3.733  14.596  0.00  0.00    +0.000 A 
ATOM      5  C   UNL     1       5.543   3.385  15.787  0.00  0.00    +0.000 A 
ATOM      6  C   UNL     1       5.053   4.354  16.678  0.00  0.00    +0.000 A 
ENDROOT
BRANCH   1   8
ATOM      7  N   UNL     1       3.340   7.083  17.106  0.00  0.00    +0.000 N 
ATOM      8  C   UNL     1       4.705   6.826  17.189  0.00  0.00    +0.000 C 
ATOM      9  O   UNL     1       5.520   7.447  17.865  0.00  0.00    +0.000 OA
ATOM     10  H   UNL     1       2.847   6.701  16.309  0.00  0.00    +0.000 HD
BRANCH   7  15
ATOM     11  C   UNL     1       1.519   8.235  20.124  0.00  0.00    +0.000 A 
ATOM     12  C   UNL     1       1.103   9.508  19.731  0.00  0.00    +0.000 A 
ATOM     13  C   UNL     1       1.419   9.986  18.461  0.00  0.00    +0.000 A 
ATOM     14  C   UNL     1       2.153   9.193  17.576  0.00  0.00    +0.000 A 
ATOM     15  C   UNL     1       2.578   7.919  17.955  0.00  0.00    +0.000 A 
ATOM     16  C   UNL     1       2.280   7.456  19.250  0.00  0.00    +0.000 A 
BRANCH  11  18
ATOM     17  C   UNL     1      -0.002   8.525  21.914  0.00  0.00    +0.000 C 
ATOM     18  O   UNL     1       1.158   7.885  21.398  0.00  0.00    +0.000 OA
ENDBRANCH  11  18
ENDBRANCH   7  15
ENDBRANCH   1   8
BRANCH   6  19
ATOM     19  N   UNL     1       4.407   3.967  17.891  0.00  0.00    +0.000 N 
ATOM     20  C   UNL     1       3.061   3.649  18.013  0.00  0.00    +0.000 C 
ATOM     21  O   UNL     1       2.261   3.556  17.085  0.00  0.00    +0.000 OA
ATOM     22  H   UNL     1       5.029   3.820  18.689  0.00  0.00    +0.000 HD
BRANCH  20  23
ATOM     23  C   UNL     1       2.532   3.332  19.366  0.00  0.00    +0.000 A 
ATOM     24  C   UNL     1       1.182   3.403  19.692  0.00  0.00    +0.000 A 
ATOM     25  C   UNL     1       0.813   3.004  20.968  0.00  0.00    +0.000 A 
ATOM     26  N   UNL     1       1.680   2.562  21.909  0.00  0.00    +0.000 NA
ATOM     27  C   UNL     1       2.979   2.491  21.558  0.00  0.00    +0.000 A 
ATOM     28  C   UNL     1       3.447   2.855  20.312  0.00  0.00    +0.000 A 
ENDBRANCH  20  23
ENDBRANCH   6  19
TORSDOF 5
ENDMDL
MODEL 3
REMARK VINA RESULT:      -7.5      1.784      5.076
REMARK  Name = 
REMARK  6 active torsions:
REMARK  status: ('A' for Active; 'I' for Inactive)
REMARK    1  A    between atoms: C_1  and  O_2
REMARK    2  A    between atoms: O_2  and  C_3
REMARK    3  A    between atoms: C_7  and  N_8
REMARK    4  A    between atoms: C_9  and  C_11
REMARK    5  A    between atoms: C_16  and  N_17
REMARK    6  A    between atoms: C_18  and  C_20
REMARK                            x       y       z     vdW  Elec       q    Type
REMARK                         _______ _______ _______ _____ _____    ______ ____
ROOT
ATOM      1  C   UNL     1       2.290   4.355  20.024  0.00  0.00    +0.000 A 
ATOM      2  C   UNL     1       1.401   3.869  21.007  0.00  0.00    +0.000 A 
ATOM      3  C   UNL     1       1.695   2.717  21.734  0.00  0.00    +0.000 A 
ATOM      4  C   UNL     1       2.894   2.058  21.512  0.00  0.00    +0.000 A 
ATOM      5  C   UNL     1       3.798   2.551  20.569  0.00  0.00    +0.000 A 
ATOM      6  C   UNL     1       3.520   3.692  19.798  0.00  0.00    +0.000 A 
ENDROOT
BRANCH   1   8
ATOM      7  N   UNL     1       1.822   6.752  20.022  0.00  0.00    +0.000 N 
ATOM      8  C   UNL     1       1.901   5.586  19.267  0.00  0.00    +0.000 C 
ATOM      9  O   UNL     1       1.642   5.478  18.071  0.00  0.00    +0.000 OA
ATOM     10  H   UNL     1       1.775   6.647  21.028  0.00  0.00    +0.000 HD
BRANCH   7  15
ATOM     11  C   UNL     1       0.855  10.331  19.917  0.00  0.00    +0.000 A 
ATOM     12  C   UNL     1       1.384  10.728  18.688  0.00  0.00    +0.000 A 
ATOM     13  C   UNL     1       2.058   9.808  17.886  0.00  0.00    +0.000 A 
ATOM     14  C   UNL     1       2.205   8.485  18.309  0.00  0.00    +0.000 A 
ATOM     15  C   UNL     1       1.684   8.073  19.536  0.00  0.00    +0.000 A 
ATOM     16  C   UNL     1       1.031   9.016  20.353  0.00  0.00    +0.000 A 
BRANCH  11  18
ATOM     17  C   UNL     1      -0.774  12.048  19.910  0.00  0.00    +0.000 C 
ATOM     18  O   UNL     1       0.228  11.328  20.616  0.00  0.00    +0.000 OA
ENDBRANCH  11  18
ENDBRANCH   7  15
ENDBRANCH   1   8
BRANCH   6  19
ATOM     19  N   UNL     1       4.462   4.168  18.836  0.00  0.00    +0.000 N 
ATOM     20  C   UNL     1       4.507   3.781  17.503  0.00  0.00    +0.000 C 
ATOM     21  O   UNL     1       3.687   3.061  16.939  0.00  0.00    +0.000 OA
ATOM     22  H   UNL     1       5.068   4.926  19.157  0.00  0.00    +0.000 HD
BRANCH  20  23
ATOM     23  C   UNL     1       5.598   4.322  16.650  0.00  0.00    +0.000 A 
ATOM     24  C   UNL     1       5.862   3.856  15.366  0.00  0.00    +0.000 A 
ATOM     25  C   UNL     1       6.858   4.501  14.647  0.00  0.00    +0.000 A 
ATOM     26  N   UNL     1       7.586   5.540  15.117  0.00  0.00    +0.000 NA
ATOM     27  C   UNL     1       7.296   5.978  16.358  0.00  0.00    +0.000 A 
ATOM     28  C   UNL     1       6.319   5.412  17.151  0.00  0.00    +0.000 A 
ENDBRANCH  20  23
ENDBRANCH   6  19
TORSDOF 5
ENDMDL
MODEL 4
REMARK VINA RESULT:      -7.5      1.867      5.129
REMARK  Name = 
REMARK  6 active torsions:
REMARK  status: ('A' for Active; 'I' for Inactive)
REMARK    1  A    between atoms: C_1  and  O_2
REMARK    2  A    between atoms: O_2  and  C_3
REMARK    3  A    between atoms: C_7  and  N_8
REMARK    4  A    between atoms: C_9  and  C_11
REMARK    5  A    between atoms: C_16  and  N_17
REMARK    6  A    between atoms: C_18  and  C_20
REMARK                            x       y       z     vdW  Elec       q    Type
REMARK                         _______ _______ _______ _____ _____    ______ ____
ROOT
ATOM      1  C   UNL     1       2.813   4.895  20.160  0.00  0.00    +0.000 A 
ATOM      2  C   UNL     1       1.971   4.526  21.232  0.00  0.00    +0.000 A 
ATOM      3  C   UNL     1       1.987   3.228  21.742  0.00  0.00    +0.000 A 
ATOM      4  C   UNL     1       2.867   2.298  21.212  0.00  0.00    +0.000 A 
ATOM      5  C   UNL     1       3.731   2.663  20.177  0.00  0.00    +0.000 A 
ATOM      6  C   UNL     1       3.720   3.952  19.620  0.00  0.00    +0.000 A 
ENDROOT
BRANCH   1   8
ATOM      7  N   UNL     1       1.616   7.022  20.066  0.00  0.00    +0.000 N 
ATOM      8  C   UNL     1       2.729   6.299  19.648  0.00  0.00    +0.000 C 
ATOM      9  O   UNL     1       3.602   6.692  18.879  0.00  0.00    +0.000 OA
ATOM     10  H   UNL     1       0.842   6.495  20.452  0.00  0.00    +0.000 HD
BRANCH   7  15
ATOM     11  C   UNL     1       0.832  10.537  20.953  0.00  0.00    +0.000 A 
ATOM     12  C   UNL     1       0.965  11.173  19.718  0.00  0.00    +0.000 A 
ATOM     13  C   UNL     1       1.309  10.438  18.585  0.00  0.00    +0.000 A 
ATOM     14  C   UNL     1       1.521   9.061  18.681  0.00  0.00    +0.000 A 
ATOM     15  C   UNL     1       1.394   8.410  19.909  0.00  0.00    +0.000 A 
ATOM     16  C   UNL     1       1.075   9.165  21.053  0.00  0.00    +0.000 A 
BRANCH  11  18
ATOM     17  C   UNL     1      -0.738  11.105  22.630  0.00  0.00    +0.000 C 
ATOM     18  O   UNL     1       0.503  11.369  21.990  0.00  0.00    +0.000 OA
ENDBRANCH  11  18
ENDBRANCH   7  15
ENDBRANCH   1   8
BRANCH   6  19
ATOM     19  N   UNL     1       4.611   4.294  18.558  0.00  0.00    +0.000 N 
ATOM     20  C   UNL     1       4.424   3.965  17.221  0.00  0.00    +0.000 C 
ATOM     21  O   UNL     1       3.424   3.429  16.750  0.00  0.00    +0.000 OA
ATOM     22  H   UNL     1       5.380   4.916  18.816  0.00  0.00    +0.000 HD
BRANCH  20  23
ATOM     23  C   UNL     1       5.485   4.338  16.250  0.00  0.00    +0.000 A 
ATOM     24  C   UNL     1       5.470   3.943  14.916  0.00  0.00    +0.000 A 
ATOM     25  C   UNL     1       6.480   4.425  14.097  0.00  0.00    +0.000 A 
ATOM     26  N   UNL     1       7.474   5.243  14.514  0.00  0.00    +0.000 NA
ATOM     27  C   UNL     1       7.454   5.620  15.808  0.00  0.00    +0.000 A 
ATOM     28  C   UNL     1       6.489   5.203  16.702  0.00  0.00    +0.000 A 
ENDBRANCH  20  23
ENDBRANCH   6  19
TORSDOF 5
ENDMDL
MODEL 5
REMARK VINA RESULT:      -7.4      1.774      5.086
REMARK  Name = 
REMARK  6 active torsions:
REMARK  status: ('A' for Active; 'I' for Inactive)
REMARK    1  A    between atoms: C_1  and  O_2
REMARK    2  A    between atoms: O_2  and  C_3
REMARK    3  A    between atoms: C_7  and  N_8
REMARK    4  A    between atoms: C_9  and  C_11
REMARK    5  A    between atoms: C_16  and  N_17
REMARK    6  A    between atoms: C_18  and  C_20
REMARK                            x       y       z     vdW  Elec       q    Type
REMARK                         _______ _______ _______ _____ _____    ______ ____
ROOT
ATOM      1  C   UNL     1       2.496   4.362  19.925  0.00  0.00    +0.000 A 
ATOM      2  C   UNL     1       1.882   4.112  21.172  0.00  0.00    +0.000 A 
ATOM      3  C   UNL     1       2.202   2.976  21.913  0.00  0.00    +0.000 A 
ATOM      4  C   UNL     1       3.161   2.097  21.435  0.00  0.00    +0.000 A 
ATOM      5  C   UNL     1       3.802   2.353  20.222  0.00  0.00    +0.000 A 
ATOM      6  C   UNL     1       3.483   3.472  19.435  0.00  0.00    +0.000 A 
ENDROOT
BRANCH   1   8
ATOM      7  N   UNL     1       1.925   6.736  19.944  0.00  0.00    +0.000 N 
ATOM      8  C   UNL     1       2.091   5.591  19.172  0.00  0.00    +0.000 C 
ATOM      9  O   UNL     1       1.895   5.496  17.964  0.00  0.00    +0.000 OA
ATOM     10  H   UNL     1       1.833   6.609  20.944  0.00  0.00    +0.000 HD
BRANCH   7  15
ATOM     11  C   UNL     1       0.862  10.289  19.885  0.00  0.00    +0.000 A 
ATOM     12  C   UNL     1       1.384  10.717  18.663  0.00  0.00    +0.000 A 
ATOM     13  C   UNL     1       2.085   9.828  17.851  0.00  0.00    +0.000 A 
ATOM     14  C   UNL     1       2.266   8.503  18.256  0.00  0.00    +0.000 A 
ATOM     15  C   UNL     1       1.753   8.060  19.476  0.00  0.00    +0.000 A 
ATOM     16  C   UNL     1       1.072   8.973  20.303  0.00  0.00    +0.000 A 
BRANCH  11  18
ATOM     17  C   UNL     1       0.764  12.564  20.530  0.00  0.00    +0.000 C 
ATOM     18  O   UNL     1       0.206  11.259  20.596  0.00  0.00    +0.000 OA
ENDBRANCH  11  18
ENDBRANCH   7  15
ENDBRANCH   1   8
BRANCH   6  19
ATOM     19  N   UNL     1       4.152   3.705  18.195  0.00  0.00    +0.000 N 
ATOM     20  C   UNL     1       5.432   4.226  18.064  0.00  0.00    +0.000 C 
ATOM     21  O   UNL     1       6.206   4.462  18.988  0.00  0.00    +0.000 OA
ATOM     22  H   UNL     1       3.668   3.354  17.365  0.00  0.00    +0.000 HD
BRANCH  20  23
ATOM     23  C   UNL     1       5.956   4.470  16.694  0.00  0.00    +0.000 A 
ATOM     24  C   UNL     1       7.252   4.910  16.442  0.00  0.00    +0.000 A 
ATOM     25  C   UNL     1       7.639   5.022  15.114  0.00  0.00    +0.000 A 
ATOM     26  N   UNL     1       6.837   4.740  14.061  0.00  0.00    +0.000 NA
ATOM     27  C   UNL     1       5.593   4.302  14.338  0.00  0.00    +0.000 A 
ATOM     28  C   UNL     1       5.115   4.148  15.623  0.00  0.00    +0.000 A 
ENDBRANCH  20  23
ENDBRANCH   6  19
TORSDOF 5
ENDMDL
MODEL 6
REMARK VINA RESULT:      -7.4      2.074      5.228
REMARK  Name = 
REMARK  6 active torsions:
REMARK  status: ('A' for Active; 'I' for Inactive)
REMARK    1  A    between atoms: C_1  and  O_2
REMARK    2  A    between atoms: O_2  and  C_3
REMARK    3  A    between atoms: C_7  and  N_8
REMARK    4  A    between atoms: C_9  and  C_11
REMARK    5  A    between atoms: C_16  and  N_17
REMARK    6  A    between atoms: C_18  and  C_20
REMARK                            x       y       z     vdW  Elec       q    Type
REMARK                         _______ _______ _______ _____ _____    ______ ____
ROOT
ATOM      1  C   UNL     1       2.517   4.700  20.298  0.00  0.00    +0.000 A 
ATOM      2  C   UNL     1       1.689   4.163  21.308  0.00  0.00    +0.000 A 
ATOM      3  C   UNL     1       1.902   2.876  21.801  0.00  0.00    +0.000 A 
ATOM      4  C   UNL     1       2.961   2.127  21.316  0.00  0.00    +0.000 A 
ATOM      5  C   UNL     1       3.809   2.661  20.344  0.00  0.00    +0.000 A 
ATOM      6  C   UNL     1       3.606   3.942  19.804  0.00  0.00    +0.000 A 
ENDROOT
BRANCH   1   8
ATOM      7  N   UNL     1       1.488   6.883  20.669  0.00  0.00    +0.000 N 
ATOM      8  C   UNL     1       2.220   6.080  19.801  0.00  0.00    +0.000 C 
ATOM      9  O   UNL     1       2.594   6.386  18.672  0.00  0.00    +0.000 OA
ATOM     10  H   UNL     1       1.001   6.419  21.427  0.00  0.00    +0.000 HD
BRANCH   7  15
ATOM     11  C   UNL     1       0.573  10.347  21.627  0.00  0.00    +0.000 A 
ATOM     12  C   UNL     1       0.780  11.033  20.430  0.00  0.00    +0.000 A 
ATOM     13  C   UNL     1       1.218  10.348  19.298  0.00  0.00    +0.000 A 
ATOM     14  C   UNL     1       1.450   8.972  19.358  0.00  0.00    +0.000 A 
ATOM     15  C   UNL     1       1.250   8.272  20.548  0.00  0.00    +0.000 A 
ATOM     16  C   UNL     1       0.835   8.977  21.694  0.00  0.00    +0.000 A 
BRANCH  11  18
ATOM     17  C   UNL     1      -1.223  11.039  23.005  0.00  0.00    +0.000 C 
ATOM     18  O   UNL     1       0.155  11.132  22.669  0.00  0.00    +0.000 OA
ENDBRANCH  11  18
ENDBRANCH   7  15
ENDBRANCH   1   8
BRANCH   6  19
ATOM     19  N   UNL     1       4.487   4.460  18.806  0.00  0.00    +0.000 N 
ATOM     20  C   UNL     1       4.490   4.081  17.470  0.00  0.00    +0.000 C 
ATOM     21  O   UNL     1       3.676   3.331  16.937  0.00  0.00    +0.000 OA
ATOM     22  H   UNL     1       5.076   5.240  19.105  0.00  0.00    +0.000 HD
BRANCH  20  23
ATOM     23  C   UNL     1       5.521   4.667  16.574  0.00  0.00    +0.000 A 
ATOM     24  C   UNL     1       6.368   5.700  16.962  0.00  0.00    +0.000 A 
ATOM     25  C   UNL     1       7.339   6.103  16.056  0.00  0.00    +0.000 A 
ATOM     26  N   UNL     1       7.505   5.561  14.827  0.00  0.00    +0.000 NA
ATOM     27  C   UNL     1       6.678   4.553  14.486  0.00  0.00    +0.000 A 
ATOM     28  C   UNL     1       5.687   4.073  15.317  0.00  0.00    +0.000 A 
ENDBRANCH  20  23
ENDBRANCH   6  19
TORSDOF 5
ENDMDL
MODEL 7
REMARK VINA RESULT:      -7.2      1.013      1.013
REMARK  Name = 
REMARK  6 active torsions:
REMARK  status: ('A' for Active; 'I' for Inactive)
REMARK    1  A    between atoms: C_1  and  O_2
REMARK    2  A    between atoms: O_2  and  C_3
REMARK    3  A    between atoms: C_7  and  N_8
REMARK    4  A    between atoms: C_9  and  C_11
REMARK    5  A    between atoms: C_16  and  N_17
REMARK    6  A    between atoms: C_18  and  C_20
REMARK                            x       y       z     vdW  Elec       q    Type
REMARK                         _______ _______ _______ _____ _____    ______ ____
ROOT
ATOM      1  C   UNL     1       5.130   5.749  16.320  0.00  0.00    +0.000 A 
ATOM      2  C   UNL     1       5.998   6.093  15.260  0.00  0.00    +0.000 A 
ATOM      3  C   UNL     1       6.541   5.112  14.431  0.00  0.00    +0.000 A 
ATOM      4  C   UNL     1       6.196   3.784  14.629  0.00  0.00    +0.000 A 
ATOM      5  C   UNL     1       5.309   3.437  15.650  0.00  0.00    +0.000 A 
ATOM      6  C   UNL     1       4.767   4.396  16.523  0.00  0.00    +0.000 A 
ENDROOT
BRANCH   1   8
ATOM      7  N   UNL     1       3.226   6.833  17.399  0.00  0.00    +0.000 N 
ATOM      8  C   UNL     1       4.600   6.851  17.183  0.00  0.00    +0.000 C 
ATOM      9  O   UNL     1       5.388   7.698  17.596  0.00  0.00    +0.000 OA
ATOM     10  H   UNL     1       2.669   6.263  16.774  0.00  0.00    +0.000 HD
BRANCH   7  15
ATOM     11  C   UNL     1       1.117   9.579  18.727  0.00  0.00    +0.000 A 
ATOM     12  C   UNL     1       1.003   9.220  20.071  0.00  0.00    +0.000 A 
ATOM     13  C   UNL     1       1.632   8.070  20.543  0.00  0.00    +0.000 A 
ATOM     14  C   UNL     1       2.378   7.271  19.673  0.00  0.00    +0.000 A 
ATOM     15  C   UNL     1       2.499   7.615  18.326  0.00  0.00    +0.000 A 
ATOM     16  C   UNL     1       1.837   8.763  17.852  0.00  0.00    +0.000 A 
BRANCH  11  18
ATOM     17  C   UNL     1      -0.942  10.571  18.111  0.00  0.00    +0.000 C 
ATOM     18  O   UNL     1       0.445  10.722  18.384  0.00  0.00    +0.000 OA
ENDBRANCH  11  18
ENDBRANCH   7  15
ENDBRANCH   1   8
BRANCH   6  19
ATOM     19  N   UNL     1       3.867   4.009  17.562  0.00  0.00    +0.000 N 
ATOM     20  C   UNL     1       4.238   3.692  18.862  0.00  0.00    +0.000 C 
ATOM     21  O   UNL     1       5.369   3.798  19.329  0.00  0.00    +0.000 OA
ATOM     22  H   UNL     1       2.875   4.082  17.329  0.00  0.00    +0.000 HD
BRANCH  20  23
ATOM     23  C   UNL     1       3.181   3.242  19.805  0.00  0.00    +0.000 A 
ATOM     24  C   UNL     1       3.453   2.534  20.971  0.00  0.00    +0.000 A 
ATOM     25  C   UNL     1       2.382   2.242  21.804  0.00  0.00    +0.000 A 
ATOM     26  N   UNL     1       1.100   2.595  21.548  0.00  0.00    +0.000 NA
ATOM     27  C   UNL     1       0.871   3.292  20.418  0.00  0.00    +0.000 A 
ATOM     28  C   UNL     1       1.868   3.640  19.528  0.00  0.00    +0.000 A 
ENDBRANCH  20  23
ENDBRANCH   6  19
TORSDOF 5
ENDMDL
MODEL 8
REMARK VINA RESULT:      -7.2      3.816      7.193
REMARK  Name = 
REMARK  6 active torsions:
REMARK  status: ('A' for Active; 'I' for Inactive)
REMARK    1  A    between atoms: C_1  and  O_2
REMARK    2  A    between atoms: O_2  and  C_3
REMARK    3  A    between atoms: C_7  and  N_8
REMARK    4  A    between atoms: C_9  and  C_11
REMARK    5  A    between atoms: C_16  and  N_17
REMARK    6  A    between atoms: C_18  and  C_20
REMARK                            x       y       z     vdW  Elec       q    Type
REMARK                         _______ _______ _______ _____ _____    ______ ____
ROOT
ATOM      1  C   UNL     1      -0.165   9.999  20.615  0.00  0.00    +0.000 A 
ATOM      2  C   UNL     1      -0.855  10.627  21.676  0.00  0.00    +0.000 A 
ATOM      3  C   UNL     1      -0.524  10.360  23.003  0.00  0.00    +0.000 A 
ATOM      4  C   UNL     1       0.519   9.491  23.285  0.00  0.00    +0.000 A 
ATOM      5  C   UNL     1       1.232   8.894  22.244  0.00  0.00    +0.000 A 
ATOM      6  C   UNL     1       0.906   9.117  20.896  0.00  0.00    +0.000 A 
ENDROOT
BRANCH   1   8
ATOM      7  N   UNL     1      -1.918  10.050  18.916  0.00  0.00    +0.000 N 
ATOM      8  C   UNL     1      -0.586  10.316  19.214  0.00  0.00    +0.000 C 
ATOM      9  O   UNL     1       0.262  10.737  18.432  0.00  0.00    +0.000 OA
ATOM     10  H   UNL     1      -2.421   9.444  19.552  0.00  0.00    +0.000 HD
BRANCH   7  15
ATOM     11  C   UNL     1      -2.849  10.299  15.334  0.00  0.00    +0.000 A 
ATOM     12  C   UNL     1      -3.973  11.124  15.393  0.00  0.00    +0.000 A 
ATOM     13  C   UNL     1      -4.423  11.606  16.621  0.00  0.00    +0.000 A 
ATOM     14  C   UNL     1      -3.750  11.266  17.797  0.00  0.00    +0.000 A 
ATOM     15  C   UNL     1      -2.626  10.441  17.754  0.00  0.00    +0.000 A 
ATOM     16  C   UNL     1      -2.196   9.934  16.514  0.00  0.00    +0.000 A 
BRANCH  11  18
ATOM     17  C   UNL     1      -3.585   9.789  13.143  0.00  0.00    +0.000 C 
ATOM     18  O   UNL     1      -2.514   9.881  14.073  0.00  0.00    +0.000 OA
ENDBRANCH  11  18
ENDBRANCH   7  15
ENDBRANCH   1   8
BRANCH   6  19
ATOM     19  N   UNL     1       1.650   8.487  19.853  0.00  0.00    +0.000 N 
ATOM     20  C   UNL     1       2.003   7.144  19.823  0.00  0.00    +0.000 C 
ATOM     21  O   UNL     1       1.640   6.291  20.630  0.00  0.00    +0.000 OA
ATOM     22  H   UNL     1       1.832   9.069  19.032  0.00  0.00    +0.000 HD
BRANCH  20  23
ATOM     23  C   UNL     1       2.840   6.661  18.694  0.00  0.00    +0.000 A 
ATOM     24  C   UNL     1       3.506   7.514  17.820  0.00  0.00    +0.000 A 
ATOM     25  C   UNL     1       4.318   6.933  16.857  0.00  0.00    +0.000 A 
ATOM     26  N   UNL     1       4.494   5.599  16.713  0.00  0.00    +0.000 NA
ATOM     27  C   UNL     1       3.848   4.799  17.584  0.00  0.00    +0.000 A 
ATOM     28  C   UNL     1       3.024   5.277  18.583  0.00  0.00    +0.000 A 
ENDBRANCH  20  23
ENDBRANCH   6  19
TORSDOF 5
ENDMDL
MODEL 9
REMARK VINA RESULT:      -7.2      3.359      8.350
REMARK  Name = 
REMARK  6 active torsions:
REMARK  status: ('A' for Active; 'I' for Inactive)
REMARK    1  A    between atoms: C_1  and  O_2
REMARK    2  A    between atoms: O_2  and  C_3
REMARK    3  A    between atoms: C_7  and  N_8
REMARK    4  A    between atoms: C_9  and  C_11
REMARK    5  A    between atoms: C_16  and  N_17
REMARK    6  A    between atoms: C_18  and  C_20
REMARK                            x       y       z     vdW  Elec       q    Type
REMARK                         _______ _______ _______ _____ _____    ______ ____
ROOT
ATOM      1  C   UNL     1       0.922   8.945  20.834  0.00  0.00    +0.000 A 
ATOM      2  C   UNL     1       1.580   8.842  22.079  0.00  0.00    +0.000 A 
ATOM      3  C   UNL     1       1.025   9.394  23.232  0.00  0.00    +0.000 A 
ATOM      4  C   UNL     1      -0.207  10.024  23.161  0.00  0.00    +0.000 A 
ATOM      5  C   UNL     1      -0.886  10.099  21.943  0.00  0.00    +0.000 A 
ATOM      6  C   UNL     1      -0.342   9.580  20.756  0.00  0.00    +0.000 A 
ENDROOT
BRANCH   1   8
ATOM      7  N   UNL     1       2.304   7.180  19.867  0.00  0.00    +0.000 N 
ATOM      8  C   UNL     1       1.584   8.347  19.633  0.00  0.00    +0.000 C 
ATOM      9  O   UNL     1       1.487   8.936  18.560  0.00  0.00    +0.000 OA
ATOM     10  H   UNL     1       2.541   6.969  20.828  0.00  0.00    +0.000 HD
BRANCH   7  15
ATOM     11  C   UNL     1       2.661   4.195  17.694  0.00  0.00    +0.000 A 
ATOM     12  C   UNL     1       3.812   4.511  16.971  0.00  0.00    +0.000 A 
ATOM     13  C   UNL     1       4.478   5.712  17.206  0.00  0.00    +0.000 A 
ATOM     14  C   UNL     1       3.996   6.604  18.166  0.00  0.00    +0.000 A 
ATOM     15  C   UNL     1       2.846   6.304  18.896  0.00  0.00    +0.000 A 
ATOM     16  C   UNL     1       2.163   5.102  18.632  0.00  0.00    +0.000 A 
BRANCH  11  18
ATOM     17  C   UNL     1       1.653   2.192  18.453  0.00  0.00    +0.000 C 
ATOM     18  O   UNL     1       2.092   2.993  17.364  0.00  0.00    +0.000 OA
ENDBRANCH  11  18
ENDBRANCH   7  15
ENDBRANCH   1   8
BRANCH   6  19
ATOM     19  N   UNL     1      -1.057   9.677  19.524  0.00  0.00    +0.000 N 
ATOM     20  C   UNL     1      -1.491  10.862  18.945  0.00  0.00    +0.000 C 
ATOM     21  O   UNL     1      -1.236  11.993  19.351  0.00  0.00    +0.000 OA
ATOM     22  H   UNL     1      -1.148   8.803  19.002  0.00  0.00    +0.000 HD
BRANCH  20  23
ATOM     23  C   UNL     1      -2.284  10.783  17.690  0.00  0.00    +0.000 A 
ATOM     24  C   UNL     1      -1.938   9.963  16.621  0.00  0.00    +0.000 A 
ATOM     25  C   UNL     1      -2.807   9.923  15.540  0.00  0.00    +0.000 A 
ATOM     26  N   UNL     1      -3.957  10.634  15.461  0.00  0.00    +0.000 NA
ATOM     27  C   UNL     1      -4.272  11.407  16.519  0.00  0.00    +0.000 A 
ATOM     28  C   UNL     1      -3.480  11.509  17.644  0.00  0.00    +0.000 A 
ENDBRANCH  20  23
ENDBRANCH   6  19
TORSDOF 5
ENDMDL
