MODEL 1
REMARK VINA RESULT:      -8.2      0.000      0.000
REMARK  Name = 
REMARK  2 active torsions:
REMARK  status: ('A' for Active; 'I' for Inactive)
REMARK    1  A    between atoms: C_1  and  N_2
REMARK    2  A    between atoms: C_9  and  C_10
REMARK                            x       y       z     vdW  Elec       q    Type
REMARK                         _______ _______ _______ _____ _____    ______ ____
ROOT
ATOM      1  C   UNL     1      -3.389  12.739  22.949  0.00  0.00    +0.000 C 
ATOM      2  N   UNL     1      -2.050  12.432  22.458  0.00  0.00    +0.000 NA
ATOM      3  C   UNL     1      -2.032  12.321  20.979  0.00  0.00    +0.000 C 
ATOM      4  C   UNL     1      -0.620  11.989  20.424  0.00  0.00    +0.000 C 
ATOM      5  N   UNL     1      -0.115  10.792  21.088  0.00  0.00    +0.000 N 
ATOM      6  C   UNL     1       0.654   9.864  20.437  0.00  0.00    +0.000 A 
ATOM      7  N   UNL     1       0.945  10.025  19.135  0.00  0.00    +0.000 NA
ATOM      8  C   UNL     1       1.647   9.042  18.524  0.00  0.00    +0.000 A 
ATOM      9  C   UNL     1       2.058   7.884  19.144  0.00  0.00    +0.000 A 
ATOM     10  C   UNL     1       1.712   7.809  20.471  0.00  0.00    +0.000 A 
ATOM     11  N   UNL     1       1.032   8.774  21.124  0.00  0.00    +0.000 NA
ATOM     12  C   UNL     1      -0.139  10.815  22.549  0.00  0.00    +0.000 C 
ATOM     13  C   UNL     1      -1.564  11.156  23.033  0.00  0.00    +0.000 C 
ENDROOT
BRANCH   9  14
ATOM     14  C   UNL     1       2.814   6.830  18.475  0.00  0.00    +0.000 A 
ATOM     15  C   UNL     1       3.679   7.127  17.494  0.00  0.00    +0.000 A 
ATOM     16  C   UNL     1       4.428   6.047  16.843  0.00  0.00    +0.000 A 
ATOM     17  C   UNL     1       5.333   6.318  15.811  0.00  0.00    +0.000 A 
ATOM     18  C   UNL     1       6.029   5.273  15.196  0.00  0.00    +0.000 A 
ATOM     19  C   UNL     1       5.826   3.954  15.606  0.00  0.00    +0.000 A 
ATOM     20  C   UNL     1       4.929   3.674  16.637  0.00  0.00    +0.000 A 
ATOM     21  C   UNL     1       4.234   4.718  17.253  0.00  0.00    +0.000 A 
ATOM     22  C   UNL     1       3.274   4.443  18.351  0.00  0.00    +0.000 A 
ATOM     23  O   UNL     1       3.066   3.305  18.763  0.00  0.00    +0.000 OA
ATOM     24  N   UNL     1       2.625   5.535  18.886  0.00  0.00    +0.000 N 
ATOM     25  H   UNL     1       1.978   5.327  19.639  0.00  0.00    +0.000 HD
ENDBRANCH   9  14
TORSDOF 1
ENDMDL
MODEL 2
REMARK VINA RESULT:      -7.9      0.964      1.678
REMARK  Name = 
REMARK  2 active torsions:
REMARK  status: ('A' for Active; 'I' for Inactive)
REMARK    1  A    between atoms: C_1  and  N_2
REMARK    2  A    between atoms: C_9  and  C_10
REMARK                            x       y       z     vdW  Elec       q    Type
REMARK                         _______ _______ _______ _____ _____    ______ ____
ROOT
ATOM      1  C   UNL     1      -1.725  14.919  22.600  0.00  0.00    +0.000 C 
ATOM      2  N   UNL     1      -1.770  13.540  22.125  0.00  0.00    +0.000 NA
ATOM      3  C   UNL     1      -0.947  12.649  22.980  0.00  0.00    +0.000 C 
ATOM      4  C   UNL     1      -0.970  11.174  22.498  0.00  0.00    +0.000 C 
ATOM      5  N   UNL     1      -0.585  11.124  21.091  0.00  0.00    +0.000 N 
ATOM      6  C   UNL     1       0.152  10.093  20.571  0.00  0.00    +0.000 A 
ATOM      7  N   UNL     1       0.569   9.095  21.367  0.00  0.00    +0.000 NA
ATOM      8  C   UNL     1       1.355   8.140  20.815  0.00  0.00    +0.000 A 
ATOM      9  C   UNL     1       1.769   8.142  19.503  0.00  0.00    +0.000 A 
ATOM     10  C   UNL     1       1.295   9.202  18.769  0.00  0.00    +0.000 A 
ATOM     11  N   UNL     1       0.494  10.163  19.274  0.00  0.00    +0.000 NA
ATOM     12  C   UNL     1      -1.329  12.007  20.195  0.00  0.00    +0.000 C 
ATOM     13  C   UNL     1      -1.272  13.451  20.733  0.00  0.00    +0.000 C 
ENDROOT
BRANCH   9  14
ATOM     14  C   UNL     1       2.617   7.107  18.919  0.00  0.00    +0.000 A 
ATOM     15  C   UNL     1       3.349   7.360  17.825  0.00  0.00    +0.000 A 
ATOM     16  C   UNL     1       4.195   6.302  17.264  0.00  0.00    +0.000 A 
ATOM     17  C   UNL     1       4.967   6.526  16.119  0.00  0.00    +0.000 A 
ATOM     18  C   UNL     1       5.758   5.501  15.594  0.00  0.00    +0.000 A 
ATOM     19  C   UNL     1       5.786   4.247  16.208  0.00  0.00    +0.000 A 
ATOM     20  C   UNL     1       5.024   4.014  17.353  0.00  0.00    +0.000 A 
ATOM     21  C   UNL     1       4.233   5.040  17.878  0.00  0.00    +0.000 A 
ATOM     22  C   UNL     1       3.413   4.814  19.096  0.00  0.00    +0.000 A 
ATOM     23  O   UNL     1       3.409   3.737  19.686  0.00  0.00    +0.000 OA
ATOM     24  N   UNL     1       2.654   5.880  19.530  0.00  0.00    +0.000 N 
ATOM     25  H   UNL     1       2.107   5.707  20.366  0.00  0.00    +0.000 HD
ENDBRANCH   9  14
TORSDOF 1
ENDMDL
MODEL 3
REMARK VINA RESULT:      -7.9      1.034      1.733
REMARK  Name = 
REMARK  2 active torsions:
REMARK  status: ('A' for Active; 'I' for Inactive)
REMARK    1  A    between atoms: C_1  and  N_2
REMARK    2  A    between atoms: C_9  and  C_10
REMARK                            x       y       z     vdW  Elec       q    Type
REMARK                         _______ _______ _______ _____ _____    ______ ____
ROOT
ATOM      1  C   UNL     1      -1.800  13.603  22.641  0.00  0.00    +0.000 C 
ATOM      2  N   UNL     1      -1.688  12.290  22.016  0.00  0.00    +0.000 NA
ATOM      3  C   UNL     1      -0.845  11.378  22.828  0.00  0.00    +0.000 C 
ATOM      4  C   UNL     1      -0.701   9.971  22.187  0.00  0.00    +0.000 C 
ATOM      5  N   UNL     1      -0.221  10.117  20.816  0.00  0.00    +0.000 N 
ATOM      6  C   UNL     1       0.639   9.218  20.244  0.00  0.00    +0.000 A 
ATOM      7  N   UNL     1       1.093   8.173  20.955  0.00  0.00    +0.000 NA
ATOM      8  C   UNL     1       1.997   7.357  20.363  0.00  0.00    +0.000 A 
ATOM      9  C   UNL     1       2.495   7.546  19.094  0.00  0.00    +0.000 A 
ATOM     10  C   UNL     1       1.976   8.640  18.447  0.00  0.00    +0.000 A 
ATOM     11  N   UNL     1       1.058   9.466  18.992  0.00  0.00    +0.000 NA
ATOM     12  C   UNL     1      -0.982  11.032  19.969  0.00  0.00    +0.000 C 
ATOM     13  C   UNL     1      -1.093  12.404  20.664  0.00  0.00    +0.000 C 
ENDROOT
BRANCH   9  14
ATOM     14  C   UNL     1       3.471   6.660  18.467  0.00  0.00    +0.000 A 
ATOM     15  C   UNL     1       3.872   6.869  17.204  0.00  0.00    +0.000 A 
ATOM     16  C   UNL     1       4.857   5.964  16.602  0.00  0.00    +0.000 A 
ATOM     17  C   UNL     1       5.292   6.146  15.285  0.00  0.00    +0.000 A 
ATOM     18  C   UNL     1       6.224   5.266  14.727  0.00  0.00    +0.000 A 
ATOM     19  C   UNL     1       6.727   4.202  15.478  0.00  0.00    +0.000 A 
ATOM     20  C   UNL     1       6.302   4.015  16.793  0.00  0.00    +0.000 A 
ATOM     21  C   UNL     1       5.371   4.895  17.352  0.00  0.00    +0.000 A 
ATOM     22  C   UNL     1       4.905   4.713  18.750  0.00  0.00    +0.000 A 
ATOM     23  O   UNL     1       5.322   3.805  19.462  0.00  0.00    +0.000 OA
ATOM     24  N   UNL     1       3.975   5.622  19.209  0.00  0.00    +0.000 N 
ATOM     25  H   UNL     1       3.674   5.485  20.168  0.00  0.00    +0.000 HD
ENDBRANCH   9  14
TORSDOF 1
ENDMDL
MODEL 4
REMARK VINA RESULT:      -7.8      2.343      3.333
REMARK  Name = 
REMARK  2 active torsions:
REMARK  status: ('A' for Active; 'I' for Inactive)
REMARK    1  A    between atoms: C_1  and  N_2
REMARK    2  A    between atoms: C_9  and  C_10
REMARK                            x       y       z     vdW  Elec       q    Type
REMARK                         _______ _______ _______ _____ _____    ______ ____
ROOT
ATOM      1  C   UNL     1       1.349  16.008  20.072  0.00  0.00    +0.000 C 
ATOM      2  N   UNL     1       0.741  14.683  20.028  0.00  0.00    +0.000 NA
ATOM      3  C   UNL     1       1.054  13.907  21.253  0.00  0.00    +0.000 C 
ATOM      4  C   UNL     1       0.425  12.488  21.236  0.00  0.00    +0.000 C 
ATOM      5  N   UNL     1       0.826  11.802  20.012  0.00  0.00    +0.000 N 
ATOM      6  C   UNL     1       1.074  10.455  19.976  0.00  0.00    +0.000 A 
ATOM      7  N   UNL     1       0.979   9.723  21.099  0.00  0.00    +0.000 NA
ATOM      8  C   UNL     1       1.306   8.411  21.021  0.00  0.00    +0.000 A 
ATOM      9  C   UNL     1       1.751   7.792  19.876  0.00  0.00    +0.000 A 
ATOM     10  C   UNL     1       1.818   8.620  18.783  0.00  0.00    +0.000 A 
ATOM     11  N   UNL     1       1.482   9.926  18.811  0.00  0.00    +0.000 NA
ATOM     12  C   UNL     1       0.583  12.526  18.766  0.00  0.00    +0.000 C 
ATOM     13  C   UNL     1       1.226  13.925  18.852  0.00  0.00    +0.000 C 
ENDROOT
BRANCH   9  14
ATOM     14  C   UNL     1       2.101   6.376  19.805  0.00  0.00    +0.000 A 
ATOM     15  C   UNL     1       2.504   5.829  18.648  0.00  0.00    +0.000 A 
ATOM     16  C   UNL     1       2.853   4.405  18.609  0.00  0.00    +0.000 A 
ATOM     17  C   UNL     1       3.270   3.798  17.419  0.00  0.00    +0.000 A 
ATOM     18  C   UNL     1       3.588   2.437  17.401  0.00  0.00    +0.000 A 
ATOM     19  C   UNL     1       3.495   1.675  18.567  0.00  0.00    +0.000 A 
ATOM     20  C   UNL     1       3.086   2.272  19.759  0.00  0.00    +0.000 A 
ATOM     21  C   UNL     1       2.768   3.633  19.778  0.00  0.00    +0.000 A 
ATOM     22  C   UNL     1       2.329   4.289  21.036  0.00  0.00    +0.000 A 
ATOM     23  O   UNL     1       2.242   3.673  22.094  0.00  0.00    +0.000 OA
ATOM     24  N   UNL     1       2.022   5.631  20.953  0.00  0.00    +0.000 N 
ATOM     25  H   UNL     1       1.731   6.061  21.824  0.00  0.00    +0.000 HD
ENDBRANCH   9  14
TORSDOF 1
ENDMDL
MODEL 5
REMARK VINA RESULT:      -7.7      2.750      9.006
REMARK  Name = 
REMARK  2 active torsions:
REMARK  status: ('A' for Active; 'I' for Inactive)
REMARK    1  A    between atoms: C_1  and  N_2
REMARK    2  A    between atoms: C_9  and  C_10
REMARK                            x       y       z     vdW  Elec       q    Type
REMARK                         _______ _______ _______ _____ _____    ______ ____
ROOT
ATOM      1  C   UNL     1       7.728   4.631  17.812  0.00  0.00    +0.000 C 
ATOM      2  N   UNL     1       6.316   4.955  17.643  0.00  0.00    +0.000 NA
ATOM      3  C   UNL     1       6.142   6.269  16.976  0.00  0.00    +0.000 C 
ATOM      4  C   UNL     1       4.648   6.647  16.786  0.00  0.00    +0.000 C 
ATOM      5  N   UNL     1       3.967   6.570  18.075  0.00  0.00    +0.000 N 
ATOM      6  C   UNL     1       2.967   7.438  18.425  0.00  0.00    +0.000 A 
ATOM      7  N   UNL     1       2.599   8.418  17.583  0.00  0.00    +0.000 NA
ATOM      8  C   UNL     1       1.656   9.290  18.011  0.00  0.00    +0.000 A 
ATOM      9  C   UNL     1       1.072   9.249  19.256  0.00  0.00    +0.000 A 
ATOM     10  C   UNL     1       1.513   8.216  20.046  0.00  0.00    +0.000 A 
ATOM     11  N   UNL     1       2.434   7.313  19.652  0.00  0.00    +0.000 NA
ATOM     12  C   UNL     1       4.128   5.316  18.807  0.00  0.00    +0.000 C 
ATOM     13  C   UNL     1       5.630   4.997  18.955  0.00  0.00    +0.000 C 
ENDROOT
BRANCH   9  14
ATOM     14  C   UNL     1       0.057  10.196  19.706  0.00  0.00    +0.000 A 
ATOM     15  C   UNL     1       0.021  10.605  20.983  0.00  0.00    +0.000 A 
ATOM     16  C   UNL     1      -1.008  11.561  21.405  0.00  0.00    +0.000 A 
ATOM     17  C   UNL     1      -1.081  12.004  22.730  0.00  0.00    +0.000 A 
ATOM     18  C   UNL     1      -2.077  12.907  23.114  0.00  0.00    +0.000 A 
ATOM     19  C   UNL     1      -3.003  13.374  22.179  0.00  0.00    +0.000 A 
ATOM     20  C   UNL     1      -2.936  12.942  20.855  0.00  0.00    +0.000 A 
ATOM     21  C   UNL     1      -1.941  12.039  20.471  0.00  0.00    +0.000 A 
ATOM     22  C   UNL     1      -1.852  11.565  19.066  0.00  0.00    +0.000 A 
ATOM     23  O   UNL     1      -2.630  11.952  18.199  0.00  0.00    +0.000 OA
ATOM     24  N   UNL     1      -0.846  10.665  18.786  0.00  0.00    +0.000 N 
ATOM     25  H   UNL     1      -0.798  10.358  17.820  0.00  0.00    +0.000 HD
ENDBRANCH   9  14
TORSDOF 1
ENDMDL
MODEL 6
REMARK VINA RESULT:      -7.7      1.226      1.299
REMARK  Name = 
REMARK  2 active torsions:
REMARK  status: ('A' for Active; 'I' for Inactive)
REMARK    1  A    between atoms: C_1  and  N_2
REMARK    2  A    between atoms: C_9  and  C_10
REMARK                            x       y       z     vdW  Elec       q    Type
REMARK                         _______ _______ _______ _____ _____    ______ ____
ROOT
ATOM      1  C   UNL     1      -4.587  13.393  21.610  0.00  0.00    +0.000 C 
ATOM      2  N   UNL     1      -3.221  13.174  21.148  0.00  0.00    +0.000 NA
ATOM      3  C   UNL     1      -3.201  12.620  19.772  0.00  0.00    +0.000 C 
ATOM      4  C   UNL     1      -1.760  12.370  19.251  0.00  0.00    +0.000 C 
ATOM      5  N   UNL     1      -1.044  11.534  20.209  0.00  0.00    +0.000 N 
ATOM      6  C   UNL     1      -0.131  10.591  19.818  0.00  0.00    +0.000 A 
ATOM      7  N   UNL     1       0.112  10.390  18.512  0.00  0.00    +0.000 NA
ATOM      8  C   UNL     1       0.969   9.396  18.179  0.00  0.00    +0.000 A 
ATOM      9  C   UNL     1       1.585   8.569  19.091  0.00  0.00    +0.000 A 
ATOM     10  C   UNL     1       1.274   8.849  20.399  0.00  0.00    +0.000 A 
ATOM     11  N   UNL     1       0.443   9.842  20.774  0.00  0.00    +0.000 NA
ATOM     12  C   UNL     1      -1.054  12.001  21.594  0.00  0.00    +0.000 C 
ATOM     13  C   UNL     1      -2.510  12.235  22.046  0.00  0.00    +0.000 C 
ENDROOT
BRANCH   9  14
ATOM     14  C   UNL     1       2.507   7.499  18.720  0.00  0.00    +0.000 A 
ATOM     15  C   UNL     1       3.295   7.620  17.642  0.00  0.00    +0.000 A 
ATOM     16  C   UNL     1       4.215   6.530  17.297  0.00  0.00    +0.000 A 
ATOM     17  C   UNL     1       5.047   6.616  16.176  0.00  0.00    +0.000 A 
ATOM     18  C   UNL     1       5.908   5.562  15.858  0.00  0.00    +0.000 A 
ATOM     19  C   UNL     1       5.946   4.418  16.658  0.00  0.00    +0.000 A 
ATOM     20  C   UNL     1       5.124   4.324  17.781  0.00  0.00    +0.000 A 
ATOM     21  C   UNL     1       4.263   5.378  18.098  0.00  0.00    +0.000 A 
ATOM     22  C   UNL     1       3.379   5.299  19.289  0.00  0.00    +0.000 A 
ATOM     23  O   UNL     1       3.379   4.325  20.035  0.00  0.00    +0.000 OA
ATOM     24  N   UNL     1       2.554   6.381  19.512  0.00  0.00    +0.000 N 
ATOM     25  H   UNL     1       1.962   6.310  20.334  0.00  0.00    +0.000 HD
ENDBRANCH   9  14
TORSDOF 1
ENDMDL
MODEL 7
REMARK VINA RESULT:      -7.6      2.304      8.955
REMARK  Name = 
REMARK  2 active torsions:
REMARK  status: ('A' for Active; 'I' for Inactive)
REMARK    1  A    between atoms: C_1  and  N_2
REMARK    2  A    between atoms: C_9  and  C_10
REMARK                            x       y       z     vdW  Elec       q    Type
REMARK                         _______ _______ _______ _____ _____    ______ ____
ROOT
ATOM      1  C   UNL     1       5.785   3.628  14.192  0.00  0.00    +0.000 C 
ATOM      2  N   UNL     1       5.725   4.429  15.409  0.00  0.00    +0.000 NA
ATOM      3  C   UNL     1       4.784   3.840  16.395  0.00  0.00    +0.000 C 
ATOM      4  C   UNL     1       4.694   4.672  17.702  0.00  0.00    +0.000 C 
ATOM      5  N   UNL     1       4.371   6.056  17.367  0.00  0.00    +0.000 N 
ATOM      6  C   UNL     1       3.568   6.832  18.159  0.00  0.00    +0.000 A 
ATOM      7  N   UNL     1       3.023   6.318  19.275  0.00  0.00    +0.000 NA
ATOM      8  C   UNL     1       2.179   7.106  19.982  0.00  0.00    +0.000 A 
ATOM      9  C   UNL     1       1.829   8.386  19.616  0.00  0.00    +0.000 A 
ATOM     10  C   UNL     1       2.432   8.823  18.462  0.00  0.00    +0.000 A 
ATOM     11  N   UNL     1       3.294   8.079  17.740  0.00  0.00    +0.000 NA
ATOM     12  C   UNL     1       5.235   6.688  16.372  0.00  0.00    +0.000 C 
ATOM     13  C   UNL     1       5.286   5.810  15.105  0.00  0.00    +0.000 C 
ENDROOT
BRANCH   9  14
ATOM     14  C   UNL     1       0.917   9.227  20.386  0.00  0.00    +0.000 A 
ATOM     15  C   UNL     1       0.081  10.074  19.767  0.00  0.00    +0.000 A 
ATOM     16  C   UNL     1      -0.827  10.903  20.567  0.00  0.00    +0.000 A 
ATOM     17  C   UNL     1      -1.707  11.803  19.957  0.00  0.00    +0.000 A 
ATOM     18  C   UNL     1      -2.556  12.592  20.738  0.00  0.00    +0.000 A 
ATOM     19  C   UNL     1      -2.534  12.486  22.130  0.00  0.00    +0.000 A 
ATOM     20  C   UNL     1      -1.664  11.588  22.748  0.00  0.00    +0.000 A 
ATOM     21  C   UNL     1      -0.815  10.799  21.967  0.00  0.00    +0.000 A 
ATOM     22  C   UNL     1       0.120   9.837  22.604  0.00  0.00    +0.000 A 
ATOM     23  O   UNL     1       0.174   9.691  23.821  0.00  0.00    +0.000 OA
ATOM     24  N   UNL     1       0.929   9.114  21.753  0.00  0.00    +0.000 N 
ATOM     25  H   UNL     1       1.556   8.458  22.207  0.00  0.00    +0.000 HD
ENDBRANCH   9  14
TORSDOF 1
ENDMDL
MODEL 8
REMARK VINA RESULT:      -7.6      1.077      1.142
REMARK  Name = 
REMARK  2 active torsions:
REMARK  status: ('A' for Active; 'I' for Inactive)
REMARK    1  A    between atoms: C_1  and  N_2
REMARK    2  A    between atoms: C_9  and  C_10
REMARK                            x       y       z     vdW  Elec       q    Type
REMARK                         _______ _______ _______ _____ _____    ______ ____
ROOT
ATOM      1  C   UNL     1      -2.948  14.385  21.303  0.00  0.00    +0.000 C 
ATOM      2  N   UNL     1      -1.623  13.810  21.101  0.00  0.00    +0.000 NA
ATOM      3  C   UNL     1      -1.327  13.634  19.658  0.00  0.00    +0.000 C 
ATOM      4  C   UNL     1       0.076  13.018  19.408  0.00  0.00    +0.000 C 
ATOM      5  N   UNL     1       0.196  11.778  20.167  0.00  0.00    +0.000 N 
ATOM      6  C   UNL     1       0.887  10.694  19.693  0.00  0.00    +0.000 A 
ATOM      7  N   UNL     1       1.461  10.741  18.479  0.00  0.00    +0.000 NA
ATOM      8  C   UNL     1       2.069   9.617  18.030  0.00  0.00    +0.000 A 
ATOM      9  C   UNL     1       2.114   8.431  18.727  0.00  0.00    +0.000 A 
ATOM     10  C   UNL     1       1.499   8.480  19.954  0.00  0.00    +0.000 A 
ATOM     11  N   UNL     1       0.901   9.583  20.447  0.00  0.00    +0.000 NA
ATOM     12  C   UNL     1      -0.119  11.869  21.591  0.00  0.00    +0.000 C 
ATOM     13  C   UNL     1      -1.519  12.492  21.769  0.00  0.00    +0.000 C 
ENDROOT
BRANCH   9  14
ATOM     14  C   UNL     1       2.772   7.225  18.232  0.00  0.00    +0.000 A 
ATOM     15  C   UNL     1       3.779   7.309  17.350  0.00  0.00    +0.000 A 
ATOM     16  C   UNL     1       4.423   6.081  16.874  0.00  0.00    +0.000 A 
ATOM     17  C   UNL     1       5.472   6.128  15.949  0.00  0.00    +0.000 A 
ATOM     18  C   UNL     1       6.065   4.945  15.500  0.00  0.00    +0.000 A 
ATOM     19  C   UNL     1       5.618   3.709  15.972  0.00  0.00    +0.000 A 
ATOM     20  C   UNL     1       4.577   3.651  16.898  0.00  0.00    +0.000 A 
ATOM     21  C   UNL     1       3.983   4.834  17.347  0.00  0.00    +0.000 A 
ATOM     22  C   UNL     1       2.873   4.795  18.332  0.00  0.00    +0.000 A 
ATOM     23  O   UNL     1       2.448   3.740  18.792  0.00  0.00    +0.000 OA
ATOM     24  N   UNL     1       2.341   6.012  18.704  0.00  0.00    +0.000 N 
ATOM     25  H   UNL     1       1.588   5.964  19.382  0.00  0.00    +0.000 HD
ENDBRANCH   9  14
TORSDOF 1
ENDMDL
MODEL 9
REMARK VINA RESULT:      -7.6      7.267      8.744
REMARK  Name = 
REMARK  2 active torsions:
REMARK  status: ('A' for Active; 'I' for Inactive)
REMARK    1  A    between atoms: C_1  and  N_2
REMARK    2  A    between atoms: C_9  and  C_10
REMARK                            x       y       z     vdW  Elec       q    Type
REMARK                         _______ _______ _______ _____ _____    ______ ____
ROOT
ATOM      1  C   UNL     1      11.878  17.196  17.490  0.00  0.00    +0.000 C 
ATOM      2  N   UNL     1      11.110  16.190  18.215  0.00  0.00    +0.000 NA
ATOM      3  C   UNL     1      11.944  15.007  18.540  0.00  0.00    +0.000 C 
ATOM      4  C   UNL     1      11.154  13.914  19.309  0.00  0.00    +0.000 C 
ATOM      5  N   UNL     1       9.954  13.571  18.553  0.00  0.00    +0.000 N 
ATOM      6  C   UNL     1       9.456  12.295  18.511  0.00  0.00    +0.000 A 
ATOM      7  N   UNL     1      10.091  11.303  19.157  0.00  0.00    +0.000 NA
ATOM      8  C   UNL     1       9.596  10.050  19.022  0.00  0.00    +0.000 A 
ATOM      9  C   UNL     1       8.504   9.729  18.248  0.00  0.00    +0.000 A 
ATOM     10  C   UNL     1       7.924  10.807  17.625  0.00  0.00    +0.000 A 
ATOM     11  N   UNL     1       8.372  12.073  17.750  0.00  0.00    +0.000 NA
ATOM     12  C   UNL     1       9.103  14.693  18.164  0.00  0.00    +0.000 C 
ATOM     13  C   UNL     1       9.948  15.742  17.413  0.00  0.00    +0.000 C 
ENDROOT
BRANCH   9  14
ATOM     14  C   UNL     1       7.980   8.374  18.110  0.00  0.00    +0.000 A 
ATOM     15  C   UNL     1       7.118   8.071  17.128  0.00  0.00    +0.000 A 
ATOM     16  C   UNL     1       6.612   6.700  17.011  0.00  0.00    +0.000 A 
ATOM     17  C   UNL     1       5.706   6.348  16.004  0.00  0.00    +0.000 A 
ATOM     18  C   UNL     1       5.227   5.038  15.917  0.00  0.00    +0.000 A 
ATOM     19  C   UNL     1       5.650   4.071  16.831  0.00  0.00    +0.000 A 
ATOM     20  C   UNL     1       6.558   4.409  17.835  0.00  0.00    +0.000 A 
ATOM     21  C   UNL     1       7.036   5.720  17.922  0.00  0.00    +0.000 A 
ATOM     22  C   UNL     1       8.001   6.102  18.984  0.00  0.00    +0.000 A 
ATOM     23  O   UNL     1       8.419   5.291  19.805  0.00  0.00    +0.000 OA
ATOM     24  N   UNL     1       8.405   7.420  18.999  0.00  0.00    +0.000 N 
ATOM     25  H   UNL     1       9.069   7.660  19.728  0.00  0.00    +0.000 HD
ENDBRANCH   9  14
TORSDOF 1
ENDMDL
