MODEL 1
REMARK VINA RESULT:      -7.3      0.000      0.000
REMARK  Name = 
REMARK  4 active torsions:
REMARK  status: ('A' for Active; 'I' for Inactive)
REMARK    1  A    between atoms: C_2  and  C_3
REMARK    2  A    between atoms: N_12  and  C_13
REMARK    3  A    between atoms: N_12  and  C_17
REMARK    4  A    between atoms: C_13  and  C_14
REMARK                            x       y       z     vdW  Elec       q    Type
REMARK                         _______ _______ _______ _____ _____    ______ ____
ROOT
ATOM      1  O   UNL     1       5.368   2.593  19.776  0.00  0.00    +0.000 OA
ATOM      2  C   UNL     1       4.815   3.370  18.991  0.00  0.00    +0.000 C 
ATOM      3  N   UNL     1       3.424   3.321  18.729  0.00  0.00    +0.000 N 
ENDROOT
BRANCH   2   4
ATOM      4  C   UNL     1       5.703   4.350  18.316  0.00  0.00    +0.000 A 
ATOM      5  C   UNL     1       6.210   5.422  19.076  0.00  0.00    +0.000 A 
ATOM      6  C   UNL     1       7.049   6.386  18.514  0.00  0.00    +0.000 A 
ATOM      7  C   UNL     1       7.425   6.298  17.171  0.00  0.00    +0.000 A 
ATOM      8  C   UNL     1       6.904   5.264  16.375  0.00  0.00    +0.000 A 
ATOM      9  C   UNL     1       7.091   4.885  15.017  0.00  0.00    +0.000 A 
ATOM     10  C   UNL     1       6.282   3.800  14.772  0.00  0.00    +0.000 A 
ATOM     11  N   UNL     1       5.572   3.551  15.914  0.00  0.00    +0.000 N 
ATOM     12  C   UNL     1       6.019   4.344  16.948  0.00  0.00    +0.000 A 
ATOM     13  H   UNL     1       4.865   2.836  16.014  0.00  0.00    +0.000 HD
ENDBRANCH   2   4
BRANCH   3  14
ATOM     14  C   UNL     1       2.753   4.118  17.717  0.00  0.00    +0.000 C 
ATOM     15  C   UNL     1       1.293   4.492  17.679  0.00  0.00    +0.000 C 
ATOM     16  C   UNL     1       2.304   5.528  18.041  0.00  0.00    +0.000 C 
ENDBRANCH   3  14
BRANCH   3  17
ATOM     17  C   UNL     1       2.653   2.333  19.494  0.00  0.00    +0.000 C 
BRANCH  17  18
ATOM     18  C   UNL     1       2.521   2.685  20.949  0.00  0.00    +0.000 C 
ATOM     19  C   UNL     1       2.090   4.049  21.423  0.00  0.00    +0.000 C 
ATOM     20  C   UNL     1       1.148   2.885  21.544  0.00  0.00    +0.000 C 
ENDBRANCH  17  18
ENDBRANCH   3  17
TORSDOF 4
ENDMDL
MODEL 2
REMARK VINA RESULT:      -7.2      1.560      5.700
REMARK  Name = 
REMARK  4 active torsions:
REMARK  status: ('A' for Active; 'I' for Inactive)
REMARK    1  A    between atoms: C_2  and  C_3
REMARK    2  A    between atoms: N_12  and  C_13
REMARK    3  A    between atoms: N_12  and  C_17
REMARK    4  A    between atoms: C_13  and  C_14
REMARK                            x       y       z     vdW  Elec       q    Type
REMARK                         _______ _______ _______ _____ _____    ______ ____
ROOT
ATOM      1  O   UNL     1       5.985   4.413  19.574  0.00  0.00    +0.000 OA
ATOM      2  C   UNL     1       5.395   4.235  18.503  0.00  0.00    +0.000 C 
ATOM      3  N   UNL     1       5.980   4.552  17.253  0.00  0.00    +0.000 N 
ENDROOT
BRANCH   2   4
ATOM      4  C   UNL     1       4.019   3.686  18.606  0.00  0.00    +0.000 A 
ATOM      5  C   UNL     1       3.690   2.565  17.820  0.00  0.00    +0.000 A 
ATOM      6  C   UNL     1       2.417   1.993  17.858  0.00  0.00    +0.000 A 
ATOM      7  C   UNL     1       1.433   2.515  18.702  0.00  0.00    +0.000 A 
ATOM      8  C   UNL     1       1.717   3.658  19.467  0.00  0.00    +0.000 A 
ATOM      9  C   UNL     1       0.970   4.412  20.414  0.00  0.00    +0.000 A 
ATOM     10  C   UNL     1       1.755   5.467  20.819  0.00  0.00    +0.000 A 
ATOM     11  N   UNL     1       2.921   5.409  20.107  0.00  0.00    +0.000 N 
ATOM     12  C   UNL     1       2.982   4.247  19.368  0.00  0.00    +0.000 A 
ATOM     13  H   UNL     1       3.670   6.083  20.164  0.00  0.00    +0.000 HD
ENDBRANCH   2   4
BRANCH   3  14
ATOM     14  C   UNL     1       5.281   4.489  15.983  0.00  0.00    +0.000 C 
ATOM     15  C   UNL     1       5.725   5.090  14.673  0.00  0.00    +0.000 C 
ATOM     16  C   UNL     1       5.815   3.613  14.869  0.00  0.00    +0.000 C 
ENDBRANCH   3  14
BRANCH   3  17
ATOM     17  C   UNL     1       7.362   5.047  17.289  0.00  0.00    +0.000 C 
BRANCH  17  18
ATOM     18  C   UNL     1       7.472   6.516  16.987  0.00  0.00    +0.000 C 
ATOM     19  C   UNL     1       6.531   7.540  17.568  0.00  0.00    +0.000 C 
ATOM     20  C   UNL     1       7.948   7.463  18.063  0.00  0.00    +0.000 C 
ENDBRANCH  17  18
ENDBRANCH   3  17
TORSDOF 4
ENDMDL
MODEL 3
REMARK VINA RESULT:      -7.2      1.518      5.859
REMARK  Name = 
REMARK  4 active torsions:
REMARK  status: ('A' for Active; 'I' for Inactive)
REMARK    1  A    between atoms: C_2  and  C_3
REMARK    2  A    between atoms: N_12  and  C_13
REMARK    3  A    between atoms: N_12  and  C_17
REMARK    4  A    between atoms: C_13  and  C_14
REMARK                            x       y       z     vdW  Elec       q    Type
REMARK                         _______ _______ _______ _____ _____    ______ ____
ROOT
ATOM      1  O   UNL     1       4.185   3.387  16.938  0.00  0.00    +0.000 OA
ATOM      2  C   UNL     1       4.576   4.383  17.556  0.00  0.00    +0.000 C 
ATOM      3  N   UNL     1       5.837   4.980  17.312  0.00  0.00    +0.000 N 
ENDROOT
BRANCH   2   4
ATOM      4  C   UNL     1       3.651   4.907  18.593  0.00  0.00    +0.000 A 
ATOM      5  C   UNL     1       3.250   6.254  18.507  0.00  0.00    +0.000 A 
ATOM      6  C   UNL     1       2.386   6.821  19.445  0.00  0.00    +0.000 A 
ATOM      7  C   UNL     1       1.876   6.050  20.492  0.00  0.00    +0.000 A 
ATOM      8  C   UNL     1       2.289   4.714  20.630  0.00  0.00    +0.000 A 
ATOM      9  C   UNL     1       1.958   3.677  21.545  0.00  0.00    +0.000 A 
ATOM     10  C   UNL     1       2.711   2.574  21.214  0.00  0.00    +0.000 A 
ATOM     11  N   UNL     1       3.524   2.928  20.173  0.00  0.00    +0.000 N 
ATOM     12  C   UNL     1       3.201   4.186  19.711  0.00  0.00    +0.000 A 
ATOM     13  H   UNL     1       4.218   2.330  19.749  0.00  0.00    +0.000 HD
ENDBRANCH   2   4
BRANCH   3  14
ATOM     14  C   UNL     1       6.397   6.063  18.101  0.00  0.00    +0.000 C 
ATOM     15  C   UNL     1       7.803   6.604  18.028  0.00  0.00    +0.000 C 
ATOM     16  C   UNL     1       6.680   7.402  17.452  0.00  0.00    +0.000 C 
ENDBRANCH   3  14
BRANCH   3  17
ATOM     17  C   UNL     1       6.637   4.390  16.230  0.00  0.00    +0.000 C 
BRANCH  17  18
ATOM     18  C   UNL     1       6.263   4.907  14.869  0.00  0.00    +0.000 C 
ATOM     19  C   UNL     1       7.179   4.801  13.677  0.00  0.00    +0.000 C 
ATOM     20  C   UNL     1       5.958   3.928  13.760  0.00  0.00    +0.000 C 
ENDBRANCH  17  18
ENDBRANCH   3  17
TORSDOF 4
ENDMDL
MODEL 4
REMARK VINA RESULT:      -7.0      1.400      2.433
REMARK  Name = 
REMARK  4 active torsions:
REMARK  status: ('A' for Active; 'I' for Inactive)
REMARK    1  A    between atoms: C_2  and  C_3
REMARK    2  A    between atoms: N_12  and  C_13
REMARK    3  A    between atoms: N_12  and  C_17
REMARK    4  A    between atoms: C_13  and  C_14
REMARK                            x       y       z     vdW  Elec       q    Type
REMARK                         _______ _______ _______ _____ _____    ______ ____
ROOT
ATOM      1  O   UNL     1       3.838   2.042  17.731  0.00  0.00    +0.000 OA
ATOM      2  C   UNL     1       3.766   3.273  17.802  0.00  0.00    +0.000 C 
ATOM      3  N   UNL     1       2.668   3.935  18.403  0.00  0.00    +0.000 N 
ENDROOT
BRANCH   2   4
ATOM      4  C   UNL     1       4.894   4.025  17.195  0.00  0.00    +0.000 A 
ATOM      5  C   UNL     1       4.986   4.067  15.791  0.00  0.00    +0.000 A 
ATOM      6  C   UNL     1       6.018   4.750  15.145  0.00  0.00    +0.000 A 
ATOM      7  C   UNL     1       6.986   5.432  15.887  0.00  0.00    +0.000 A 
ATOM      8  C   UNL     1       6.946   5.375  17.290  0.00  0.00    +0.000 A 
ATOM      9  C   UNL     1       7.743   5.953  18.317  0.00  0.00    +0.000 A 
ATOM     10  C   UNL     1       7.253   5.512  19.523  0.00  0.00    +0.000 A 
ATOM     11  N   UNL     1       6.230   4.643  19.259  0.00  0.00    +0.000 N 
ATOM     12  C   UNL     1       5.935   4.636  17.913  0.00  0.00    +0.000 A 
ATOM     13  H   UNL     1       5.710   4.129  19.956  0.00  0.00    +0.000 HD
ENDBRANCH   2   4
BRANCH   3  14
ATOM     14  C   UNL     1       2.471   5.374  18.389  0.00  0.00    +0.000 C 
ATOM     15  C   UNL     1       1.694   6.192  19.389  0.00  0.00    +0.000 C 
ATOM     16  C   UNL     1       3.186   6.244  19.403  0.00  0.00    +0.000 C 
ENDBRANCH   3  14
BRANCH   3  17
ATOM     17  C   UNL     1       1.640   3.075  19.004  0.00  0.00    +0.000 C 
BRANCH  17  18
ATOM     18  C   UNL     1       2.071   2.461  20.306  0.00  0.00    +0.000 C 
ATOM     19  C   UNL     1       2.647   3.271  21.439  0.00  0.00    +0.000 C 
ATOM     20  C   UNL     1       1.256   2.713  21.553  0.00  0.00    +0.000 C 
ENDBRANCH  17  18
ENDBRANCH   3  17
TORSDOF 4
ENDMDL
MODEL 5
REMARK VINA RESULT:      -7.0      1.692      5.343
REMARK  Name = 
REMARK  4 active torsions:
REMARK  status: ('A' for Active; 'I' for Inactive)
REMARK    1  A    between atoms: C_2  and  C_3
REMARK    2  A    between atoms: N_12  and  C_13
REMARK    3  A    between atoms: N_12  and  C_17
REMARK    4  A    between atoms: C_13  and  C_14
REMARK                            x       y       z     vdW  Elec       q    Type
REMARK                         _______ _______ _______ _____ _____    ______ ____
ROOT
ATOM      1  O   UNL     1       6.405   5.326  19.920  0.00  0.00    +0.000 OA
ATOM      2  C   UNL     1       5.650   5.207  18.950  0.00  0.00    +0.000 C 
ATOM      3  N   UNL     1       6.076   5.450  17.622  0.00  0.00    +0.000 N 
ENDROOT
BRANCH   2   4
ATOM      4  C   UNL     1       4.252   4.814  19.262  0.00  0.00    +0.000 A 
ATOM      5  C   UNL     1       3.406   5.774  19.849  0.00  0.00    +0.000 A 
ATOM      6  C   UNL     1       2.080   5.480  20.174  0.00  0.00    +0.000 A 
ATOM      7  C   UNL     1       1.550   4.217  19.904  0.00  0.00    +0.000 A 
ATOM      8  C   UNL     1       2.379   3.223  19.356  0.00  0.00    +0.000 A 
ATOM      9  C   UNL     1       2.159   1.877  18.952  0.00  0.00    +0.000 A 
ATOM     10  C   UNL     1       3.363   1.370  18.520  0.00  0.00    +0.000 A 
ATOM     11  N   UNL     1       4.308   2.341  18.704  0.00  0.00    +0.000 N 
ATOM     12  C   UNL     1       3.719   3.525  19.093  0.00  0.00    +0.000 A 
ATOM     13  H   UNL     1       5.294   2.235  18.515  0.00  0.00    +0.000 HD
ENDBRANCH   2   4
BRANCH   3  14
ATOM     14  C   UNL     1       5.197   5.457  16.467  0.00  0.00    +0.000 C 
ATOM     15  C   UNL     1       5.605   5.435  15.016  0.00  0.00    +0.000 C 
ATOM     16  C   UNL     1       5.033   4.202  15.634  0.00  0.00    +0.000 C 
ENDBRANCH   3  14
BRANCH   3  17
ATOM     17  C   UNL     1       7.495   5.790  17.448  0.00  0.00    +0.000 C 
BRANCH  17  18
ATOM     18  C   UNL     1       7.717   7.235  17.100  0.00  0.00    +0.000 C 
ATOM     19  C   UNL     1       6.848   8.345  17.634  0.00  0.00    +0.000 C 
ATOM     20  C   UNL     1       8.250   8.180  18.151  0.00  0.00    +0.000 C 
ENDBRANCH  17  18
ENDBRANCH   3  17
TORSDOF 4
ENDMDL
MODEL 6
REMARK VINA RESULT:      -6.7      1.835      5.491
REMARK  Name = 
REMARK  4 active torsions:
REMARK  status: ('A' for Active; 'I' for Inactive)
REMARK    1  A    between atoms: C_2  and  C_3
REMARK    2  A    between atoms: N_12  and  C_13
REMARK    3  A    between atoms: N_12  and  C_17
REMARK    4  A    between atoms: C_13  and  C_14
REMARK                            x       y       z     vdW  Elec       q    Type
REMARK                         _______ _______ _______ _____ _____    ______ ____
ROOT
ATOM      1  O   UNL     1       5.693   5.725  19.683  0.00  0.00    +0.000 OA
ATOM      2  C   UNL     1       5.405   5.402  18.527  0.00  0.00    +0.000 C 
ATOM      3  N   UNL     1       6.311   5.550  17.449  0.00  0.00    +0.000 N 
ENDROOT
BRANCH   2   4
ATOM      4  C   UNL     1       4.034   4.866  18.326  0.00  0.00    +0.000 A 
ATOM      5  C   UNL     1       2.989   5.781  18.098  0.00  0.00    +0.000 A 
ATOM      6  C   UNL     1       1.673   5.356  17.905  0.00  0.00    +0.000 A 
ATOM      7  C   UNL     1       1.363   3.994  17.913  0.00  0.00    +0.000 A 
ATOM      8  C   UNL     1       2.376   3.057  18.178  0.00  0.00    +0.000 A 
ATOM      9  C   UNL     1       2.404   1.636  18.240  0.00  0.00    +0.000 A 
ATOM     10  C   UNL     1       3.681   1.260  18.584  0.00  0.00    +0.000 A 
ATOM     11  N   UNL     1       4.405   2.401  18.790  0.00  0.00    +0.000 N 
ATOM     12  C   UNL     1       3.675   3.512  18.427  0.00  0.00    +0.000 A 
ATOM     13  H   UNL     1       5.367   2.431  19.096  0.00  0.00    +0.000 HD
ENDBRANCH   2   4
BRANCH   3  14
ATOM     14  C   UNL     1       5.974   5.314  16.057  0.00  0.00    +0.000 C 
ATOM     15  C   UNL     1       6.917   4.911  14.951  0.00  0.00    +0.000 C 
ATOM     16  C   UNL     1       5.969   3.902  15.509  0.00  0.00    +0.000 C 
ENDBRANCH   3  14
BRANCH   3  17
ATOM     17  C   UNL     1       7.649   6.052  17.790  0.00  0.00    +0.000 C 
BRANCH  17  18
ATOM     18  C   UNL     1       7.906   7.442  17.280  0.00  0.00    +0.000 C 
ATOM     19  C   UNL     1       7.008   8.609  17.605  0.00  0.00    +0.000 C 
ATOM     20  C   UNL     1       8.367   8.513  18.241  0.00  0.00    +0.000 C 
ENDBRANCH  17  18
ENDBRANCH   3  17
TORSDOF 4
ENDMDL
MODEL 7
REMARK VINA RESULT:      -6.7      1.553      5.739
REMARK  Name = 
REMARK  4 active torsions:
REMARK  status: ('A' for Active; 'I' for Inactive)
REMARK    1  A    between atoms: C_2  and  C_3
REMARK    2  A    between atoms: N_12  and  C_13
REMARK    3  A    between atoms: N_12  and  C_17
REMARK    4  A    between atoms: C_13  and  C_14
REMARK                            x       y       z     vdW  Elec       q    Type
REMARK                         _______ _______ _______ _____ _____    ______ ____
ROOT
ATOM      1  O   UNL     1       3.131   3.398  16.608  0.00  0.00    +0.000 OA
ATOM      2  C   UNL     1       3.866   3.987  17.408  0.00  0.00    +0.000 C 
ATOM      3  N   UNL     1       5.272   4.037  17.251  0.00  0.00    +0.000 N 
ENDROOT
BRANCH   2   4
ATOM      4  C   UNL     1       3.186   4.624  18.564  0.00  0.00    +0.000 A 
ATOM      5  C   UNL     1       2.866   5.993  18.476  0.00  0.00    +0.000 A 
ATOM      6  C   UNL     1       2.230   6.664  19.521  0.00  0.00    +0.000 A 
ATOM      7  C   UNL     1       1.873   5.981  20.686  0.00  0.00    +0.000 A 
ATOM      8  C   UNL     1       2.214   4.625  20.822  0.00  0.00    +0.000 A 
ATOM      9  C   UNL     1       1.991   3.657  21.840  0.00  0.00    +0.000 A 
ATOM     10  C   UNL     1       2.594   2.487  21.441  0.00  0.00    +0.000 A 
ATOM     11  N   UNL     1       3.222   2.732  20.251  0.00  0.00    +0.000 N 
ATOM     12  C   UNL     1       2.904   3.989  19.784  0.00  0.00    +0.000 A 
ATOM     13  H   UNL     1       3.784   2.065  19.742  0.00  0.00    +0.000 HD
ENDBRANCH   2   4
BRANCH   3  14
ATOM     14  C   UNL     1       6.187   4.595  18.231  0.00  0.00    +0.000 C 
ATOM     15  C   UNL     1       7.639   4.943  18.021  0.00  0.00    +0.000 C 
ATOM     16  C   UNL     1       6.630   6.039  18.113  0.00  0.00    +0.000 C 
ENDBRANCH   3  14
BRANCH   3  17
ATOM     17  C   UNL     1       5.814   3.403  16.042  0.00  0.00    +0.000 C 
BRANCH  17  18
ATOM     18  C   UNL     1       5.605   4.223  14.800  0.00  0.00    +0.000 C 
ATOM     19  C   UNL     1       5.724   5.725  14.785  0.00  0.00    +0.000 C 
ATOM     20  C   UNL     1       6.790   4.886  14.138  0.00  0.00    +0.000 C 
ENDBRANCH  17  18
ENDBRANCH   3  17
TORSDOF 4
ENDMDL
MODEL 8
REMARK VINA RESULT:      -6.7      1.139      2.197
REMARK  Name = 
REMARK  4 active torsions:
REMARK  status: ('A' for Active; 'I' for Inactive)
REMARK    1  A    between atoms: C_2  and  C_3
REMARK    2  A    between atoms: N_12  and  C_13
REMARK    3  A    between atoms: N_12  and  C_17
REMARK    4  A    between atoms: C_13  and  C_14
REMARK                            x       y       z     vdW  Elec       q    Type
REMARK                         _______ _______ _______ _____ _____    ______ ____
ROOT
ATOM      1  O   UNL     1       5.206   2.387  19.441  0.00  0.00    +0.000 OA
ATOM      2  C   UNL     1       4.577   3.114  18.665  0.00  0.00    +0.000 C 
ATOM      3  N   UNL     1       3.164   3.087  18.577  0.00  0.00    +0.000 N 
ENDROOT
BRANCH   2   4
ATOM      4  C   UNL     1       5.396   4.008  17.807  0.00  0.00    +0.000 A 
ATOM      5  C   UNL     1       5.213   3.943  16.412  0.00  0.00    +0.000 A 
ATOM      6  C   UNL     1       5.947   4.748  15.539  0.00  0.00    +0.000 A 
ATOM      7  C   UNL     1       6.878   5.663  16.037  0.00  0.00    +0.000 A 
ATOM      8  C   UNL     1       7.114   5.724  17.420  0.00  0.00    +0.000 A 
ATOM      9  C   UNL     1       7.955   6.531  18.235  0.00  0.00    +0.000 A 
ATOM     10  C   UNL     1       7.799   6.113  19.537  0.00  0.00    +0.000 A 
ATOM     11  N   UNL     1       6.942   5.048  19.527  0.00  0.00    +0.000 N 
ATOM     12  C   UNL     1       6.408   4.865  18.269  0.00  0.00    +0.000 A 
ATOM     13  H   UNL     1       6.676   4.508  20.338  0.00  0.00    +0.000 HD
ENDBRANCH   2   4
BRANCH   3  14
ATOM     14  C   UNL     1       2.391   3.818  17.590  0.00  0.00    +0.000 C 
ATOM     15  C   UNL     1       0.930   4.187  17.673  0.00  0.00    +0.000 C 
ATOM     16  C   UNL     1       1.965   5.245  17.869  0.00  0.00    +0.000 C 
ENDBRANCH   3  14
BRANCH   3  17
ATOM     17  C   UNL     1       2.472   2.189  19.511  0.00  0.00    +0.000 C 
BRANCH  17  18
ATOM     18  C   UNL     1       2.530   2.661  20.937  0.00  0.00    +0.000 C 
ATOM     19  C   UNL     1       2.078   4.035  21.360  0.00  0.00    +0.000 C 
ATOM     20  C   UNL     1       1.248   2.833  21.716  0.00  0.00    +0.000 C 
ENDBRANCH  17  18
ENDBRANCH   3  17
TORSDOF 4
ENDMDL
MODEL 9
REMARK VINA RESULT:      -6.6      1.883      5.765
REMARK  Name = 
REMARK  4 active torsions:
REMARK  status: ('A' for Active; 'I' for Inactive)
REMARK    1  A    between atoms: C_2  and  C_3
REMARK    2  A    between atoms: N_12  and  C_13
REMARK    3  A    between atoms: N_12  and  C_17
REMARK    4  A    between atoms: C_13  and  C_14
REMARK                            x       y       z     vdW  Elec       q    Type
REMARK                         _______ _______ _______ _____ _____    ______ ____
ROOT
ATOM      1  O   UNL     1       4.148   3.388  16.945  0.00  0.00    +0.000 OA
ATOM      2  C   UNL     1       4.570   4.322  17.635  0.00  0.00    +0.000 C 
ATOM      3  N   UNL     1       5.866   4.866  17.465  0.00  0.00    +0.000 N 
ENDROOT
BRANCH   2   4
ATOM      4  C   UNL     1       3.640   4.830  18.676  0.00  0.00    +0.000 A 
ATOM      5  C   UNL     1       3.238   3.948  19.697  0.00  0.00    +0.000 A 
ATOM      6  C   UNL     1       2.364   4.349  20.709  0.00  0.00    +0.000 A 
ATOM      7  C   UNL     1       1.877   5.658  20.743  0.00  0.00    +0.000 A 
ATOM      8  C   UNL     1       2.226   6.551  19.716  0.00  0.00    +0.000 A 
ATOM      9  C   UNL     1       1.928   7.919  19.465  0.00  0.00    +0.000 A 
ATOM     10  C   UNL     1       2.517   8.261  18.270  0.00  0.00    +0.000 A 
ATOM     11  N   UNL     1       3.107   7.136  17.765  0.00  0.00    +0.000 N 
ATOM     12  C   UNL     1       3.057   6.108  18.682  0.00  0.00    +0.000 A 
ATOM     13  H   UNL     1       3.579   7.077  16.874  0.00  0.00    +0.000 HD
ENDBRANCH   2   4
BRANCH   3  14
ATOM     14  C   UNL     1       6.456   5.866  18.336  0.00  0.00    +0.000 C 
ATOM     15  C   UNL     1       7.918   6.034  18.666  0.00  0.00    +0.000 C 
ATOM     16  C   UNL     1       7.259   7.006  17.743  0.00  0.00    +0.000 C 
ENDBRANCH   3  14
BRANCH   3  17
ATOM     17  C   UNL     1       6.669   4.301  16.372  0.00  0.00    +0.000 C 
BRANCH  17  18
ATOM     18  C   UNL     1       6.360   4.914  15.035  0.00  0.00    +0.000 C 
ATOM     19  C   UNL     1       7.270   4.770  13.842  0.00  0.00    +0.000 C 
ATOM     20  C   UNL     1       5.967   4.021  13.881  0.00  0.00    +0.000 C 
ENDBRANCH  17  18
ENDBRANCH   3  17
TORSDOF 4
ENDMDL
