MODEL 1
REMARK VINA RESULT:      -8.2      0.000      0.000
REMARK  Name = 
REMARK  2 active torsions:
REMARK  status: ('A' for Active; 'I' for Inactive)
REMARK    1  A    between atoms: C_5  and  C_6
REMARK    2  A    between atoms: N_8  and  C_9
REMARK                            x       y       z     vdW  Elec       q    Type
REMARK                         _______ _______ _______ _____ _____    ______ ____
ROOT
ATOM      1  C   UNL     1       2.504   6.487  19.436  0.00  0.00    +0.000 A 
ATOM      2  N   UNL     1       3.596   6.503  18.655  0.00  0.00    +0.000 NA
ATOM      3  N   UNL     1       3.908   5.190  18.431  0.00  0.00    +0.000 N 
ATOM      4  C   UNL     1       3.040   4.342  19.113  0.00  0.00    +0.000 A 
ATOM      5  N   UNL     1       3.046   2.992  19.155  0.00  0.00    +0.000 NA
ATOM      6  C   UNL     1       2.075   2.491  19.930  0.00  0.00    +0.000 A 
ATOM      7  N   UNL     1       1.161   3.173  20.639  0.00  0.00    +0.000 NA
ATOM      8  C   UNL     1       1.195   4.521  20.575  0.00  0.00    +0.000 A 
ATOM      9  C   UNL     1       2.146   5.159  19.784  0.00  0.00    +0.000 A 
ENDROOT
BRANCH   1  14
ATOM     10 CL   UNL     1      -0.215  11.587  21.053  0.00  0.00    +0.000 Cl
ATOM     11  C   UNL     1       0.568  10.128  20.589  0.00  0.00    +0.000 A 
ATOM     12  C   UNL     1       0.757   9.118  21.526  0.00  0.00    +0.000 A 
ATOM     13  C   UNL     1       1.381   7.925  21.147  0.00  0.00    +0.000 A 
ATOM     14  C   UNL     1       1.840   7.738  19.834  0.00  0.00    +0.000 A 
ATOM     15  C   UNL     1       1.634   8.766  18.900  0.00  0.00    +0.000 A 
ATOM     16  C   UNL     1       1.001   9.957  19.276  0.00  0.00    +0.000 A 
ENDBRANCH   1  14
BRANCH   3  17
ATOM     17  C   UNL     1       5.019   4.847  17.597  0.00  0.00    +0.000 A 
ATOM     18  C   UNL     1       4.792   4.435  16.274  0.00  0.00    +0.000 A 
ATOM     19  C   UNL     1       5.866   4.120  15.434  0.00  0.00    +0.000 A 
ATOM     20  C   UNL     1       7.174   4.205  15.909  0.00  0.00    +0.000 A 
ATOM     21  C   UNL     1       7.409   4.598  17.222  0.00  0.00    +0.000 A 
ATOM     22  C   UNL     1       6.339   4.917  18.062  0.00  0.00    +0.000 A 
ENDBRANCH   3  17
TORSDOF 2
ENDMDL
MODEL 2
REMARK VINA RESULT:      -8.2      0.061      1.031
REMARK  Name = 
REMARK  2 active torsions:
REMARK  status: ('A' for Active; 'I' for Inactive)
REMARK    1  A    between atoms: C_5  and  C_6
REMARK    2  A    between atoms: N_8  and  C_9
REMARK                            x       y       z     vdW  Elec       q    Type
REMARK                         _______ _______ _______ _____ _____    ______ ____
ROOT
ATOM      1  C   UNL     1       2.498   6.519  19.398  0.00  0.00    +0.000 A 
ATOM      2  N   UNL     1       3.584   6.527  18.609  0.00  0.00    +0.000 NA
ATOM      3  N   UNL     1       3.901   5.212  18.406  0.00  0.00    +0.000 N 
ATOM      4  C   UNL     1       3.044   4.371  19.110  0.00  0.00    +0.000 A 
ATOM      5  N   UNL     1       3.058   3.023  19.175  0.00  0.00    +0.000 NA
ATOM      6  C   UNL     1       2.096   2.529  19.967  0.00  0.00    +0.000 A 
ATOM      7  N   UNL     1       1.184   3.218  20.671  0.00  0.00    +0.000 NA
ATOM      8  C   UNL     1       1.209   4.565  20.582  0.00  0.00    +0.000 A 
ATOM      9  C   UNL     1       2.150   5.195  19.772  0.00  0.00    +0.000 A 
ENDROOT
BRANCH   1  14
ATOM     10 CL   UNL     1      -0.218  11.639  20.956  0.00  0.00    +0.000 Cl
ATOM     11  C   UNL     1       0.556  10.170  20.511  0.00  0.00    +0.000 A 
ATOM     12  C   UNL     1       0.964   9.976  19.195  0.00  0.00    +0.000 A 
ATOM     13  C   UNL     1       1.607   8.787  18.834  0.00  0.00    +0.000 A 
ATOM     14  C   UNL     1       1.830   7.772  19.779  0.00  0.00    +0.000 A 
ATOM     15  C   UNL     1       1.416   7.990  21.103  0.00  0.00    +0.000 A 
ATOM     16  C   UNL     1       0.782   9.183  21.468  0.00  0.00    +0.000 A 
ENDBRANCH   1  14
BRANCH   3  17
ATOM     17  C   UNL     1       5.009   4.861  17.569  0.00  0.00    +0.000 A 
ATOM     18  C   UNL     1       4.774   4.429  16.254  0.00  0.00    +0.000 A 
ATOM     19  C   UNL     1       5.844   4.106  15.412  0.00  0.00    +0.000 A 
ATOM     20  C   UNL     1       7.155   4.201  15.877  0.00  0.00    +0.000 A 
ATOM     21  C   UNL     1       7.397   4.613  17.183  0.00  0.00    +0.000 A 
ATOM     22  C   UNL     1       6.331   4.941  18.025  0.00  0.00    +0.000 A 
ENDBRANCH   3  17
TORSDOF 2
ENDMDL
MODEL 3
REMARK VINA RESULT:      -8.2      0.048      1.029
REMARK  Name = 
REMARK  2 active torsions:
REMARK  status: ('A' for Active; 'I' for Inactive)
REMARK    1  A    between atoms: C_5  and  C_6
REMARK    2  A    between atoms: N_8  and  C_9
REMARK                            x       y       z     vdW  Elec       q    Type
REMARK                         _______ _______ _______ _____ _____    ______ ____
ROOT
ATOM      1  C   UNL     1       2.486   6.515  19.434  0.00  0.00    +0.000 A 
ATOM      2  N   UNL     1       3.572   6.543  18.646  0.00  0.00    +0.000 NA
ATOM      3  N   UNL     1       3.891   5.233  18.412  0.00  0.00    +0.000 N 
ATOM      4  C   UNL     1       3.033   4.376  19.095  0.00  0.00    +0.000 A 
ATOM      5  N   UNL     1       3.049   3.026  19.130  0.00  0.00    +0.000 NA
ATOM      6  C   UNL     1       2.087   2.514  19.910  0.00  0.00    +0.000 A 
ATOM      7  N   UNL     1       1.173   3.186  20.629  0.00  0.00    +0.000 NA
ATOM      8  C   UNL     1       1.198   4.534  20.572  0.00  0.00    +0.000 A 
ATOM      9  C   UNL     1       2.139   5.183  19.777  0.00  0.00    +0.000 A 
ENDROOT
BRANCH   1  14
ATOM     10 CL   UNL     1      -0.255  11.589  21.098  0.00  0.00    +0.000 Cl
ATOM     11  C   UNL     1       0.535  10.138  20.621  0.00  0.00    +0.000 A 
ATOM     12  C   UNL     1       0.739   9.124  21.552  0.00  0.00    +0.000 A 
ATOM     13  C   UNL     1       1.368   7.938  21.162  0.00  0.00    +0.000 A 
ATOM     14  C   UNL     1       1.817   7.760  19.843  0.00  0.00    +0.000 A 
ATOM     15  C   UNL     1       1.596   8.791  18.917  0.00  0.00    +0.000 A 
ATOM     16  C   UNL     1       0.957   9.975  19.303  0.00  0.00    +0.000 A 
ENDBRANCH   1  14
BRANCH   3  17
ATOM     17  C   UNL     1       4.998   4.902  17.568  0.00  0.00    +0.000 A 
ATOM     18  C   UNL     1       6.306   4.990  18.072  0.00  0.00    +0.000 A 
ATOM     19  C   UNL     1       7.400   4.646  17.271  0.00  0.00    +0.000 A 
ATOM     20  C   UNL     1       7.201   4.223  15.958  0.00  0.00    +0.000 A 
ATOM     21  C   UNL     1       5.911   4.147  15.444  0.00  0.00    +0.000 A 
ATOM     22  C   UNL     1       4.815   4.484  16.242  0.00  0.00    +0.000 A 
ENDBRANCH   3  17
TORSDOF 2
ENDMDL
MODEL 4
REMARK VINA RESULT:      -8.2      0.046      1.455
REMARK  Name = 
REMARK  2 active torsions:
REMARK  status: ('A' for Active; 'I' for Inactive)
REMARK    1  A    between atoms: C_5  and  C_6
REMARK    2  A    between atoms: N_8  and  C_9
REMARK                            x       y       z     vdW  Elec       q    Type
REMARK                         _______ _______ _______ _____ _____    ______ ____
ROOT
ATOM      1  C   UNL     1       2.481   6.515  19.434  0.00  0.00    +0.000 A 
ATOM      2  N   UNL     1       3.566   6.540  18.644  0.00  0.00    +0.000 NA
ATOM      3  N   UNL     1       3.885   5.230  18.414  0.00  0.00    +0.000 N 
ATOM      4  C   UNL     1       3.028   4.375  19.100  0.00  0.00    +0.000 A 
ATOM      5  N   UNL     1       3.043   3.025  19.138  0.00  0.00    +0.000 NA
ATOM      6  C   UNL     1       2.081   2.515  19.920  0.00  0.00    +0.000 A 
ATOM      7  N   UNL     1       1.169   3.189  20.638  0.00  0.00    +0.000 NA
ATOM      8  C   UNL     1       1.194   4.537  20.578  0.00  0.00    +0.000 A 
ATOM      9  C   UNL     1       2.134   5.184  19.781  0.00  0.00    +0.000 A 
ENDROOT
BRANCH   1  14
ATOM     10 CL   UNL     1      -0.235  11.601  21.100  0.00  0.00    +0.000 Cl
ATOM     11  C   UNL     1       0.539  10.142  20.624  0.00  0.00    +0.000 A 
ATOM     12  C   UNL     1       0.957   9.980  19.307  0.00  0.00    +0.000 A 
ATOM     13  C   UNL     1       1.599   8.800  18.920  0.00  0.00    +0.000 A 
ATOM     14  C   UNL     1       1.813   7.761  19.841  0.00  0.00    +0.000 A 
ATOM     15  C   UNL     1       1.390   7.946  21.167  0.00  0.00    +0.000 A 
ATOM     16  C   UNL     1       0.756   9.131  21.557  0.00  0.00    +0.000 A 
ENDBRANCH   1  14
BRANCH   3  17
ATOM     17  C   UNL     1       4.991   4.897  17.569  0.00  0.00    +0.000 A 
ATOM     18  C   UNL     1       6.299   4.982  18.074  0.00  0.00    +0.000 A 
ATOM     19  C   UNL     1       7.392   4.636  17.272  0.00  0.00    +0.000 A 
ATOM     20  C   UNL     1       7.192   4.213  15.959  0.00  0.00    +0.000 A 
ATOM     21  C   UNL     1       5.902   4.140  15.445  0.00  0.00    +0.000 A 
ATOM     22  C   UNL     1       4.807   4.480  16.244  0.00  0.00    +0.000 A 
ENDBRANCH   3  17
TORSDOF 2
ENDMDL
MODEL 5
REMARK VINA RESULT:      -7.8      1.156      1.638
REMARK  Name = 
REMARK  2 active torsions:
REMARK  status: ('A' for Active; 'I' for Inactive)
REMARK    1  A    between atoms: C_5  and  C_6
REMARK    2  A    between atoms: N_8  and  C_9
REMARK                            x       y       z     vdW  Elec       q    Type
REMARK                         _______ _______ _______ _____ _____    ______ ____
ROOT
ATOM      1  C   UNL     1       3.010   6.565  18.571  0.00  0.00    +0.000 A 
ATOM      2  N   UNL     1       3.839   6.619  17.518  0.00  0.00    +0.000 NA
ATOM      3  N   UNL     1       4.391   5.371  17.419  0.00  0.00    +0.000 N 
ATOM      4  C   UNL     1       3.947   4.541  18.444  0.00  0.00    +0.000 A 
ATOM      5  N   UNL     1       4.286   3.257  18.691  0.00  0.00    +0.000 NA
ATOM      6  C   UNL     1       3.685   2.760  19.781  0.00  0.00    +0.000 A 
ATOM      7  N   UNL     1       2.838   3.393  20.608  0.00  0.00    +0.000 NA
ATOM      8  C   UNL     1       2.531   4.677  20.328  0.00  0.00    +0.000 A 
ATOM      9  C   UNL     1       3.076   5.299  19.208  0.00  0.00    +0.000 A 
ENDROOT
BRANCH   1  14
ATOM     10 CL   UNL     1      -0.347  11.300  20.098  0.00  0.00    +0.000 Cl
ATOM     11  C   UNL     1       0.611   9.941  19.662  0.00  0.00    +0.000 A 
ATOM     12  C   UNL     1       1.005   9.770  18.339  0.00  0.00    +0.000 A 
ATOM     13  C   UNL     1       1.797   8.673  17.984  0.00  0.00    +0.000 A 
ATOM     14  C   UNL     1       2.185   7.724  18.944  0.00  0.00    +0.000 A 
ATOM     15  C   UNL     1       1.782   7.917  20.275  0.00  0.00    +0.000 A 
ATOM     16  C   UNL     1       0.999   9.021  20.633  0.00  0.00    +0.000 A 
ENDBRANCH   1  14
BRANCH   3  17
ATOM     17  C   UNL     1       5.312   5.073  16.365  0.00  0.00    +0.000 A 
ATOM     18  C   UNL     1       4.863   4.383  15.227  0.00  0.00    +0.000 A 
ATOM     19  C   UNL     1       5.742   4.105  14.174  0.00  0.00    +0.000 A 
ATOM     20  C   UNL     1       7.076   4.503  14.250  0.00  0.00    +0.000 A 
ATOM     21  C   UNL     1       7.533   5.174  15.379  0.00  0.00    +0.000 A 
ATOM     22  C   UNL     1       6.658   5.457  16.431  0.00  0.00    +0.000 A 
ENDBRANCH   3  17
TORSDOF 2
ENDMDL
MODEL 6
REMARK VINA RESULT:      -7.8      1.142      1.296
REMARK  Name = 
REMARK  2 active torsions:
REMARK  status: ('A' for Active; 'I' for Inactive)
REMARK    1  A    between atoms: C_5  and  C_6
REMARK    2  A    between atoms: N_8  and  C_9
REMARK                            x       y       z     vdW  Elec       q    Type
REMARK                         _______ _______ _______ _____ _____    ______ ____
ROOT
ATOM      1  C   UNL     1       2.857   6.319  18.356  0.00  0.00    +0.000 A 
ATOM      2  N   UNL     1       3.867   6.446  17.481  0.00  0.00    +0.000 NA
ATOM      3  N   UNL     1       4.201   5.170  17.117  0.00  0.00    +0.000 N 
ATOM      4  C   UNL     1       3.433   4.233  17.801  0.00  0.00    +0.000 A 
ATOM      5  N   UNL     1       3.490   2.885  17.727  0.00  0.00    +0.000 NA
ATOM      6  C   UNL     1       2.617   2.281  18.544  0.00  0.00    +0.000 A 
ATOM      7  N   UNL     1       1.753   2.862  19.391  0.00  0.00    +0.000 NA
ATOM      8  C   UNL     1       1.733   4.211  19.440  0.00  0.00    +0.000 A 
ATOM      9  C   UNL     1       2.580   4.953  18.620  0.00  0.00    +0.000 A 
ENDROOT
BRANCH   1  14
ATOM     10 CL   UNL     1       0.131  11.148  20.652  0.00  0.00    +0.000 Cl
ATOM     11  C   UNL     1       0.916   9.767  19.993  0.00  0.00    +0.000 A 
ATOM     12  C   UNL     1       1.221   8.688  20.816  0.00  0.00    +0.000 A 
ATOM     13  C   UNL     1       1.846   7.558  20.280  0.00  0.00    +0.000 A 
ATOM     14  C   UNL     1       2.192   7.503  18.920  0.00  0.00    +0.000 A 
ATOM     15  C   UNL     1       1.869   8.599  18.103  0.00  0.00    +0.000 A 
ATOM     16  C   UNL     1       1.234   9.727  18.637  0.00  0.00    +0.000 A 
ENDBRANCH   1  14
BRANCH   3  17
ATOM     17  C   UNL     1       5.237   4.945  16.155  0.00  0.00    +0.000 A 
ATOM     18  C   UNL     1       4.913   4.407  14.899  0.00  0.00    +0.000 A 
ATOM     19  C   UNL     1       5.909   4.204  13.937  0.00  0.00    +0.000 A 
ATOM     20  C   UNL     1       7.235   4.525  14.222  0.00  0.00    +0.000 A 
ATOM     21  C   UNL     1       7.568   5.043  15.468  0.00  0.00    +0.000 A 
ATOM     22  C   UNL     1       6.577   5.252  16.430  0.00  0.00    +0.000 A 
ENDBRANCH   3  17
TORSDOF 2
ENDMDL
MODEL 7
REMARK VINA RESULT:      -7.8      1.164      1.623
REMARK  Name = 
REMARK  2 active torsions:
REMARK  status: ('A' for Active; 'I' for Inactive)
REMARK    1  A    between atoms: C_5  and  C_6
REMARK    2  A    between atoms: N_8  and  C_9
REMARK                            x       y       z     vdW  Elec       q    Type
REMARK                         _______ _______ _______ _____ _____    ______ ____
ROOT
ATOM      1  C   UNL     1       3.025   6.584  18.577  0.00  0.00    +0.000 A 
ATOM      2  N   UNL     1       3.840   6.641  17.512  0.00  0.00    +0.000 NA
ATOM      3  N   UNL     1       4.389   5.393  17.401  0.00  0.00    +0.000 N 
ATOM      4  C   UNL     1       3.958   4.559  18.428  0.00  0.00    +0.000 A 
ATOM      5  N   UNL     1       4.299   3.274  18.665  0.00  0.00    +0.000 NA
ATOM      6  C   UNL     1       3.713   2.773  19.761  0.00  0.00    +0.000 A 
ATOM      7  N   UNL     1       2.878   3.404  20.602  0.00  0.00    +0.000 NA
ATOM      8  C   UNL     1       2.568   4.690  20.332  0.00  0.00    +0.000 A 
ATOM      9  C   UNL     1       3.099   5.315  19.208  0.00  0.00    +0.000 A 
ENDROOT
BRANCH   1  14
ATOM     10 CL   UNL     1      -0.325  11.305  20.159  0.00  0.00    +0.000 Cl
ATOM     11  C   UNL     1       0.638   9.956  19.705  0.00  0.00    +0.000 A 
ATOM     12  C   UNL     1       0.997   9.011  20.660  0.00  0.00    +0.000 A 
ATOM     13  C   UNL     1       1.768   7.905  20.290  0.00  0.00    +0.000 A 
ATOM     14  C   UNL     1       2.206   7.742  18.966  0.00  0.00    +0.000 A 
ATOM     15  C   UNL     1       1.828   8.703  18.014  0.00  0.00    +0.000 A 
ATOM     16  C   UNL     1       1.048   9.805  18.382  0.00  0.00    +0.000 A 
ENDBRANCH   1  14
BRANCH   3  17
ATOM     17  C   UNL     1       5.295   5.098  16.332  0.00  0.00    +0.000 A 
ATOM     18  C   UNL     1       6.640   5.488  16.436  0.00  0.00    +0.000 A 
ATOM     19  C   UNL     1       7.546   5.187  15.413  0.00  0.00    +0.000 A 
ATOM     20  C   UNL     1       7.118   4.505  14.275  0.00  0.00    +0.000 A 
ATOM     21  C   UNL     1       5.784   4.128  14.157  0.00  0.00    +0.000 A 
ATOM     22  C   UNL     1       4.877   4.423  15.178  0.00  0.00    +0.000 A 
ENDBRANCH   3  17
TORSDOF 2
ENDMDL
MODEL 8
REMARK VINA RESULT:      -7.8      1.135      1.889
REMARK  Name = 
REMARK  2 active torsions:
REMARK  status: ('A' for Active; 'I' for Inactive)
REMARK    1  A    between atoms: C_5  and  C_6
REMARK    2  A    between atoms: N_8  and  C_9
REMARK                            x       y       z     vdW  Elec       q    Type
REMARK                         _______ _______ _______ _____ _____    ______ ____
ROOT
ATOM      1  C   UNL     1       3.015   6.616  18.627  0.00  0.00    +0.000 A 
ATOM      2  N   UNL     1       3.838   6.674  17.568  0.00  0.00    +0.000 NA
ATOM      3  N   UNL     1       4.379   5.423  17.453  0.00  0.00    +0.000 N 
ATOM      4  C   UNL     1       3.936   4.586  18.472  0.00  0.00    +0.000 A 
ATOM      5  N   UNL     1       4.267   3.297  18.703  0.00  0.00    +0.000 NA
ATOM      6  C   UNL     1       3.670   2.793  19.791  0.00  0.00    +0.000 A 
ATOM      7  N   UNL     1       2.833   3.423  20.631  0.00  0.00    +0.000 NA
ATOM      8  C   UNL     1       2.535   4.713  20.368  0.00  0.00    +0.000 A 
ATOM      9  C   UNL     1       3.077   5.343  19.251  0.00  0.00    +0.000 A 
ENDROOT
BRANCH   1  14
ATOM     10 CL   UNL     1      -0.293  11.360  20.229  0.00  0.00    +0.000 Cl
ATOM     11  C   UNL     1       0.651   9.998  19.771  0.00  0.00    +0.000 A 
ATOM     12  C   UNL     1       1.088   9.871  18.457  0.00  0.00    +0.000 A 
ATOM     13  C   UNL     1       1.868   8.772  18.085  0.00  0.00    +0.000 A 
ATOM     14  C   UNL     1       2.202   7.777  19.019  0.00  0.00    +0.000 A 
ATOM     15  C   UNL     1       1.757   7.926  20.342  0.00  0.00    +0.000 A 
ATOM     16  C   UNL     1       0.985   9.031  20.717  0.00  0.00    +0.000 A 
ENDBRANCH   1  14
BRANCH   3  17
ATOM     17  C   UNL     1       5.290   5.129  16.388  0.00  0.00    +0.000 A 
ATOM     18  C   UNL     1       6.635   5.519  16.498  0.00  0.00    +0.000 A 
ATOM     19  C   UNL     1       7.546   5.219  15.480  0.00  0.00    +0.000 A 
ATOM     20  C   UNL     1       7.123   4.537  14.340  0.00  0.00    +0.000 A 
ATOM     21  C   UNL     1       5.790   4.160  14.214  0.00  0.00    +0.000 A 
ATOM     22  C   UNL     1       4.878   4.454  15.231  0.00  0.00    +0.000 A 
ENDBRANCH   3  17
TORSDOF 2
ENDMDL
MODEL 9
REMARK VINA RESULT:      -7.6      0.969      1.511
REMARK  Name = 
REMARK  2 active torsions:
REMARK  status: ('A' for Active; 'I' for Inactive)
REMARK    1  A    between atoms: C_5  and  C_6
REMARK    2  A    between atoms: N_8  and  C_9
REMARK                            x       y       z     vdW  Elec       q    Type
REMARK                         _______ _______ _______ _____ _____    ______ ____
ROOT
ATOM      1  C   UNL     1       2.522   6.732  19.335  0.00  0.00    +0.000 A 
ATOM      2  N   UNL     1       3.287   6.765  18.232  0.00  0.00    +0.000 NA
ATOM      3  N   UNL     1       3.755   5.489  18.072  0.00  0.00    +0.000 N 
ATOM      4  C   UNL     1       3.325   4.660  19.103  0.00  0.00    +0.000 A 
ATOM      5  N   UNL     1       3.600   3.353  19.299  0.00  0.00    +0.000 NA
ATOM      6  C   UNL     1       3.038   2.863  20.413  0.00  0.00    +0.000 A 
ATOM      7  N   UNL     1       2.282   3.523  21.305  0.00  0.00    +0.000 NA
ATOM      8  C   UNL     1       2.037   4.831  21.075  0.00  0.00    +0.000 A 
ATOM      9  C   UNL     1       2.550   5.448  19.938  0.00  0.00    +0.000 A 
ENDROOT
BRANCH   1  14
ATOM     10 CL   UNL     1      -0.443  11.615  21.176  0.00  0.00    +0.000 Cl
ATOM     11  C   UNL     1       0.403  10.214  20.649  0.00  0.00    +0.000 A 
ATOM     12  C   UNL     1       0.795  10.103  19.319  0.00  0.00    +0.000 A 
ATOM     13  C   UNL     1       1.495   8.971  18.892  0.00  0.00    +0.000 A 
ATOM     14  C   UNL     1       1.793   7.928  19.784  0.00  0.00    +0.000 A 
ATOM     15  C   UNL     1       1.394   8.061  21.124  0.00  0.00    +0.000 A 
ATOM     16  C   UNL     1       0.702   9.199  21.555  0.00  0.00    +0.000 A 
ENDBRANCH   1  14
BRANCH   3  17
ATOM     17  C   UNL     1       4.590   5.165  16.955  0.00  0.00    +0.000 A 
ATOM     18  C   UNL     1       5.072   6.194  16.129  0.00  0.00    +0.000 A 
ATOM     19  C   UNL     1       5.910   5.900  15.047  0.00  0.00    +0.000 A 
ATOM     20  C   UNL     1       6.266   4.580  14.775  0.00  0.00    +0.000 A 
ATOM     21  C   UNL     1       5.781   3.553  15.578  0.00  0.00    +0.000 A 
ATOM     22  C   UNL     1       4.948   3.843  16.662  0.00  0.00    +0.000 A 
ENDBRANCH   3  17
TORSDOF 2
ENDMDL
