MODEL 1
REMARK VINA RESULT:      -7.2      0.000      0.000
REMARK  Name = 
REMARK  5 active torsions:
REMARK  status: ('A' for Active; 'I' for Inactive)
REMARK    1  A    between atoms: C_1  and  C_2
REMARK    2  A    between atoms: C_6  and  C_7
REMARK    3  A    between atoms: C_7  and  O_9
REMARK    4  A    between atoms: O_9  and  C_10
REMARK    5  A    between atoms: C_10  and  C_11
REMARK                            x       y       z     vdW  Elec       q    Type
REMARK                         _______ _______ _______ _____ _____    ______ ____
ROOT
ATOM      1  C   UNL     1       5.449   4.915  18.526  0.00  0.00    +0.000 C 
ATOM      2  O   UNL     1       5.618   3.989  19.314  0.00  0.00    +0.000 OA
ENDROOT
BRANCH   1   8
ATOM      3  C   UNL     1       7.604   7.197  17.579  0.00  0.00    +0.000 C 
ATOM      4  C   UNL     1       7.064   6.032  16.829  0.00  0.00    +0.000 A 
ATOM      5  N   UNL     1       7.519   5.849  15.527  0.00  0.00    +0.000 NA
ATOM      6  C   UNL     1       6.958   4.785  15.002  0.00  0.00    +0.000 A 
ATOM      7  S   UNL     1       5.862   3.945  16.004  0.00  0.00    +0.000 S 
ATOM      8  C   UNL     1       6.148   5.084  17.269  0.00  0.00    +0.000 A 
ENDBRANCH   1   8
BRANCH   1   9
ATOM      9  O   UNL     1       4.556   5.924  18.727  0.00  0.00    +0.000 OA
BRANCH   9  10
ATOM     10  C   UNL     1       3.335   5.846  17.977  0.00  0.00    +0.000 C 
BRANCH  10  11
ATOM     11  C   UNL     1       2.410   4.850  18.628  0.00  0.00    +0.000 A 
ATOM     12  C   UNL     1       1.925   3.734  17.929  0.00  0.00    +0.000 A 
ATOM     13  C   UNL     1       1.062   2.830  18.553  0.00  0.00    +0.000 A 
ATOM     14  C   UNL     1       0.673   3.030  19.876  0.00  0.00    +0.000 A 
ATOM     15  C   UNL     1       1.149   4.134  20.579  0.00  0.00    +0.000 A 
ATOM     16  C   UNL     1       2.010   5.040  19.959  0.00  0.00    +0.000 A 
ENDBRANCH  10  11
ENDBRANCH   9  10
ENDBRANCH   1   9
TORSDOF 4
ENDMDL
MODEL 2
REMARK VINA RESULT:      -7.2      0.138      1.212
REMARK  Name = 
REMARK  5 active torsions:
REMARK  status: ('A' for Active; 'I' for Inactive)
REMARK    1  A    between atoms: C_1  and  C_2
REMARK    2  A    between atoms: C_6  and  C_7
REMARK    3  A    between atoms: C_7  and  O_9
REMARK    4  A    between atoms: O_9  and  C_10
REMARK    5  A    between atoms: C_10  and  C_11
REMARK                            x       y       z     vdW  Elec       q    Type
REMARK                         _______ _______ _______ _____ _____    ______ ____
ROOT
ATOM      1  C   UNL     1       5.489   4.813  18.607  0.00  0.00    +0.000 C 
ATOM      2  O   UNL     1       5.634   3.831  19.329  0.00  0.00    +0.000 OA
ENDROOT
BRANCH   1   8
ATOM      3  C   UNL     1       7.597   7.138  17.659  0.00  0.00    +0.000 C 
ATOM      4  C   UNL     1       7.044   5.989  16.894  0.00  0.00    +0.000 A 
ATOM      5  N   UNL     1       7.461   5.846  15.575  0.00  0.00    +0.000 NA
ATOM      6  C   UNL     1       6.893   4.792  15.038  0.00  0.00    +0.000 A 
ATOM      7  S   UNL     1       5.834   3.915  16.049  0.00  0.00    +0.000 S 
ATOM      8  C   UNL     1       6.149   5.022  17.335  0.00  0.00    +0.000 A 
ENDBRANCH   1   8
BRANCH   1   9
ATOM      9  O   UNL     1       4.665   5.855  18.906  0.00  0.00    +0.000 OA
BRANCH   9  10
ATOM     10  C   UNL     1       3.425   5.907  18.184  0.00  0.00    +0.000 C 
BRANCH  10  11
ATOM     11  C   UNL     1       2.474   4.884  18.749  0.00  0.00    +0.000 A 
ATOM     12  C   UNL     1       1.992   4.978  20.064  0.00  0.00    +0.000 A 
ATOM     13  C   UNL     1       1.117   4.013  20.567  0.00  0.00    +0.000 A 
ATOM     14  C   UNL     1       0.715   2.945  19.767  0.00  0.00    +0.000 A 
ATOM     15  C   UNL     1       1.186   2.842  18.460  0.00  0.00    +0.000 A 
ATOM     16  C   UNL     1       2.062   3.803  17.955  0.00  0.00    +0.000 A 
ENDBRANCH  10  11
ENDBRANCH   9  10
ENDBRANCH   1   9
TORSDOF 4
ENDMDL
MODEL 3
REMARK VINA RESULT:      -6.8      1.882      2.590
REMARK  Name = 
REMARK  5 active torsions:
REMARK  status: ('A' for Active; 'I' for Inactive)
REMARK    1  A    between atoms: C_1  and  C_2
REMARK    2  A    between atoms: C_6  and  C_7
REMARK    3  A    between atoms: C_7  and  O_9
REMARK    4  A    between atoms: O_9  and  C_10
REMARK    5  A    between atoms: C_10  and  C_11
REMARK                            x       y       z     vdW  Elec       q    Type
REMARK                         _______ _______ _______ _____ _____    ______ ____
ROOT
ATOM      1  C   UNL     1       4.007   4.781  17.277  0.00  0.00    +0.000 C 
ATOM      2  O   UNL     1       3.333   5.766  17.561  0.00  0.00    +0.000 OA
ENDROOT
BRANCH   1   8
ATOM      3  C   UNL     1       6.159   4.002  14.930  0.00  0.00    +0.000 C 
ATOM      4  C   UNL     1       6.398   4.394  16.344  0.00  0.00    +0.000 A 
ATOM      5  N   UNL     1       7.720   4.451  16.773  0.00  0.00    +0.000 NA
ATOM      6  C   UNL     1       7.768   4.812  18.033  0.00  0.00    +0.000 A 
ATOM      7  S   UNL     1       6.264   5.099  18.787  0.00  0.00    +0.000 S 
ATOM      8  C   UNL     1       5.454   4.718  17.311  0.00  0.00    +0.000 A 
ENDBRANCH   1   8
BRANCH   1   9
ATOM      9  O   UNL     1       3.476   3.586  16.894  0.00  0.00    +0.000 OA
BRANCH   9  10
ATOM     10  C   UNL     1       3.692   2.484  17.786  0.00  0.00    +0.000 C 
BRANCH  10  11
ATOM     11  C   UNL     1       2.836   2.658  19.015  0.00  0.00    +0.000 A 
ATOM     12  C   UNL     1       1.450   2.861  18.919  0.00  0.00    +0.000 A 
ATOM     13  C   UNL     1       0.679   3.028  20.072  0.00  0.00    +0.000 A 
ATOM     14  C   UNL     1       1.281   2.995  21.328  0.00  0.00    +0.000 A 
ATOM     15  C   UNL     1       2.655   2.793  21.435  0.00  0.00    +0.000 A 
ATOM     16  C   UNL     1       3.429   2.629  20.285  0.00  0.00    +0.000 A 
ENDBRANCH  10  11
ENDBRANCH   9  10
ENDBRANCH   1   9
TORSDOF 4
ENDMDL
MODEL 4
REMARK VINA RESULT:      -6.6      1.847      2.659
REMARK  Name = 
REMARK  5 active torsions:
REMARK  status: ('A' for Active; 'I' for Inactive)
REMARK    1  A    between atoms: C_1  and  C_2
REMARK    2  A    between atoms: C_6  and  C_7
REMARK    3  A    between atoms: C_7  and  O_9
REMARK    4  A    between atoms: O_9  and  C_10
REMARK    5  A    between atoms: C_10  and  C_11
REMARK                            x       y       z     vdW  Elec       q    Type
REMARK                         _______ _______ _______ _____ _____    ______ ____
ROOT
ATOM      1  C   UNL     1       4.105   5.084  17.304  0.00  0.00    +0.000 C 
ATOM      2  O   UNL     1       3.517   6.140  17.519  0.00  0.00    +0.000 OA
ENDROOT
BRANCH   1   8
ATOM      3  C   UNL     1       6.228   4.163  14.982  0.00  0.00    +0.000 C 
ATOM      4  C   UNL     1       6.472   4.509  16.407  0.00  0.00    +0.000 A 
ATOM      5  N   UNL     1       7.785   4.446  16.861  0.00  0.00    +0.000 NA
ATOM      6  C   UNL     1       7.838   4.781  18.128  0.00  0.00    +0.000 A 
ATOM      7  S   UNL     1       6.350   5.182  18.860  0.00  0.00    +0.000 S 
ATOM      8  C   UNL     1       5.539   4.897  17.363  0.00  0.00    +0.000 A 
ENDBRANCH   1   8
BRANCH   1   9
ATOM      9  O   UNL     1       3.473   3.920  16.983  0.00  0.00    +0.000 OA
BRANCH   9  10
ATOM     10  C   UNL     1       3.774   2.790  17.815  0.00  0.00    +0.000 C 
BRANCH  10  11
ATOM     11  C   UNL     1       2.907   2.829  19.047  0.00  0.00    +0.000 A 
ATOM     12  C   UNL     1       3.456   2.704  20.333  0.00  0.00    +0.000 A 
ATOM     13  C   UNL     1       2.630   2.736  21.460  0.00  0.00    +0.000 A 
ATOM     14  C   UNL     1       1.253   2.891  21.315  0.00  0.00    +0.000 A 
ATOM     15  C   UNL     1       0.698   3.017  20.044  0.00  0.00    +0.000 A 
ATOM     16  C   UNL     1       1.519   2.983  18.916  0.00  0.00    +0.000 A 
ENDBRANCH  10  11
ENDBRANCH   9  10
ENDBRANCH   1   9
TORSDOF 4
ENDMDL
MODEL 5
REMARK VINA RESULT:      -6.6      0.982      1.419
REMARK  Name = 
REMARK  5 active torsions:
REMARK  status: ('A' for Active; 'I' for Inactive)
REMARK    1  A    between atoms: C_1  and  C_2
REMARK    2  A    between atoms: C_6  and  C_7
REMARK    3  A    between atoms: C_7  and  O_9
REMARK    4  A    between atoms: O_9  and  C_10
REMARK    5  A    between atoms: C_10  and  C_11
REMARK                            x       y       z     vdW  Elec       q    Type
REMARK                         _______ _______ _______ _____ _____    ______ ____
ROOT
ATOM      1  C   UNL     1       4.534   5.839  17.917  0.00  0.00    +0.000 C 
ATOM      2  O   UNL     1       3.465   6.393  17.675  0.00  0.00    +0.000 OA
ENDROOT
BRANCH   1   8
ATOM      3  C   UNL     1       7.491   7.208  17.554  0.00  0.00    +0.000 C 
ATOM      4  C   UNL     1       6.839   6.132  16.761  0.00  0.00    +0.000 A 
ATOM      5  N   UNL     1       7.562   5.600  15.698  0.00  0.00    +0.000 NA
ATOM      6  C   UNL     1       6.860   4.665  15.103  0.00  0.00    +0.000 A 
ATOM      7  S   UNL     1       5.311   4.363  15.753  0.00  0.00    +0.000 S 
ATOM      8  C   UNL     1       5.578   5.577  16.949  0.00  0.00    +0.000 A 
ENDBRANCH   1   8
BRANCH   1   9
ATOM      9  O   UNL     1       4.892   5.396  19.154  0.00  0.00    +0.000 OA
BRANCH   9  10
ATOM     10  C   UNL     1       4.803   3.980  19.368  0.00  0.00    +0.000 C 
BRANCH  10  11
ATOM     11  C   UNL     1       3.354   3.580  19.479  0.00  0.00    +0.000 A 
ATOM     12  C   UNL     1       2.765   2.696  18.562  0.00  0.00    +0.000 A 
ATOM     13  C   UNL     1       1.417   2.347  18.682  0.00  0.00    +0.000 A 
ATOM     14  C   UNL     1       0.645   2.876  19.714  0.00  0.00    +0.000 A 
ATOM     15  C   UNL     1       1.220   3.754  20.631  0.00  0.00    +0.000 A 
ATOM     16  C   UNL     1       2.565   4.106  20.513  0.00  0.00    +0.000 A 
ENDBRANCH  10  11
ENDBRANCH   9  10
ENDBRANCH   1   9
TORSDOF 4
ENDMDL
MODEL 6
REMARK VINA RESULT:      -6.5      1.001      1.853
REMARK  Name = 
REMARK  5 active torsions:
REMARK  status: ('A' for Active; 'I' for Inactive)
REMARK    1  A    between atoms: C_1  and  C_2
REMARK    2  A    between atoms: C_6  and  C_7
REMARK    3  A    between atoms: C_7  and  O_9
REMARK    4  A    between atoms: O_9  and  C_10
REMARK    5  A    between atoms: C_10  and  C_11
REMARK                            x       y       z     vdW  Elec       q    Type
REMARK                         _______ _______ _______ _____ _____    ______ ____
ROOT
ATOM      1  C   UNL     1       4.607   5.681  17.908  0.00  0.00    +0.000 C 
ATOM      2  O   UNL     1       3.526   6.230  17.722  0.00  0.00    +0.000 OA
ENDROOT
BRANCH   1   8
ATOM      3  C   UNL     1       7.520   7.134  17.517  0.00  0.00    +0.000 C 
ATOM      4  C   UNL     1       6.871   6.074  16.701  0.00  0.00    +0.000 A 
ATOM      5  N   UNL     1       7.575   5.601  15.599  0.00  0.00    +0.000 NA
ATOM      6  C   UNL     1       6.879   4.673  14.987  0.00  0.00    +0.000 A 
ATOM      7  S   UNL     1       5.357   4.308  15.667  0.00  0.00    +0.000 S 
ATOM      8  C   UNL     1       5.630   5.482  16.902  0.00  0.00    +0.000 A 
ENDBRANCH   1   8
BRANCH   1   9
ATOM      9  O   UNL     1       5.004   5.182  19.113  0.00  0.00    +0.000 OA
BRANCH   9  10
ATOM     10  C   UNL     1       4.810   3.773  19.306  0.00  0.00    +0.000 C 
BRANCH  10  11
ATOM     11  C   UNL     1       3.339   3.487  19.465  0.00  0.00    +0.000 A 
ATOM     12  C   UNL     1       2.590   4.058  20.506  0.00  0.00    +0.000 A 
ATOM     13  C   UNL     1       1.229   3.770  20.637  0.00  0.00    +0.000 A 
ATOM     14  C   UNL     1       0.603   2.912  19.735  0.00  0.00    +0.000 A 
ATOM     15  C   UNL     1       1.337   2.341  18.698  0.00  0.00    +0.000 A 
ATOM     16  C   UNL     1       2.697   2.623  18.565  0.00  0.00    +0.000 A 
ENDBRANCH  10  11
ENDBRANCH   9  10
ENDBRANCH   1   9
TORSDOF 4
ENDMDL
MODEL 7
REMARK VINA RESULT:      -6.5      1.654      2.178
REMARK  Name = 
REMARK  5 active torsions:
REMARK  status: ('A' for Active; 'I' for Inactive)
REMARK    1  A    between atoms: C_1  and  C_2
REMARK    2  A    between atoms: C_6  and  C_7
REMARK    3  A    between atoms: C_7  and  O_9
REMARK    4  A    between atoms: O_9  and  C_10
REMARK    5  A    between atoms: C_10  and  C_11
REMARK                            x       y       z     vdW  Elec       q    Type
REMARK                         _______ _______ _______ _____ _____    ______ ____
ROOT
ATOM      1  C   UNL     1       4.486   6.260  17.049  0.00  0.00    +0.000 C 
ATOM      2  O   UNL     1       4.320   7.432  16.724  0.00  0.00    +0.000 OA
ENDROOT
BRANCH   1   8
ATOM      3  C   UNL     1       6.312   4.884  14.699  0.00  0.00    +0.000 C 
ATOM      4  C   UNL     1       6.568   4.991  16.160  0.00  0.00    +0.000 A 
ATOM      5  N   UNL     1       7.751   4.437  16.639  0.00  0.00    +0.000 NA
ATOM      6  C   UNL     1       7.835   4.614  17.936  0.00  0.00    +0.000 A 
ATOM      7  S   UNL     1       6.529   5.433  18.667  0.00  0.00    +0.000 S 
ATOM      8  C   UNL     1       5.765   5.585  17.126  0.00  0.00    +0.000 A 
ENDBRANCH   1   8
BRANCH   1   9
ATOM      9  O   UNL     1       3.470   5.421  17.397  0.00  0.00    +0.000 OA
BRANCH   9  10
ATOM     10  C   UNL     1       2.540   5.925  18.367  0.00  0.00    +0.000 C 
BRANCH  10  11
ATOM     11  C   UNL     1       2.094   4.800  19.265  0.00  0.00    +0.000 A 
ATOM     12  C   UNL     1       1.327   3.732  18.775  0.00  0.00    +0.000 A 
ATOM     13  C   UNL     1       0.919   2.705  19.630  0.00  0.00    +0.000 A 
ATOM     14  C   UNL     1       1.269   2.733  20.978  0.00  0.00    +0.000 A 
ATOM     15  C   UNL     1       2.031   3.788  21.475  0.00  0.00    +0.000 A 
ATOM     16  C   UNL     1       2.438   4.817  20.625  0.00  0.00    +0.000 A 
ENDBRANCH  10  11
ENDBRANCH   9  10
ENDBRANCH   1   9
TORSDOF 4
ENDMDL
MODEL 8
REMARK VINA RESULT:      -6.5      1.665      2.457
REMARK  Name = 
REMARK  5 active torsions:
REMARK  status: ('A' for Active; 'I' for Inactive)
REMARK    1  A    between atoms: C_1  and  C_2
REMARK    2  A    between atoms: C_6  and  C_7
REMARK    3  A    between atoms: C_7  and  O_9
REMARK    4  A    between atoms: O_9  and  C_10
REMARK    5  A    between atoms: C_10  and  C_11
REMARK                            x       y       z     vdW  Elec       q    Type
REMARK                         _______ _______ _______ _____ _____    ______ ____
ROOT
ATOM      1  C   UNL     1       4.456   6.214  17.223  0.00  0.00    +0.000 C 
ATOM      2  O   UNL     1       4.274   7.416  17.054  0.00  0.00    +0.000 OA
ENDROOT
BRANCH   1   8
ATOM      3  C   UNL     1       6.281   4.925  14.825  0.00  0.00    +0.000 C 
ATOM      4  C   UNL     1       6.551   5.004  16.285  0.00  0.00    +0.000 A 
ATOM      5  N   UNL     1       7.748   4.461  16.740  0.00  0.00    +0.000 NA
ATOM      6  C   UNL     1       7.843   4.610  18.040  0.00  0.00    +0.000 A 
ATOM      7  S   UNL     1       6.529   5.389  18.801  0.00  0.00    +0.000 S 
ATOM      8  C   UNL     1       5.748   5.562  17.272  0.00  0.00    +0.000 A 
ENDBRANCH   1   8
BRANCH   1   9
ATOM      9  O   UNL     1       3.448   5.315  17.400  0.00  0.00    +0.000 OA
BRANCH   9  10
ATOM     10  C   UNL     1       2.335   5.762  18.188  0.00  0.00    +0.000 C 
BRANCH  10  11
ATOM     11  C   UNL     1       2.002   4.718  19.224  0.00  0.00    +0.000 A 
ATOM     12  C   UNL     1       2.423   4.849  20.556  0.00  0.00    +0.000 A 
ATOM     13  C   UNL     1       2.109   3.863  21.496  0.00  0.00    +0.000 A 
ATOM     14  C   UNL     1       1.376   2.741  21.116  0.00  0.00    +0.000 A 
ATOM     15  C   UNL     1       0.952   2.602  19.797  0.00  0.00    +0.000 A 
ATOM     16  C   UNL     1       1.266   3.583  18.855  0.00  0.00    +0.000 A 
ENDBRANCH  10  11
ENDBRANCH   9  10
ENDBRANCH   1   9
TORSDOF 4
ENDMDL
MODEL 9
REMARK VINA RESULT:      -6.4      0.967      1.508
REMARK  Name = 
REMARK  5 active torsions:
REMARK  status: ('A' for Active; 'I' for Inactive)
REMARK    1  A    between atoms: C_1  and  C_2
REMARK    2  A    between atoms: C_6  and  C_7
REMARK    3  A    between atoms: C_7  and  O_9
REMARK    4  A    between atoms: O_9  and  C_10
REMARK    5  A    between atoms: C_10  and  C_11
REMARK                            x       y       z     vdW  Elec       q    Type
REMARK                         _______ _______ _______ _____ _____    ______ ____
ROOT
ATOM      1  C   UNL     1       4.944   4.397  17.481  0.00  0.00    +0.000 C 
ATOM      2  O   UNL     1       5.183   3.713  18.472  0.00  0.00    +0.000 OA
ENDROOT
BRANCH   1   8
ATOM      3  C   UNL     1       7.305   6.670  17.419  0.00  0.00    +0.000 C 
ATOM      4  C   UNL     1       6.909   5.684  16.378  0.00  0.00    +0.000 A 
ATOM      5  N   UNL     1       7.625   5.697  15.186  0.00  0.00    +0.000 NA
ATOM      6  C   UNL     1       7.163   4.774  14.376  0.00  0.00    +0.000 A 
ATOM      7  S   UNL     1       5.859   3.844  14.966  0.00  0.00    +0.000 S 
ATOM      8  C   UNL     1       5.898   4.733  16.445  0.00  0.00    +0.000 A 
ENDBRANCH   1   8
BRANCH   1   9
ATOM      9  O   UNL     1       3.721   4.934  17.213  0.00  0.00    +0.000 OA
BRANCH   9  10
ATOM     10  C   UNL     1       3.110   5.677  18.278  0.00  0.00    +0.000 C 
BRANCH  10  11
ATOM     11  C   UNL     1       2.400   4.727  19.208  0.00  0.00    +0.000 A 
ATOM     12  C   UNL     1       2.658   4.722  20.588  0.00  0.00    +0.000 A 
ATOM     13  C   UNL     1       1.992   3.826  21.428  0.00  0.00    +0.000 A 
ATOM     14  C   UNL     1       1.067   2.928  20.902  0.00  0.00    +0.000 A 
ATOM     15  C   UNL     1       0.802   2.924  19.535  0.00  0.00    +0.000 A 
ATOM     16  C   UNL     1       1.467   3.816  18.692  0.00  0.00    +0.000 A 
ENDBRANCH  10  11
ENDBRANCH   9  10
ENDBRANCH   1   9
TORSDOF 4
ENDMDL
