MODEL 1
REMARK VINA RESULT:      -9.3      0.000      0.000
REMARK  Name = 
REMARK  8 active torsions:
REMARK  status: ('A' for Active; 'I' for Inactive)
REMARK    1  A    between atoms: C_5  and  N_6
REMARK    2  A    between atoms: N_9  and  C_10
REMARK    3  A    between atoms: C_10  and  C_11
REMARK    4  A    between atoms: C_11  and  C_12
REMARK    5  A    between atoms: C_12  and  O_13
REMARK    6  A    between atoms: O_13  and  C_14
REMARK    7  A    between atoms: N_23  and  C_24
REMARK    8  A    between atoms: C_24  and  C_25
REMARK                            x       y       z     vdW  Elec       q    Type
REMARK                         _______ _______ _______ _____ _____    ______ ____
ROOT
ATOM      1  O   UNL     1       2.414   6.295  20.048  0.00  0.00    +0.000 OA
ENDROOT
BRANCH   1   2
ATOM      2  C   UNL     1       1.913   7.564  19.995  0.00  0.00    +0.000 A 
ATOM      3  C   UNL     1       1.978   8.397  18.885  0.00  0.00    +0.000 A 
ATOM      4  C   UNL     1       1.378   9.655  18.925  0.00  0.00    +0.000 A 
ATOM      5  C   UNL     1       0.718  10.120  20.071  0.00  0.00    +0.000 A 
ATOM      6  C   UNL     1       0.693   9.276  21.202  0.00  0.00    +0.000 A 
ATOM      7  C   UNL     1       1.302   8.013  21.160  0.00  0.00    +0.000 A 
ATOM      8  C   UNL     1       0.021   9.706  22.482  0.00  0.00    +0.000 C 
ATOM      9  C   UNL     1      -0.891  10.909  22.282  0.00  0.00    +0.000 C 
ATOM     10  C   UNL     1      -0.198  11.944  21.412  0.00  0.00    +0.000 C 
ATOM     11  N   UNL     1       0.117  11.371  20.110  0.00  0.00    +0.000 N 
BRANCH  11  12
ATOM     12  C   UNL     1      -0.413  12.002  18.902  0.00  0.00    +0.000 C 
BRANCH  12  13
ATOM     13  C   UNL     1      -1.794  11.524  18.503  0.00  0.00    +0.000 A 
ATOM     14  C   UNL     1      -2.979  12.062  19.025  0.00  0.00    +0.000 A 
ATOM     15  C   UNL     1      -4.224  11.567  18.633  0.00  0.00    +0.000 A 
ATOM     16  C   UNL     1      -4.304  10.530  17.707  0.00  0.00    +0.000 A 
ATOM     17  C   UNL     1      -3.139   9.990  17.168  0.00  0.00    +0.000 A 
ATOM     18  C   UNL     1      -1.893  10.482  17.563  0.00  0.00    +0.000 A 
ENDBRANCH  12  13
ENDBRANCH  11  12
ENDBRANCH   1   2
BRANCH   1  19
ATOM     19  C   UNL     1       1.594   5.374  20.768  0.00  0.00    +0.000 C 
BRANCH  19  20
ATOM     20  C   UNL     1       2.388   4.089  20.930  0.00  0.00    +0.000 C 
BRANCH  20  21
ATOM     21  C   UNL     1       1.832   2.975  20.049  0.00  0.00    +0.000 C 
BRANCH  21  25
ATOM     22  N   UNL     1       4.167   3.985  17.532  0.00  0.00    +0.000 N 
ATOM     23  C   UNL     1       2.880   3.359  17.191  0.00  0.00    +0.000 C 
ATOM     24  C   UNL     1       2.707   2.027  17.949  0.00  0.00    +0.000 C 
ATOM     25  N   UNL     1       2.870   2.140  19.419  0.00  0.00    +0.000 NA
ATOM     26  C   UNL     1       4.216   2.712  19.672  0.00  0.00    +0.000 C 
ATOM     27  C   UNL     1       4.496   4.063  18.966  0.00  0.00    +0.000 C 
BRANCH  22  32
ATOM     28  F   UNL     1       7.999   5.228  13.737  0.00  0.00    +0.000 F 
ATOM     29  C   UNL     1       7.071   4.926  14.654  0.00  0.00    +0.000 A 
ATOM     30  C   UNL     1       7.303   5.219  15.988  0.00  0.00    +0.000 A 
ATOM     31  C   UNL     1       6.329   4.901  16.939  0.00  0.00    +0.000 A 
ATOM     32  C   UNL     1       5.117   4.288  16.579  0.00  0.00    +0.000 A 
ATOM     33  C   UNL     1       4.921   4.010  15.217  0.00  0.00    +0.000 A 
ATOM     34  C   UNL     1       5.888   4.323  14.260  0.00  0.00    +0.000 A 
ENDBRANCH  22  32
ENDBRANCH  21  25
ENDBRANCH  20  21
ENDBRANCH  19  20
ENDBRANCH   1  19
TORSDOF 8
ENDMDL
MODEL 2
REMARK VINA RESULT:      -8.9      1.446      2.161
REMARK  Name = 
REMARK  8 active torsions:
REMARK  status: ('A' for Active; 'I' for Inactive)
REMARK    1  A    between atoms: C_5  and  N_6
REMARK    2  A    between atoms: N_9  and  C_10
REMARK    3  A    between atoms: C_10  and  C_11
REMARK    4  A    between atoms: C_11  and  C_12
REMARK    5  A    between atoms: C_12  and  O_13
REMARK    6  A    between atoms: O_13  and  C_14
REMARK    7  A    between atoms: N_23  and  C_24
REMARK    8  A    between atoms: C_24  and  C_25
REMARK                            x       y       z     vdW  Elec       q    Type
REMARK                         _______ _______ _______ _____ _____    ______ ____
ROOT
ATOM      1  O   UNL     1       2.795   6.568  18.428  0.00  0.00    +0.000 OA
ENDROOT
BRANCH   1   2
ATOM      2  C   UNL     1       2.232   7.779  18.713  0.00  0.00    +0.000 A 
ATOM      3  C   UNL     1       2.126   8.835  17.816  0.00  0.00    +0.000 A 
ATOM      4  C   UNL     1       1.477  10.008  18.199  0.00  0.00    +0.000 A 
ATOM      5  C   UNL     1       0.939  10.166  19.483  0.00  0.00    +0.000 A 
ATOM      6  C   UNL     1       1.088   9.098  20.393  0.00  0.00    +0.000 A 
ATOM      7  C   UNL     1       1.746   7.921  20.007  0.00  0.00    +0.000 A 
ATOM      8  C   UNL     1       0.554   9.192  21.801  0.00  0.00    +0.000 C 
ATOM      9  C   UNL     1      -0.430  10.342  21.972  0.00  0.00    +0.000 C 
ATOM     10  C   UNL     1       0.106  11.587  21.286  0.00  0.00    +0.000 C 
ATOM     11  N   UNL     1       0.289  11.333  19.863  0.00  0.00    +0.000 N 
BRANCH  11  12
ATOM     12  C   UNL     1      -0.410  12.171  18.890  0.00  0.00    +0.000 C 
BRANCH  12  13
ATOM     13  C   UNL     1      -1.800  11.684  18.533  0.00  0.00    +0.000 A 
ATOM     14  C   UNL     1      -2.054  10.751  17.516  0.00  0.00    +0.000 A 
ATOM     15  C   UNL     1      -3.359  10.354  17.219  0.00  0.00    +0.000 A 
ATOM     16  C   UNL     1      -4.430  10.879  17.938  0.00  0.00    +0.000 A 
ATOM     17  C   UNL     1      -4.198  11.797  18.958  0.00  0.00    +0.000 A 
ATOM     18  C   UNL     1      -2.893  12.198  19.253  0.00  0.00    +0.000 A 
ENDBRANCH  12  13
ENDBRANCH  11  12
ENDBRANCH   1   2
BRANCH   1  19
ATOM     19  C   UNL     1       2.332   5.501  19.257  0.00  0.00    +0.000 C 
BRANCH  19  20
ATOM     20  C   UNL     1       3.530   4.970  20.025  0.00  0.00    +0.000 C 
BRANCH  20  21
ATOM     21  C   UNL     1       4.843   5.380  19.366  0.00  0.00    +0.000 C 
BRANCH  21  25
ATOM     22  N   UNL     1       5.814   4.888  15.956  0.00  0.00    +0.000 N 
ATOM     23  C   UNL     1       4.577   4.310  16.502  0.00  0.00    +0.000 C 
ATOM     24  C   UNL     1       4.874   3.496  17.777  0.00  0.00    +0.000 C 
ATOM     25  N   UNL     1       5.614   4.250  18.820  0.00  0.00    +0.000 NA
ATOM     26  C   UNL     1       6.874   4.733  18.205  0.00  0.00    +0.000 C 
ATOM     27  C   UNL     1       6.693   5.577  16.918  0.00  0.00    +0.000 C 
BRANCH  22  32
ATOM     28  F   UNL     1       7.586   3.869  10.813  0.00  0.00    +0.000 F 
ATOM     29  C   UNL     1       7.157   4.114  12.057  0.00  0.00    +0.000 A 
ATOM     30  C   UNL     1       7.799   5.068  12.830  0.00  0.00    +0.000 A 
ATOM     31  C   UNL     1       7.344   5.318  14.129  0.00  0.00    +0.000 A 
ATOM     32  C   UNL     1       6.250   4.624  14.675  0.00  0.00    +0.000 A 
ATOM     33  C   UNL     1       5.627   3.668  13.858  0.00  0.00    +0.000 A 
ATOM     34  C   UNL     1       6.074   3.410  12.561  0.00  0.00    +0.000 A 
ENDBRANCH  22  32
ENDBRANCH  21  25
ENDBRANCH  20  21
ENDBRANCH  19  20
ENDBRANCH   1  19
TORSDOF 8
ENDMDL
MODEL 3
REMARK VINA RESULT:      -8.7      3.360      9.385
REMARK  Name = 
REMARK  8 active torsions:
REMARK  status: ('A' for Active; 'I' for Inactive)
REMARK    1  A    between atoms: C_5  and  N_6
REMARK    2  A    between atoms: N_9  and  C_10
REMARK    3  A    between atoms: C_10  and  C_11
REMARK    4  A    between atoms: C_11  and  C_12
REMARK    5  A    between atoms: C_12  and  O_13
REMARK    6  A    between atoms: O_13  and  C_14
REMARK    7  A    between atoms: N_23  and  C_24
REMARK    8  A    between atoms: C_24  and  C_25
REMARK                            x       y       z     vdW  Elec       q    Type
REMARK                         _______ _______ _______ _____ _____    ______ ____
ROOT
ATOM      1  O   UNL     1       1.387   8.390  21.208  0.00  0.00    +0.000 OA
ENDROOT
BRANCH   1   2
ATOM      2  C   UNL     1       1.851   7.484  20.298  0.00  0.00    +0.000 A 
ATOM      3  C   UNL     1       2.329   7.804  19.032  0.00  0.00    +0.000 A 
ATOM      4  C   UNL     1       2.835   6.800  18.207  0.00  0.00    +0.000 A 
ATOM      5  C   UNL     1       2.859   5.458  18.611  0.00  0.00    +0.000 A 
ATOM      6  C   UNL     1       2.336   5.146  19.884  0.00  0.00    +0.000 A 
ATOM      7  C   UNL     1       1.823   6.157  20.709  0.00  0.00    +0.000 A 
ATOM      8  C   UNL     1       2.307   3.724  20.388  0.00  0.00    +0.000 C 
ATOM      9  C   UNL     1       3.202   2.801  19.572  0.00  0.00    +0.000 C 
ATOM     10  C   UNL     1       3.014   3.077  18.090  0.00  0.00    +0.000 C 
ATOM     11  N   UNL     1       3.367   4.459  17.791  0.00  0.00    +0.000 N 
BRANCH  11  12
ATOM     12  C   UNL     1       4.414   4.734  16.808  0.00  0.00    +0.000 C 
BRANCH  12  13
ATOM     13  C   UNL     1       5.643   5.413  17.379  0.00  0.00    +0.000 A 
ATOM     14  C   UNL     1       6.382   4.894  18.452  0.00  0.00    +0.000 A 
ATOM     15  C   UNL     1       7.497   5.574  18.947  0.00  0.00    +0.000 A 
ATOM     16  C   UNL     1       7.892   6.780  18.374  0.00  0.00    +0.000 A 
ATOM     17  C   UNL     1       7.177   7.305  17.301  0.00  0.00    +0.000 A 
ATOM     18  C   UNL     1       6.060   6.627  16.807  0.00  0.00    +0.000 A 
ENDBRANCH  12  13
ENDBRANCH  11  12
ENDBRANCH   1   2
BRANCH   1  19
ATOM     19  C   UNL     1       0.084   8.095  21.711  0.00  0.00    +0.000 C 
BRANCH  19  20
ATOM     20  C   UNL     1      -0.455   9.364  22.347  0.00  0.00    +0.000 C 
BRANCH  20  21
ATOM     21  C   UNL     1       0.309  10.596  21.872  0.00  0.00    +0.000 C 
BRANCH  21  25
ATOM     22  N   UNL     1       1.520  13.331  19.907  0.00  0.00    +0.000 N 
ATOM     23  C   UNL     1       1.043  13.517  21.286  0.00  0.00    +0.000 C 
ATOM     24  C   UNL     1      -0.372  12.928  21.456  0.00  0.00    +0.000 C 
ATOM     25  N   UNL     1      -0.492  11.509  21.038  0.00  0.00    +0.000 NA
ATOM     26  C   UNL     1      -0.060  11.427  19.621  0.00  0.00    +0.000 C 
ATOM     27  C   UNL     1       1.358  11.983  19.336  0.00  0.00    +0.000 C 
BRANCH  22  32
ATOM     28  F   UNL     1       3.067  17.563  16.692  0.00  0.00    +0.000 F 
ATOM     29  C   UNL     1       2.691  16.540  17.470  0.00  0.00    +0.000 A 
ATOM     30  C   UNL     1       3.487  15.408  17.550  0.00  0.00    +0.000 A 
ATOM     31  C   UNL     1       3.087  14.344  18.365  0.00  0.00    +0.000 A 
ATOM     32  C   UNL     1       1.894  14.390  19.107  0.00  0.00    +0.000 A 
ATOM     33  C   UNL     1       1.118  15.554  18.999  0.00  0.00    +0.000 A 
ATOM     34  C   UNL     1       1.508  16.622  18.188  0.00  0.00    +0.000 A 
ENDBRANCH  22  32
ENDBRANCH  21  25
ENDBRANCH  20  21
ENDBRANCH  19  20
ENDBRANCH   1  19
TORSDOF 8
ENDMDL
MODEL 4
REMARK VINA RESULT:      -8.6      3.579      9.883
REMARK  Name = 
REMARK  8 active torsions:
REMARK  status: ('A' for Active; 'I' for Inactive)
REMARK    1  A    between atoms: C_5  and  N_6
REMARK    2  A    between atoms: N_9  and  C_10
REMARK    3  A    between atoms: C_10  and  C_11
REMARK    4  A    between atoms: C_11  and  C_12
REMARK    5  A    between atoms: C_12  and  O_13
REMARK    6  A    between atoms: O_13  and  C_14
REMARK    7  A    between atoms: N_23  and  C_24
REMARK    8  A    between atoms: C_24  and  C_25
REMARK                            x       y       z     vdW  Elec       q    Type
REMARK                         _______ _______ _______ _____ _____    ______ ____
ROOT
ATOM      1  O   UNL     1       1.347   8.700  20.305  0.00  0.00    +0.000 OA
ENDROOT
BRANCH   1   2
ATOM      2  C   UNL     1       1.950   7.666  19.648  0.00  0.00    +0.000 A 
ATOM      3  C   UNL     1       2.559   7.765  18.402  0.00  0.00    +0.000 A 
ATOM      4  C   UNL     1       3.197   6.654  17.852  0.00  0.00    +0.000 A 
ATOM      5  C   UNL     1       3.228   5.420  18.516  0.00  0.00    +0.000 A 
ATOM      6  C   UNL     1       2.573   5.327  19.762  0.00  0.00    +0.000 A 
ATOM      7  C   UNL     1       1.928   6.445  20.310  0.00  0.00    +0.000 A 
ATOM      8  C   UNL     1       2.543   4.031  20.533  0.00  0.00    +0.000 C 
ATOM      9  C   UNL     1       3.564   3.025  20.017  0.00  0.00    +0.000 C 
ATOM     10  C   UNL     1       3.538   2.997  18.498  0.00  0.00    +0.000 C 
ATOM     11  N   UNL     1       3.867   4.314  17.970  0.00  0.00    +0.000 N 
BRANCH  11  12
ATOM     12  C   UNL     1       5.009   4.459  17.068  0.00  0.00    +0.000 C 
BRANCH  12  13
ATOM     13  C   UNL     1       6.123   5.335  17.607  0.00  0.00    +0.000 A 
ATOM     14  C   UNL     1       6.861   5.023  18.758  0.00  0.00    +0.000 A 
ATOM     15  C   UNL     1       7.865   5.879  19.218  0.00  0.00    +0.000 A 
ATOM     16  C   UNL     1       8.148   7.056  18.530  0.00  0.00    +0.000 A 
ATOM     17  C   UNL     1       7.433   7.377  17.379  0.00  0.00    +0.000 A 
ATOM     18  C   UNL     1       6.428   6.524  16.921  0.00  0.00    +0.000 A 
ENDBRANCH  12  13
ENDBRANCH  11  12
ENDBRANCH   1   2
BRANCH   1  19
ATOM     19  C   UNL     1       0.807   8.346  21.578  0.00  0.00    +0.000 C 
BRANCH  19  20
ATOM     20  C   UNL     1      -0.179   9.432  21.972  0.00  0.00    +0.000 C 
BRANCH  20  21
ATOM     21  C   UNL     1      -0.490  10.356  20.799  0.00  0.00    +0.000 C 
BRANCH  21  25
ATOM     22  N   UNL     1       0.400  13.531  19.408  0.00  0.00    +0.000 N 
ATOM     23  C   UNL     1       1.080  12.984  20.592  0.00  0.00    +0.000 C 
ATOM     24  C   UNL     1       0.054  12.595  21.675  0.00  0.00    +0.000 C 
ATOM     25  N   UNL     1      -1.009  11.675  21.201  0.00  0.00    +0.000 NA
ATOM     26  C   UNL     1      -1.685  12.334  20.057  0.00  0.00    +0.000 C 
ATOM     27  C   UNL     1      -0.748  12.760  18.899  0.00  0.00    +0.000 C 
BRANCH  22  32
ATOM     28  F   UNL     1       1.416  18.606  17.447  0.00  0.00    +0.000 F 
ATOM     29  C   UNL     1       1.172  17.378  17.922  0.00  0.00    +0.000 A 
ATOM     30  C   UNL     1      -0.133  16.987  18.177  0.00  0.00    +0.000 A 
ATOM     31  C   UNL     1      -0.379  15.703  18.672  0.00  0.00    +0.000 A 
ATOM     32  C   UNL     1       0.664  14.795  18.922  0.00  0.00    +0.000 A 
ATOM     33  C   UNL     1       1.970  15.230  18.648  0.00  0.00    +0.000 A 
ATOM     34  C   UNL     1       2.227  16.510  18.155  0.00  0.00    +0.000 A 
ENDBRANCH  22  32
ENDBRANCH  21  25
ENDBRANCH  20  21
ENDBRANCH  19  20
ENDBRANCH   1  19
TORSDOF 8
ENDMDL
MODEL 5
REMARK VINA RESULT:      -8.5      7.762      9.940
REMARK  Name = 
REMARK  8 active torsions:
REMARK  status: ('A' for Active; 'I' for Inactive)
REMARK    1  A    between atoms: C_5  and  N_6
REMARK    2  A    between atoms: N_9  and  C_10
REMARK    3  A    between atoms: C_10  and  C_11
REMARK    4  A    between atoms: C_11  and  C_12
REMARK    5  A    between atoms: C_12  and  O_13
REMARK    6  A    between atoms: O_13  and  C_14
REMARK    7  A    between atoms: N_23  and  C_24
REMARK    8  A    between atoms: C_24  and  C_25
REMARK                            x       y       z     vdW  Elec       q    Type
REMARK                         _______ _______ _______ _____ _____    ______ ____
ROOT
ATOM      1  O   UNL     1       9.317   9.725  19.502  0.00  0.00    +0.000 OA
ENDROOT
BRANCH   1   2
ATOM      2  C   UNL     1       9.707  11.034  19.507  0.00  0.00    +0.000 A 
ATOM      3  C   UNL     1       9.719  11.854  20.629  0.00  0.00    +0.000 A 
ATOM      4  C   UNL     1      10.195  13.161  20.529  0.00  0.00    +0.000 A 
ATOM      5  C   UNL     1      10.650  13.686  19.312  0.00  0.00    +0.000 A 
ATOM      6  C   UNL     1      10.596  12.853  18.175  0.00  0.00    +0.000 A 
ATOM      7  C   UNL     1      10.112  11.541  18.278  0.00  0.00    +0.000 A 
ATOM      8  C   UNL     1      11.049  13.346  16.823  0.00  0.00    +0.000 C 
ATOM      9  C   UNL     1      11.871  14.625  16.918  0.00  0.00    +0.000 C 
ATOM     10  C   UNL     1      11.212  15.591  17.889  0.00  0.00    +0.000 C 
ATOM     11  N   UNL     1      11.128  14.986  19.213  0.00  0.00    +0.000 N 
BRANCH  11  12
ATOM     12  C   UNL     1      11.759  15.658  20.348  0.00  0.00    +0.000 C 
BRANCH  12  13
ATOM     13  C   UNL     1      10.784  16.327  21.297  0.00  0.00    +0.000 A 
ATOM     14  C   UNL     1       9.723  17.138  20.869  0.00  0.00    +0.000 A 
ATOM     15  C   UNL     1       8.867  17.743  21.791  0.00  0.00    +0.000 A 
ATOM     16  C   UNL     1       9.057  17.541  23.156  0.00  0.00    +0.000 A 
ATOM     17  C   UNL     1      10.098  16.731  23.601  0.00  0.00    +0.000 A 
ATOM     18  C   UNL     1      10.956  16.128  22.678  0.00  0.00    +0.000 A 
ENDBRANCH  12  13
ENDBRANCH  11  12
ENDBRANCH   1   2
BRANCH   1  19
ATOM     19  C   UNL     1       8.608   9.334  18.326  0.00  0.00    +0.000 C 
BRANCH  19  20
ATOM     20  C   UNL     1       8.393   7.832  18.404  0.00  0.00    +0.000 C 
BRANCH  20  21
ATOM     21  C   UNL     1       7.370   7.360  17.375  0.00  0.00    +0.000 C 
BRANCH  21  25
ATOM     22  N   UNL     1       4.504   5.299  17.961  0.00  0.00    +0.000 N 
ATOM     23  C   UNL     1       5.501   5.559  19.011  0.00  0.00    +0.000 C 
ATOM     24  C   UNL     1       6.919   5.219  18.509  0.00  0.00    +0.000 C 
ATOM     25  N   UNL     1       7.292   5.895  17.242  0.00  0.00    +0.000 NA
ATOM     26  C   UNL     1       6.277   5.522  16.226  0.00  0.00    +0.000 C 
ATOM     27  C   UNL     1       4.811   5.831  16.622  0.00  0.00    +0.000 C 
BRANCH  22  32
ATOM     28  F   UNL     1       0.263   1.827  18.731  0.00  0.00    +0.000 F 
ATOM     29  C   UNL     1       1.289   2.666  18.544  0.00  0.00    +0.000 A 
ATOM     30  C   UNL     1       1.339   3.859  19.248  0.00  0.00    +0.000 A 
ATOM     31  C   UNL     1       2.415   4.729  19.046  0.00  0.00    +0.000 A 
ATOM     32  C   UNL     1       3.450   4.428  18.144  0.00  0.00    +0.000 A 
ATOM     33  C   UNL     1       3.362   3.210  17.453  0.00  0.00    +0.000 A 
ATOM     34  C   UNL     1       2.292   2.334  17.646  0.00  0.00    +0.000 A 
ENDBRANCH  22  32
ENDBRANCH  21  25
ENDBRANCH  20  21
ENDBRANCH  19  20
ENDBRANCH   1  19
TORSDOF 8
ENDMDL
MODEL 6
REMARK VINA RESULT:      -8.5      3.735      9.995
REMARK  Name = 
REMARK  8 active torsions:
REMARK  status: ('A' for Active; 'I' for Inactive)
REMARK    1  A    between atoms: C_5  and  N_6
REMARK    2  A    between atoms: N_9  and  C_10
REMARK    3  A    between atoms: C_10  and  C_11
REMARK    4  A    between atoms: C_11  and  C_12
REMARK    5  A    between atoms: C_12  and  O_13
REMARK    6  A    between atoms: O_13  and  C_14
REMARK    7  A    between atoms: N_23  and  C_24
REMARK    8  A    between atoms: C_24  and  C_25
REMARK                            x       y       z     vdW  Elec       q    Type
REMARK                         _______ _______ _______ _____ _____    ______ ____
ROOT
ATOM      1  O   UNL     1       1.180   9.638  20.647  0.00  0.00    +0.000 OA
ENDROOT
BRANCH   1   2
ATOM      2  C   UNL     1       1.634   8.549  19.960  0.00  0.00    +0.000 A 
ATOM      3  C   UNL     1       2.126   8.579  18.660  0.00  0.00    +0.000 A 
ATOM      4  C   UNL     1       2.619   7.412  18.077  0.00  0.00    +0.000 A 
ATOM      5  C   UNL     1       2.617   6.190  18.763  0.00  0.00    +0.000 A 
ATOM      6  C   UNL     1       2.080   6.169  20.067  0.00  0.00    +0.000 A 
ATOM      7  C   UNL     1       1.580   7.343  20.649  0.00  0.00    +0.000 A 
ATOM      8  C   UNL     1       2.022   4.892  20.868  0.00  0.00    +0.000 C 
ATOM      9  C   UNL     1       2.907   3.799  20.281  0.00  0.00    +0.000 C 
ATOM     10  C   UNL     1       2.733   3.750  18.772  0.00  0.00    +0.000 C 
ATOM     11  N   UNL     1       3.113   5.029  18.185  0.00  0.00    +0.000 N 
BRANCH  11  12
ATOM     12  C   UNL     1       4.170   5.067  17.176  0.00  0.00    +0.000 C 
BRANCH  12  13
ATOM     13  C   UNL     1       5.495   5.604  17.681  0.00  0.00    +0.000 A 
ATOM     14  C   UNL     1       6.144   5.107  18.821  0.00  0.00    +0.000 A 
ATOM     15  C   UNL     1       7.356   5.654  19.250  0.00  0.00    +0.000 A 
ATOM     16  C   UNL     1       7.938   6.702  18.542  0.00  0.00    +0.000 A 
ATOM     17  C   UNL     1       7.314   7.201  17.402  0.00  0.00    +0.000 A 
ATOM     18  C   UNL     1       6.102   6.657  16.975  0.00  0.00    +0.000 A 
ENDBRANCH  12  13
ENDBRANCH  11  12
ENDBRANCH   1   2
BRANCH   1  19
ATOM     19  C   UNL     1       0.327   9.319  21.746  0.00  0.00    +0.000 C 
BRANCH  19  20
ATOM     20  C   UNL     1      -0.835  10.297  21.720  0.00  0.00    +0.000 C 
BRANCH  20  21
ATOM     21  C   UNL     1      -0.445  11.643  22.323  0.00  0.00    +0.000 C 
BRANCH  21  25
ATOM     22  N   UNL     1       0.414  14.349  20.144  0.00  0.00    +0.000 N 
ATOM     23  C   UNL     1       0.543  14.458  21.605  0.00  0.00    +0.000 C 
ATOM     24  C   UNL     1      -0.783  14.085  22.297  0.00  0.00    +0.000 C 
ATOM     25  N   UNL     1      -1.317  12.756  21.908  0.00  0.00    +0.000 NA
ATOM     26  C   UNL     1      -1.482  12.761  20.434  0.00  0.00    +0.000 C 
ATOM     27  C   UNL     1      -0.203  13.113  19.633  0.00  0.00    +0.000 C 
BRANCH  22  32
ATOM     28  F   UNL     1       1.390  18.630  16.775  0.00  0.00    +0.000 F 
ATOM     29  C   UNL     1       1.152  17.594  17.589  0.00  0.00    +0.000 A 
ATOM     30  C   UNL     1       2.214  16.869  18.106  0.00  0.00    +0.000 A 
ATOM     31  C   UNL     1       1.956  15.789  18.956  0.00  0.00    +0.000 A 
ATOM     32  C   UNL     1       0.646  15.416  19.301  0.00  0.00    +0.000 A 
ATOM     33  C   UNL     1      -0.400  16.178  18.758  0.00  0.00    +0.000 A 
ATOM     34  C   UNL     1      -0.154  17.257  17.907  0.00  0.00    +0.000 A 
ENDBRANCH  22  32
ENDBRANCH  21  25
ENDBRANCH  20  21
ENDBRANCH  19  20
ENDBRANCH   1  19
TORSDOF 8
ENDMDL
MODEL 7
REMARK VINA RESULT:      -8.5      1.517      2.107
REMARK  Name = 
REMARK  8 active torsions:
REMARK  status: ('A' for Active; 'I' for Inactive)
REMARK    1  A    between atoms: C_5  and  N_6
REMARK    2  A    between atoms: N_9  and  C_10
REMARK    3  A    between atoms: C_10  and  C_11
REMARK    4  A    between atoms: C_11  and  C_12
REMARK    5  A    between atoms: C_12  and  O_13
REMARK    6  A    between atoms: O_13  and  C_14
REMARK    7  A    between atoms: N_23  and  C_24
REMARK    8  A    between atoms: C_24  and  C_25
REMARK                            x       y       z     vdW  Elec       q    Type
REMARK                         _______ _______ _______ _____ _____    ______ ____
ROOT
ATOM      1  O   UNL     1       1.785   6.897  20.431  0.00  0.00    +0.000 OA
ENDROOT
BRANCH   1   2
ATOM      2  C   UNL     1       1.322   8.180  20.506  0.00  0.00    +0.000 A 
ATOM      3  C   UNL     1       1.469   9.136  19.508  0.00  0.00    +0.000 A 
ATOM      4  C   UNL     1       0.902  10.400  19.670  0.00  0.00    +0.000 A 
ATOM      5  C   UNL     1       0.197  10.747  20.830  0.00  0.00    +0.000 A 
ATOM      6  C   UNL     1       0.089   9.777  21.849  0.00  0.00    +0.000 A 
ATOM      7  C   UNL     1       0.665   8.508  21.685  0.00  0.00    +0.000 A 
ATOM      8  C   UNL     1      -0.637  10.075  23.137  0.00  0.00    +0.000 C 
ATOM      9  C   UNL     1      -1.504  11.323  23.038  0.00  0.00    +0.000 C 
ATOM     10  C   UNL     1      -0.738  12.430  22.334  0.00  0.00    +0.000 C 
ATOM     11  N   UNL     1      -0.371  12.005  20.989  0.00  0.00    +0.000 N 
BRANCH  11  12
ATOM     12  C   UNL     1      -0.819  12.792  19.842  0.00  0.00    +0.000 C 
BRANCH  12  13
ATOM     13  C   UNL     1      -2.120  12.315  19.227  0.00  0.00    +0.000 A 
ATOM     14  C   UNL     1      -3.369  12.472  19.845  0.00  0.00    +0.000 A 
ATOM     15  C   UNL     1      -4.533  11.995  19.237  0.00  0.00    +0.000 A 
ATOM     16  C   UNL     1      -4.465  11.358  18.001  0.00  0.00    +0.000 A 
ATOM     17  C   UNL     1      -3.235  11.202  17.367  0.00  0.00    +0.000 A 
ATOM     18  C   UNL     1      -2.071  11.676  17.975  0.00  0.00    +0.000 A 
ENDBRANCH  12  13
ENDBRANCH  11  12
ENDBRANCH   1   2
BRANCH   1  19
ATOM     19  C   UNL     1       2.413   6.577  19.189  0.00  0.00    +0.000 C 
BRANCH  19  20
ATOM     20  C   UNL     1       3.116   5.242  19.367  0.00  0.00    +0.000 C 
BRANCH  20  21
ATOM     21  C   UNL     1       4.620   5.423  19.549  0.00  0.00    +0.000 C 
BRANCH  21  25
ATOM     22  N   UNL     1       5.651   4.942  16.156  0.00  0.00    +0.000 N 
ATOM     23  C   UNL     1       4.418   4.339  16.686  0.00  0.00    +0.000 C 
ATOM     24  C   UNL     1       4.715   3.535  17.968  0.00  0.00    +0.000 C 
ATOM     25  N   UNL     1       5.422   4.308  19.018  0.00  0.00    +0.000 NA
ATOM     26  C   UNL     1       6.681   4.817  18.419  0.00  0.00    +0.000 C 
ATOM     27  C   UNL     1       6.501   5.652  17.127  0.00  0.00    +0.000 C 
BRANCH  22  32
ATOM     28  F   UNL     1       7.470   3.866  11.040  0.00  0.00    +0.000 F 
ATOM     29  C   UNL     1       7.030   4.128  12.278  0.00  0.00    +0.000 A 
ATOM     30  C   UNL     1       5.900   3.484  12.756  0.00  0.00    +0.000 A 
ATOM     31  C   UNL     1       5.448   3.764  14.050  0.00  0.00    +0.000 A 
ATOM     32  C   UNL     1       6.110   4.684  14.881  0.00  0.00    +0.000 A 
ATOM     33  C   UNL     1       7.252   5.311  14.359  0.00  0.00    +0.000 A 
ATOM     34  C   UNL     1       7.710   5.041  13.068  0.00  0.00    +0.000 A 
ENDBRANCH  22  32
ENDBRANCH  21  25
ENDBRANCH  20  21
ENDBRANCH  19  20
ENDBRANCH   1  19
TORSDOF 8
ENDMDL
MODEL 8
REMARK VINA RESULT:      -8.4      4.152     10.676
REMARK  Name = 
REMARK  8 active torsions:
REMARK  status: ('A' for Active; 'I' for Inactive)
REMARK    1  A    between atoms: C_5  and  N_6
REMARK    2  A    between atoms: N_9  and  C_10
REMARK    3  A    between atoms: C_10  and  C_11
REMARK    4  A    between atoms: C_11  and  C_12
REMARK    5  A    between atoms: C_12  and  O_13
REMARK    6  A    between atoms: O_13  and  C_14
REMARK    7  A    between atoms: N_23  and  C_24
REMARK    8  A    between atoms: C_24  and  C_25
REMARK                            x       y       z     vdW  Elec       q    Type
REMARK                         _______ _______ _______ _____ _____    ______ ____
ROOT
ATOM      1  O   UNL     1       2.534   9.566  17.617  0.00  0.00    +0.000 OA
ENDROOT
BRANCH   1   2
ATOM      2  C   UNL     1       2.852   8.239  17.660  0.00  0.00    +0.000 A 
ATOM      3  C   UNL     1       2.152   7.278  18.381  0.00  0.00    +0.000 A 
ATOM      4  C   UNL     1       2.532   5.939  18.304  0.00  0.00    +0.000 A 
ATOM      5  C   UNL     1       3.625   5.528  17.528  0.00  0.00    +0.000 A 
ATOM      6  C   UNL     1       4.347   6.520  16.833  0.00  0.00    +0.000 A 
ATOM      7  C   UNL     1       3.965   7.867  16.916  0.00  0.00    +0.000 A 
ATOM      8  C   UNL     1       5.547   6.166  15.990  0.00  0.00    +0.000 C 
ATOM      9  C   UNL     1       5.630   4.673  15.698  0.00  0.00    +0.000 C 
ATOM     10  C   UNL     1       5.339   3.883  16.962  0.00  0.00    +0.000 C 
ATOM     11  N   UNL     1       4.001   4.193  17.448  0.00  0.00    +0.000 N 
BRANCH  11  12
ATOM     12  C   UNL     1       3.028   3.113  17.606  0.00  0.00    +0.000 C 
BRANCH  12  13
ATOM     13  C   UNL     1       2.483   2.965  19.012  0.00  0.00    +0.000 A 
ATOM     14  C   UNL     1       1.116   3.023  19.320  0.00  0.00    +0.000 A 
ATOM     15  C   UNL     1       0.674   2.898  20.639  0.00  0.00    +0.000 A 
ATOM     16  C   UNL     1       1.592   2.709  21.669  0.00  0.00    +0.000 A 
ATOM     17  C   UNL     1       2.953   2.638  21.382  0.00  0.00    +0.000 A 
ATOM     18  C   UNL     1       3.395   2.766  20.064  0.00  0.00    +0.000 A 
ENDBRANCH  12  13
ENDBRANCH  11  12
ENDBRANCH   1   2
BRANCH   1  19
ATOM     19  C   UNL     1       1.278   9.884  18.218  0.00  0.00    +0.000 C 
BRANCH  19  20
ATOM     20  C   UNL     1       1.387  11.291  18.780  0.00  0.00    +0.000 C 
BRANCH  20  21
ATOM     21  C   UNL     1       0.917  11.351  20.230  0.00  0.00    +0.000 C 
BRANCH  21  25
ATOM     22  N   UNL     1      -2.106  12.229  21.933  0.00  0.00    +0.000 N 
ATOM     23  C   UNL     1      -0.952  11.656  22.644  0.00  0.00    +0.000 C 
ATOM     24  C   UNL     1      -0.501  10.342  21.976  0.00  0.00    +0.000 C 
ATOM     25  N   UNL     1      -0.223  10.464  20.523  0.00  0.00    +0.000 NA
ATOM     26  C   UNL     1      -1.456  10.979  19.879  0.00  0.00    +0.000 C 
ATOM     27  C   UNL     1      -1.995  12.308  20.466  0.00  0.00    +0.000 C 
BRANCH  22  32
ATOM     28  F   UNL     1      -6.921  13.206  24.482  0.00  0.00    +0.000 F 
ATOM     29  C   UNL     1      -5.756  12.971  23.864  0.00  0.00    +0.000 A 
ATOM     30  C   UNL     1      -4.659  12.555  24.601  0.00  0.00    +0.000 A 
ATOM     31  C   UNL     1      -3.447  12.311  23.948  0.00  0.00    +0.000 A 
ATOM     32  C   UNL     1      -3.309  12.478  22.559  0.00  0.00    +0.000 A 
ATOM     33  C   UNL     1      -4.445  12.898  21.850  0.00  0.00    +0.000 A 
ATOM     34  C   UNL     1      -5.660  13.146  22.493  0.00  0.00    +0.000 A 
ENDBRANCH  22  32
ENDBRANCH  21  25
ENDBRANCH  20  21
ENDBRANCH  19  20
ENDBRANCH   1  19
TORSDOF 8
ENDMDL
MODEL 9
REMARK VINA RESULT:      -8.4      3.556      9.850
REMARK  Name = 
REMARK  8 active torsions:
REMARK  status: ('A' for Active; 'I' for Inactive)
REMARK    1  A    between atoms: C_5  and  N_6
REMARK    2  A    between atoms: N_9  and  C_10
REMARK    3  A    between atoms: C_10  and  C_11
REMARK    4  A    between atoms: C_11  and  C_12
REMARK    5  A    between atoms: C_12  and  O_13
REMARK    6  A    between atoms: O_13  and  C_14
REMARK    7  A    between atoms: N_23  and  C_24
REMARK    8  A    between atoms: C_24  and  C_25
REMARK                            x       y       z     vdW  Elec       q    Type
REMARK                         _______ _______ _______ _____ _____    ______ ____
ROOT
ATOM      1  O   UNL     1       1.241   7.106  21.526  0.00  0.00    +0.000 OA
ENDROOT
BRANCH   1   2
ATOM      2  C   UNL     1       1.825   6.514  20.443  0.00  0.00    +0.000 A 
ATOM      3  C   UNL     1       2.248   7.185  19.302  0.00  0.00    +0.000 A 
ATOM      4  C   UNL     1       2.887   6.484  18.281  0.00  0.00    +0.000 A 
ATOM      5  C   UNL     1       3.103   5.102  18.360  0.00  0.00    +0.000 A 
ATOM      6  C   UNL     1       2.634   4.429  19.508  0.00  0.00    +0.000 A 
ATOM      7  C   UNL     1       1.987   5.136  20.532  0.00  0.00    +0.000 A 
ATOM      8  C   UNL     1       2.808   2.939  19.666  0.00  0.00    +0.000 C 
ATOM      9  C   UNL     1       3.822   2.367  18.683  0.00  0.00    +0.000 C 
ATOM     10  C   UNL     1       3.591   2.956  17.301  0.00  0.00    +0.000 C 
ATOM     11  N   UNL     1       3.743   4.404  17.345  0.00  0.00    +0.000 N 
BRANCH  11  12
ATOM     12  C   UNL     1       4.737   5.045  16.484  0.00  0.00    +0.000 C 
BRANCH  12  13
ATOM     13  C   UNL     1       5.906   5.657  17.230  0.00  0.00    +0.000 A 
ATOM     14  C   UNL     1       6.356   6.968  17.018  0.00  0.00    +0.000 A 
ATOM     15  C   UNL     1       7.451   7.472  17.723  0.00  0.00    +0.000 A 
ATOM     16  C   UNL     1       8.110   6.673  18.654  0.00  0.00    +0.000 A 
ATOM     17  C   UNL     1       7.672   5.371  18.886  0.00  0.00    +0.000 A 
ATOM     18  C   UNL     1       6.578   4.867  18.179  0.00  0.00    +0.000 A 
ENDBRANCH  12  13
ENDBRANCH  11  12
ENDBRANCH   1   2
BRANCH   1  19
ATOM     19  C   UNL     1       1.158   8.529  21.437  0.00  0.00    +0.000 C 
BRANCH  19  20
ATOM     20  C   UNL     1      -0.302   8.886  21.217  0.00  0.00    +0.000 C 
BRANCH  20  21
ATOM     21  C   UNL     1      -0.448  10.104  20.310  0.00  0.00    +0.000 C 
BRANCH  21  25
ATOM     22  N   UNL     1       0.355  13.398  19.162  0.00  0.00    +0.000 N 
ATOM     23  C   UNL     1       1.295  12.606  19.970  0.00  0.00    +0.000 C 
ATOM     24  C   UNL     1       0.617  12.112  21.264  0.00  0.00    +0.000 C 
ATOM     25  N   UNL     1      -0.647  11.368  21.040  0.00  0.00    +0.000 NA
ATOM     26  C   UNL     1      -1.558  12.263  20.283  0.00  0.00    +0.000 C 
ATOM     27  C   UNL     1      -0.981  12.812  18.954  0.00  0.00    +0.000 C 
BRANCH  22  32
ATOM     28  F   UNL     1       1.426  18.631  17.713  0.00  0.00    +0.000 F 
ATOM     29  C   UNL     1       1.166  17.365  18.063  0.00  0.00    +0.000 A 
ATOM     30  C   UNL     1       2.210  16.470  18.235  0.00  0.00    +0.000 A 
ATOM     31  C   UNL     1       1.928  15.150  18.600  0.00  0.00    +0.000 A 
ATOM     32  C   UNL     1       0.611  14.703  18.798  0.00  0.00    +0.000 A 
ATOM     33  C   UNL     1      -0.417  15.641  18.616  0.00  0.00    +0.000 A 
ATOM     34  C   UNL     1      -0.147  16.961  18.250  0.00  0.00    +0.000 A 
ENDBRANCH  22  32
ENDBRANCH  21  25
ENDBRANCH  20  21
ENDBRANCH  19  20
ENDBRANCH   1  19
TORSDOF 8
ENDMDL
