MODEL 1
REMARK VINA RESULT:      -9.9      0.000      0.000
REMARK  Name = 
REMARK  3 active torsions:
REMARK  status: ('A' for Active; 'I' for Inactive)
REMARK    1  A    between atoms: C_1  and  C_2
REMARK    2  A    between atoms: N_21  and  S_22
REMARK    3  A    between atoms: S_22  and  C_25
REMARK                            x       y       z     vdW  Elec       q    Type
REMARK                         _______ _______ _______ _____ _____    ______ ____
ROOT
ATOM      1  C   UNL     1      -2.027  13.028  20.219  0.00  0.00    +0.000 C 
ATOM      2  C   UNL     1      -1.184  12.037  19.470  0.00  0.00    +0.000 C 
ATOM      3  O   UNL     1      -1.347  11.856  18.266  0.00  0.00    +0.000 OA
ATOM      4  N   UNL     1      -0.241  11.396  20.255  0.00  0.00    +0.000 N 
ATOM      5  C   UNL     1       0.648  10.466  19.703  0.00  0.00    +0.000 A 
ATOM      6  C   UNL     1       1.286  10.751  18.508  0.00  0.00    +0.000 A 
ATOM      7  C   UNL     1       2.090   9.782  17.955  0.00  0.00    +0.000 A 
ATOM      8  C   UNL     1       2.203   8.553  18.597  0.00  0.00    +0.000 A 
ATOM      9  C   UNL     1       2.953   7.550  17.988  0.00  0.00    +0.000 A 
ATOM     10  C   UNL     1       3.026   6.329  18.649  0.00  0.00    +0.000 A 
ATOM     11  C   UNL     1       2.348   6.162  19.855  0.00  0.00    +0.000 A 
ATOM     12  N   UNL     1       1.633   7.155  20.448  0.00  0.00    +0.000 NA
ATOM     13  C   UNL     1       1.559   8.335  19.831  0.00  0.00    +0.000 A 
ATOM     14  N   UNL     1       0.833   9.315  20.390  0.00  0.00    +0.000 NA
ATOM     15  C   UNL     1       2.553   4.817  20.290  0.00  0.00    +0.000 A 
ATOM     16  C   UNL     1       2.137   4.037  21.385  0.00  0.00    +0.000 A 
ATOM     17  C   UNL     1       2.588   2.719  21.465  0.00  0.00    +0.000 A 
ATOM     18  C   UNL     1       3.415   2.233  20.466  0.00  0.00    +0.000 A 
ATOM     19  N   UNL     1       3.823   2.930  19.385  0.00  0.00    +0.000 NA
ATOM     20  C   UNL     1       3.381   4.207  19.349  0.00  0.00    +0.000 A 
ATOM     21  N   UNL     1       3.675   5.144  18.396  0.00  0.00    +0.000 N 
ATOM     22  H   UNL     1      -0.462  11.236  21.229  0.00  0.00    +0.000 HD
ENDROOT
BRANCH  21  23
ATOM     23  S   UNL     1       4.832   4.878  17.183  0.00  0.00    +0.000 S 
ATOM     24  O   UNL     1       5.174   3.467  17.233  0.00  0.00    +0.000 OA
ATOM     25  O   UNL     1       4.285   5.450  15.968  0.00  0.00    +0.000 OA
BRANCH  23  26
ATOM     26  C   UNL     1       6.294   5.769  17.651  0.00  0.00    +0.000 A 
ATOM     27  C   UNL     1       6.579   6.993  17.033  0.00  0.00    +0.000 A 
ATOM     28  C   UNL     1       7.612   7.792  17.531  0.00  0.00    +0.000 A 
ATOM     29  C   UNL     1       8.349   7.371  18.637  0.00  0.00    +0.000 A 
ATOM     30  C   UNL     1       8.070   6.144  19.241  0.00  0.00    +0.000 A 
ATOM     31  C   UNL     1       7.036   5.344  18.755  0.00  0.00    +0.000 A 
ENDBRANCH  23  26
ENDBRANCH  21  23
TORSDOF 2
ENDMDL
MODEL 2
REMARK VINA RESULT:      -8.8      2.234      4.743
REMARK  Name = 
REMARK  3 active torsions:
REMARK  status: ('A' for Active; 'I' for Inactive)
REMARK    1  A    between atoms: C_1  and  C_2
REMARK    2  A    between atoms: N_21  and  S_22
REMARK    3  A    between atoms: S_22  and  C_25
REMARK                            x       y       z     vdW  Elec       q    Type
REMARK                         _______ _______ _______ _____ _____    ______ ____
ROOT
ATOM      1  C   UNL     1       0.107  13.140  20.362  0.00  0.00    +0.000 C 
ATOM      2  C   UNL     1       0.738  11.787  20.533  0.00  0.00    +0.000 C 
ATOM      3  O   UNL     1       1.286  11.479  21.589  0.00  0.00    +0.000 OA
ATOM      4  N   UNL     1       0.623  10.970  19.423  0.00  0.00    +0.000 N 
ATOM      5  C   UNL     1       1.128   9.664  19.430  0.00  0.00    +0.000 A 
ATOM      6  C   UNL     1       0.903   8.846  20.524  0.00  0.00    +0.000 A 
ATOM      7  C   UNL     1       1.481   7.599  20.531  0.00  0.00    +0.000 A 
ATOM      8  C   UNL     1       2.291   7.225  19.464  0.00  0.00    +0.000 A 
ATOM      9  C   UNL     1       2.939   5.994  19.519  0.00  0.00    +0.000 A 
ATOM     10  C   UNL     1       3.755   5.664  18.443  0.00  0.00    +0.000 A 
ATOM     11  C   UNL     1       3.898   6.566  17.390  0.00  0.00    +0.000 A 
ATOM     12  N   UNL     1       3.247   7.758  17.340  0.00  0.00    +0.000 NA
ATOM     13  C   UNL     1       2.453   8.087  18.361  0.00  0.00    +0.000 A 
ATOM     14  N   UNL     1       1.826   9.273  18.340  0.00  0.00    +0.000 NA
ATOM     15  C   UNL     1       4.816   6.002  16.452  0.00  0.00    +0.000 A 
ATOM     16  C   UNL     1       5.380   6.404  15.226  0.00  0.00    +0.000 A 
ATOM     17  C   UNL     1       6.252   5.526  14.582  0.00  0.00    +0.000 A 
ATOM     18  C   UNL     1       6.532   4.306  15.175  0.00  0.00    +0.000 A 
ATOM     19  N   UNL     1       6.039   3.883  16.358  0.00  0.00    +0.000 NA
ATOM     20  C   UNL     1       5.185   4.751  16.945  0.00  0.00    +0.000 A 
ATOM     21  N   UNL     1       4.510   4.561  18.120  0.00  0.00    +0.000 N 
ATOM     22  H   UNL     1       0.604  11.405  18.511  0.00  0.00    +0.000 HD
ENDROOT
BRANCH  21  23
ATOM     23  S   UNL     1       4.505   3.074  18.938  0.00  0.00    +0.000 S 
ATOM     24  O   UNL     1       4.739   2.046  17.938  0.00  0.00    +0.000 OA
ATOM     25  O   UNL     1       5.419   3.222  20.054  0.00  0.00    +0.000 OA
BRANCH  23  26
ATOM     26  C   UNL     1       2.859   2.819  19.549  0.00  0.00    +0.000 A 
ATOM     27  C   UNL     1       2.617   2.906  20.927  0.00  0.00    +0.000 A 
ATOM     28  C   UNL     1       1.301   2.905  21.396  0.00  0.00    +0.000 A 
ATOM     29  C   UNL     1       0.239   2.819  20.496  0.00  0.00    +0.000 A 
ATOM     30  C   UNL     1       0.485   2.718  19.126  0.00  0.00    +0.000 A 
ATOM     31  C   UNL     1       1.796   2.726  18.649  0.00  0.00    +0.000 A 
ENDBRANCH  23  26
ENDBRANCH  21  23
TORSDOF 2
ENDMDL
MODEL 3
REMARK VINA RESULT:      -8.4      1.104      1.176
REMARK  Name = 
REMARK  3 active torsions:
REMARK  status: ('A' for Active; 'I' for Inactive)
REMARK    1  A    between atoms: C_1  and  C_2
REMARK    2  A    between atoms: N_21  and  S_22
REMARK    3  A    between atoms: S_22  and  C_25
REMARK                            x       y       z     vdW  Elec       q    Type
REMARK                         _______ _______ _______ _____ _____    ______ ____
ROOT
ATOM      1  C   UNL     1      -2.260  12.076  22.143  0.00  0.00    +0.000 C 
ATOM      2  C   UNL     1      -1.381  11.444  21.102  0.00  0.00    +0.000 C 
ATOM      3  O   UNL     1      -1.530  11.706  19.911  0.00  0.00    +0.000 OA
ATOM      4  N   UNL     1      -0.425  10.587  21.619  0.00  0.00    +0.000 N 
ATOM      5  C   UNL     1       0.496   9.943  20.785  0.00  0.00    +0.000 A 
ATOM      6  C   UNL     1       1.133  10.656  19.785  0.00  0.00    +0.000 A 
ATOM      7  C   UNL     1       1.971   9.974  18.934  0.00  0.00    +0.000 A 
ATOM      8  C   UNL     1       2.117   8.599  19.090  0.00  0.00    +0.000 A 
ATOM      9  C   UNL     1       2.901   7.904  18.174  0.00  0.00    +0.000 A 
ATOM     10  C   UNL     1       3.007   6.530  18.351  0.00  0.00    +0.000 A 
ATOM     11  C   UNL     1       2.325   5.920  19.404  0.00  0.00    +0.000 A 
ATOM     12  N   UNL     1       1.576   6.613  20.302  0.00  0.00    +0.000 NA
ATOM     13  C   UNL     1       1.470   7.934  20.151  0.00  0.00    +0.000 A 
ATOM     14  N   UNL     1       0.710   8.627  21.013  0.00  0.00    +0.000 NA
ATOM     15  C   UNL     1       2.568   4.515  19.327  0.00  0.00    +0.000 A 
ATOM     16  C   UNL     1       2.167   3.381  20.059  0.00  0.00    +0.000 A 
ATOM     17  C   UNL     1       2.658   2.135  19.666  0.00  0.00    +0.000 A 
ATOM     18  C   UNL     1       3.506   2.064  18.574  0.00  0.00    +0.000 A 
ATOM     19  N   UNL     1       3.901   3.116  17.824  0.00  0.00    +0.000 NA
ATOM     20  C   UNL     1       3.421   4.308  18.244  0.00  0.00    +0.000 A 
ATOM     21  N   UNL     1       3.693   5.533  17.699  0.00  0.00    +0.000 N 
ATOM     22  H   UNL     1      -0.648  10.081  22.465  0.00  0.00    +0.000 HD
ENDROOT
BRANCH  21  23
ATOM     23  S   UNL     1       4.867   5.753  16.492  0.00  0.00    +0.000 S 
ATOM     24  O   UNL     1       5.130   4.444  15.921  0.00  0.00    +0.000 OA
ATOM     25  O   UNL     1       4.384   6.830  15.649  0.00  0.00    +0.000 OA
BRANCH  23  26
ATOM     26  C   UNL     1       6.361   6.260  17.303  0.00  0.00    +0.000 A 
ATOM     27  C   UNL     1       6.889   7.530  17.038  0.00  0.00    +0.000 A 
ATOM     28  C   UNL     1       7.946   8.013  17.814  0.00  0.00    +0.000 A 
ATOM     29  C   UNL     1       8.467   7.233  18.847  0.00  0.00    +0.000 A 
ATOM     30  C   UNL     1       7.947   5.963  19.099  0.00  0.00    +0.000 A 
ATOM     31  C   UNL     1       6.886   5.477  18.333  0.00  0.00    +0.000 A 
ENDBRANCH  23  26
ENDBRANCH  21  23
TORSDOF 2
ENDMDL
MODEL 4
REMARK VINA RESULT:      -8.4      1.162      1.274
REMARK  Name = 
REMARK  3 active torsions:
REMARK  status: ('A' for Active; 'I' for Inactive)
REMARK    1  A    between atoms: C_1  and  C_2
REMARK    2  A    between atoms: N_21  and  S_22
REMARK    3  A    between atoms: S_22  and  C_25
REMARK                            x       y       z     vdW  Elec       q    Type
REMARK                         _______ _______ _______ _____ _____    ______ ____
ROOT
ATOM      1  C   UNL     1      -2.404  13.088  21.697  0.00  0.00    +0.000 C 
ATOM      2  C   UNL     1      -1.627  12.184  20.782  0.00  0.00    +0.000 C 
ATOM      3  O   UNL     1      -1.898  12.120  19.585  0.00  0.00    +0.000 OA
ATOM      4  N   UNL     1      -0.617  11.481  21.412  0.00  0.00    +0.000 N 
ATOM      5  C   UNL     1       0.223  10.620  20.694  0.00  0.00    +0.000 A 
ATOM      6  C   UNL     1       0.750  11.028  19.482  0.00  0.00    +0.000 A 
ATOM      7  C   UNL     1       1.504  10.128  18.767  0.00  0.00    +0.000 A 
ATOM      8  C   UNL     1       1.678   8.843  19.271  0.00  0.00    +0.000 A 
ATOM      9  C   UNL     1       2.373   7.914  18.502  0.00  0.00    +0.000 A 
ATOM     10  C   UNL     1       2.509   6.635  19.030  0.00  0.00    +0.000 A 
ATOM     11  C   UNL     1       1.942   6.343  20.270  0.00  0.00    +0.000 A 
ATOM     12  N   UNL     1       1.280   7.264  21.019  0.00  0.00    +0.000 NA
ATOM     13  C   UNL     1       1.148   8.498  20.530  0.00  0.00    +0.000 A 
ATOM     14  N   UNL     1       0.471   9.410  21.245  0.00  0.00    +0.000 NA
ATOM     15  C   UNL     1       2.190   4.964  20.549  0.00  0.00    +0.000 A 
ATOM     16  C   UNL     1       1.876   4.075  21.594  0.00  0.00    +0.000 A 
ATOM     17  C   UNL     1       2.336   2.761  21.504  0.00  0.00    +0.000 A 
ATOM     18  C   UNL     1       3.072   2.385  20.392  0.00  0.00    +0.000 A 
ATOM     19  N   UNL     1       3.379   3.190  19.353  0.00  0.00    +0.000 NA
ATOM     20  C   UNL     1       2.932   4.459  19.483  0.00  0.00    +0.000 A 
ATOM     21  N   UNL     1       3.136   5.488  18.604  0.00  0.00    +0.000 N 
ATOM     22  H   UNL     1      -0.748  11.224  22.381  0.00  0.00    +0.000 HD
ENDROOT
BRANCH  21  23
ATOM     23  S   UNL     1       4.181   5.357  17.273  0.00  0.00    +0.000 S 
ATOM     24  O   UNL     1       3.807   4.143  16.567  0.00  0.00    +0.000 OA
ATOM     25  O   UNL     1       4.134   6.636  16.593  0.00  0.00    +0.000 OA
BRANCH  23  26
ATOM     26  C   UNL     1       5.813   5.085  17.914  0.00  0.00    +0.000 A 
ATOM     27  C   UNL     1       6.776   4.473  17.102  0.00  0.00    +0.000 A 
ATOM     28  C   UNL     1       8.108   4.435  17.523  0.00  0.00    +0.000 A 
ATOM     29  C   UNL     1       8.472   5.006  18.742  0.00  0.00    +0.000 A 
ATOM     30  C   UNL     1       7.507   5.603  19.554  0.00  0.00    +0.000 A 
ATOM     31  C   UNL     1       6.176   5.651  19.138  0.00  0.00    +0.000 A 
ENDBRANCH  23  26
ENDBRANCH  21  23
TORSDOF 2
ENDMDL
MODEL 5
REMARK VINA RESULT:      -8.2      0.771      1.173
REMARK  Name = 
REMARK  3 active torsions:
REMARK  status: ('A' for Active; 'I' for Inactive)
REMARK    1  A    between atoms: C_1  and  C_2
REMARK    2  A    between atoms: N_21  and  S_22
REMARK    3  A    between atoms: S_22  and  C_25
REMARK                            x       y       z     vdW  Elec       q    Type
REMARK                         _______ _______ _______ _____ _____    ______ ____
ROOT
ATOM      1  C   UNL     1      -1.439  13.915  19.589  0.00  0.00    +0.000 C 
ATOM      2  C   UNL     1      -0.606  12.851  18.932  0.00  0.00    +0.000 C 
ATOM      3  O   UNL     1      -0.538  12.774  17.708  0.00  0.00    +0.000 OA
ATOM      4  N   UNL     1       0.049  12.020  19.824  0.00  0.00    +0.000 N 
ATOM      5  C   UNL     1       0.893  10.997  19.374  0.00  0.00    +0.000 A 
ATOM      6  C   UNL     1       1.801  11.252  18.362  0.00  0.00    +0.000 A 
ATOM      7  C   UNL     1       2.557  10.205  17.890  0.00  0.00    +0.000 A 
ATOM      8  C   UNL     1       2.357   8.935  18.422  0.00  0.00    +0.000 A 
ATOM      9  C   UNL     1       3.067   7.867  17.882  0.00  0.00    +0.000 A 
ATOM     10  C   UNL     1       2.825   6.611  18.426  0.00  0.00    +0.000 A 
ATOM     11  C   UNL     1       1.892   6.478  19.453  0.00  0.00    +0.000 A 
ATOM     12  N   UNL     1       1.217   7.532  19.983  0.00  0.00    +0.000 NA
ATOM     13  C   UNL     1       1.443   8.745  19.478  0.00  0.00    +0.000 A 
ATOM     14  N   UNL     1       0.763   9.791  19.972  0.00  0.00    +0.000 NA
ATOM     15  C   UNL     1       1.808   5.092  19.791  0.00  0.00    +0.000 A 
ATOM     16  C   UNL     1       1.063   4.320  20.703  0.00  0.00    +0.000 A 
ATOM     17  C   UNL     1       1.295   2.945  20.747  0.00  0.00    +0.000 A 
ATOM     18  C   UNL     1       2.236   2.398  19.890  0.00  0.00    +0.000 A 
ATOM     19  N   UNL     1       2.957   3.088  18.981  0.00  0.00    +0.000 NA
ATOM     20  C   UNL     1       2.719   4.419  18.979  0.00  0.00    +0.000 A 
ATOM     21  N   UNL     1       3.337   5.356  18.196  0.00  0.00    +0.000 N 
ATOM     22  H   UNL     1      -0.392  11.836  20.715  0.00  0.00    +0.000 HD
ENDROOT
BRANCH  21  23
ATOM     23  S   UNL     1       4.673   4.987  17.216  0.00  0.00    +0.000 S 
ATOM     24  O   UNL     1       4.949   3.573  17.402  0.00  0.00    +0.000 OA
ATOM     25  O   UNL     1       4.362   5.499  15.896  0.00  0.00    +0.000 OA
BRANCH  23  26
ATOM     26  C   UNL     1       6.065   5.864  17.880  0.00  0.00    +0.000 A 
ATOM     27  C   UNL     1       6.822   5.279  18.904  0.00  0.00    +0.000 A 
ATOM     28  C   UNL     1       8.027   5.868  19.292  0.00  0.00    +0.000 A 
ATOM     29  C   UNL     1       8.473   7.030  18.661  0.00  0.00    +0.000 A 
ATOM     30  C   UNL     1       7.709   7.617  17.651  0.00  0.00    +0.000 A 
ATOM     31  C   UNL     1       6.507   7.031  17.252  0.00  0.00    +0.000 A 
ENDBRANCH  23  26
ENDBRANCH  21  23
TORSDOF 2
ENDMDL
MODEL 6
REMARK VINA RESULT:      -8.0      1.943      2.505
REMARK  Name = 
REMARK  3 active torsions:
REMARK  status: ('A' for Active; 'I' for Inactive)
REMARK    1  A    between atoms: C_1  and  C_2
REMARK    2  A    between atoms: N_21  and  S_22
REMARK    3  A    between atoms: S_22  and  C_25
REMARK                            x       y       z     vdW  Elec       q    Type
REMARK                         _______ _______ _______ _____ _____    ______ ____
ROOT
ATOM      1  C   UNL     1      -2.847  11.642  18.735  0.00  0.00    +0.000 C 
ATOM      2  C   UNL     1      -1.606  10.933  18.271  0.00  0.00    +0.000 C 
ATOM      3  O   UNL     1      -1.333  10.863  17.076  0.00  0.00    +0.000 OA
ATOM      4  N   UNL     1      -0.843  10.408  19.299  0.00  0.00    +0.000 N 
ATOM      5  C   UNL     1       0.363   9.745  19.038  0.00  0.00    +0.000 A 
ATOM      6  C   UNL     1       1.265  10.289  18.141  0.00  0.00    +0.000 A 
ATOM      7  C   UNL     1       2.401   9.572  17.849  0.00  0.00    +0.000 A 
ATOM      8  C   UNL     1       2.582   8.324  18.438  0.00  0.00    +0.000 A 
ATOM      9  C   UNL     1       3.693   7.570  18.074  0.00  0.00    +0.000 A 
ATOM     10  C   UNL     1       3.829   6.321  18.668  0.00  0.00    +0.000 A 
ATOM     11  C   UNL     1       2.858   5.882  19.569  0.00  0.00    +0.000 A 
ATOM     12  N   UNL     1       1.786   6.636  19.929  0.00  0.00    +0.000 NA
ATOM     13  C   UNL     1       1.646   7.840  19.373  0.00  0.00    +0.000 A 
ATOM     14  N   UNL     1       0.576   8.584  19.697  0.00  0.00    +0.000 NA
ATOM     15  C   UNL     1       3.216   4.565  19.989  0.00  0.00    +0.000 A 
ATOM     16  C   UNL     1       2.662   3.595  20.846  0.00  0.00    +0.000 A 
ATOM     17  C   UNL     1       3.351   2.394  21.017  0.00  0.00    +0.000 A 
ATOM     18  C   UNL     1       4.541   2.203  20.334  0.00  0.00    +0.000 A 
ATOM     19  N   UNL     1       5.102   3.089  19.483  0.00  0.00    +0.000 NA
ATOM     20  C   UNL     1       4.416   4.246  19.356  0.00  0.00    +0.000 A 
ATOM     21  N   UNL     1       4.776   5.327  18.598  0.00  0.00    +0.000 N 
ATOM     22  H   UNL     1      -1.319  10.095  20.134  0.00  0.00    +0.000 HD
ENDROOT
BRANCH  21  23
ATOM     23  S   UNL     1       6.288   5.441  17.834  0.00  0.00    +0.000 S 
ATOM     24  O   UNL     1       6.648   6.848  17.830  0.00  0.00    +0.000 OA
ATOM     25  O   UNL     1       7.147   4.473  18.487  0.00  0.00    +0.000 OA
BRANCH  23  26
ATOM     26  C   UNL     1       6.052   4.976  16.138  0.00  0.00    +0.000 A 
ATOM     27  C   UNL     1       7.091   5.180  15.219  0.00  0.00    +0.000 A 
ATOM     28  C   UNL     1       6.990   4.639  13.935  0.00  0.00    +0.000 A 
ATOM     29  C   UNL     1       5.864   3.900  13.574  0.00  0.00    +0.000 A 
ATOM     30  C   UNL     1       4.826   3.711  14.488  0.00  0.00    +0.000 A 
ATOM     31  C   UNL     1       4.921   4.242  15.775  0.00  0.00    +0.000 A 
ENDBRANCH  23  26
ENDBRANCH  21  23
TORSDOF 2
ENDMDL
MODEL 7
REMARK VINA RESULT:      -7.9      2.997      8.026
REMARK  Name = 
REMARK  3 active torsions:
REMARK  status: ('A' for Active; 'I' for Inactive)
REMARK    1  A    between atoms: C_1  and  C_2
REMARK    2  A    between atoms: N_21  and  S_22
REMARK    3  A    between atoms: S_22  and  C_25
REMARK                            x       y       z     vdW  Elec       q    Type
REMARK                         _______ _______ _______ _____ _____    ______ ____
ROOT
ATOM      1  C   UNL     1       4.605   1.877  19.883  0.00  0.00    +0.000 C 
ATOM      2  C   UNL     1       4.455   3.341  19.585  0.00  0.00    +0.000 C 
ATOM      3  O   UNL     1       5.435   4.030  19.316  0.00  0.00    +0.000 OA
ATOM      4  N   UNL     1       3.148   3.792  19.633  0.00  0.00    +0.000 N 
ATOM      5  C   UNL     1       2.832   5.126  19.346  0.00  0.00    +0.000 A 
ATOM      6  C   UNL     1       3.402   5.746  18.249  0.00  0.00    +0.000 A 
ATOM      7  C   UNL     1       3.132   7.079  18.044  0.00  0.00    +0.000 A 
ATOM      8  C   UNL     1       2.330   7.753  18.958  0.00  0.00    +0.000 A 
ATOM      9  C   UNL     1       2.129   9.119  18.788  0.00  0.00    +0.000 A 
ATOM     10  C   UNL     1       1.338   9.762  19.734  0.00  0.00    +0.000 A 
ATOM     11  C   UNL     1       0.806   9.029  20.794  0.00  0.00    +0.000 A 
ATOM     12  N   UNL     1       0.996   7.691  20.940  0.00  0.00    +0.000 NA
ATOM     13  C   UNL     1       1.746   7.058  20.037  0.00  0.00    +0.000 A 
ATOM     14  N   UNL     1       1.966   5.742  20.183  0.00  0.00    +0.000 NA
ATOM     15  C   UNL     1       0.081   9.933  21.630  0.00  0.00    +0.000 A 
ATOM     16  C   UNL     1      -0.650   9.831  22.829  0.00  0.00    +0.000 A 
ATOM     17  C   UNL     1      -1.253  10.983  23.334  0.00  0.00    +0.000 A 
ATOM     18  C   UNL     1      -1.102  12.174  22.644  0.00  0.00    +0.000 A 
ATOM     19  N   UNL     1      -0.393  12.331  21.505  0.00  0.00    +0.000 NA
ATOM     20  C   UNL     1       0.163  11.191  21.036  0.00  0.00    +0.000 A 
ATOM     21  N   UNL     1       0.892  11.054  19.887  0.00  0.00    +0.000 N 
ATOM     22  H   UNL     1       2.512   3.342  20.277  0.00  0.00    +0.000 HD
ENDROOT
BRANCH  21  23
ATOM     23  S   UNL     1       1.046  12.305  18.750  0.00  0.00    +0.000 S 
ATOM     24  O   UNL     1       2.122  11.923  17.852  0.00  0.00    +0.000 OA
ATOM     25  O   UNL     1      -0.285  12.543  18.227  0.00  0.00    +0.000 OA
BRANCH  23  26
ATOM     26  C   UNL     1       1.606  13.742  19.627  0.00  0.00    +0.000 A 
ATOM     27  C   UNL     1       2.790  13.674  20.373  0.00  0.00    +0.000 A 
ATOM     28  C   UNL     1       3.340  14.845  20.900  0.00  0.00    +0.000 A 
ATOM     29  C   UNL     1       2.713  16.071  20.681  0.00  0.00    +0.000 A 
ATOM     30  C   UNL     1       1.527  16.133  19.949  0.00  0.00    +0.000 A 
ATOM     31  C   UNL     1       0.974  14.969  19.413  0.00  0.00    +0.000 A 
ENDBRANCH  23  26
ENDBRANCH  21  23
TORSDOF 2
ENDMDL
MODEL 8
REMARK VINA RESULT:      -7.9      2.924      8.201
REMARK  Name = 
REMARK  3 active torsions:
REMARK  status: ('A' for Active; 'I' for Inactive)
REMARK    1  A    between atoms: C_1  and  C_2
REMARK    2  A    between atoms: N_21  and  S_22
REMARK    3  A    between atoms: S_22  and  C_25
REMARK                            x       y       z     vdW  Elec       q    Type
REMARK                         _______ _______ _______ _____ _____    ______ ____
ROOT
ATOM      1  C   UNL     1       4.997   1.167  20.438  0.00  0.00    +0.000 C 
ATOM      2  C   UNL     1       4.701   2.561  19.966  0.00  0.00    +0.000 C 
ATOM      3  O   UNL     1       5.575   3.243  19.435  0.00  0.00    +0.000 OA
ATOM      4  N   UNL     1       3.393   2.960  20.177  0.00  0.00    +0.000 N 
ATOM      5  C   UNL     1       2.945   4.221  19.764  0.00  0.00    +0.000 A 
ATOM      6  C   UNL     1       3.282   4.691  18.507  0.00  0.00    +0.000 A 
ATOM      7  C   UNL     1       2.893   5.964  18.165  0.00  0.00    +0.000 A 
ATOM      8  C   UNL     1       2.210   6.735  19.100  0.00  0.00    +0.000 A 
ATOM      9  C   UNL     1       1.893   8.051  18.776  0.00  0.00    +0.000 A 
ATOM     10  C   UNL     1       1.229   8.795  19.744  0.00  0.00    +0.000 A 
ATOM     11  C   UNL     1       0.932   8.210  20.974  0.00  0.00    +0.000 A 
ATOM     12  N   UNL     1       1.232   6.918  21.272  0.00  0.00    +0.000 NA
ATOM     13  C   UNL     1       1.863   6.188  20.352  0.00  0.00    +0.000 A 
ATOM     14  N   UNL     1       2.192   4.919  20.643  0.00  0.00    +0.000 NA
ATOM     15  C   UNL     1       0.297   9.198  21.787  0.00  0.00    +0.000 A 
ATOM     16  C   UNL     1      -0.216   9.248  23.097  0.00  0.00    +0.000 A 
ATOM     17  C   UNL     1      -0.802  10.438  23.531  0.00  0.00    +0.000 A 
ATOM     18  C   UNL     1      -0.848  11.516  22.663  0.00  0.00    +0.000 A 
ATOM     19  N   UNL     1      -0.351  11.528  21.408  0.00  0.00    +0.000 NA
ATOM     20  C   UNL     1       0.194  10.355  21.016  0.00  0.00    +0.000 A 
ATOM     21  N   UNL     1       0.729  10.076  19.788  0.00  0.00    +0.000 N 
ATOM     22  H   UNL     1       2.905   2.586  20.980  0.00  0.00    +0.000 HD
ENDROOT
BRANCH  21  23
ATOM     23  S   UNL     1       0.607  11.145  18.476  0.00  0.00    +0.000 S 
ATOM     24  O   UNL     1       0.773  12.485  19.012  0.00  0.00    +0.000 OA
ATOM     25  O   UNL     1       1.520  10.651  17.463  0.00  0.00    +0.000 OA
BRANCH  23  26
ATOM     26  C   UNL     1      -1.058  11.045  17.873  0.00  0.00    +0.000 A 
ATOM     27  C   UNL     1      -1.450   9.932  17.118  0.00  0.00    +0.000 A 
ATOM     28  C   UNL     1      -2.800   9.748  16.811  0.00  0.00    +0.000 A 
ATOM     29  C   UNL     1      -3.749  10.668  17.255  0.00  0.00    +0.000 A 
ATOM     30  C   UNL     1      -3.353  11.783  17.995  0.00  0.00    +0.000 A 
ATOM     31  C   UNL     1      -2.007  11.970  18.313  0.00  0.00    +0.000 A 
ENDBRANCH  23  26
ENDBRANCH  21  23
TORSDOF 2
ENDMDL
MODEL 9
REMARK VINA RESULT:      -7.7      1.275      1.668
REMARK  Name = 
REMARK  3 active torsions:
REMARK  status: ('A' for Active; 'I' for Inactive)
REMARK    1  A    between atoms: C_1  and  C_2
REMARK    2  A    between atoms: N_21  and  S_22
REMARK    3  A    between atoms: S_22  and  C_25
REMARK                            x       y       z     vdW  Elec       q    Type
REMARK                         _______ _______ _______ _____ _____    ______ ____
ROOT
ATOM      1  C   UNL     1      -0.837  13.308  20.129  0.00  0.00    +0.000 C 
ATOM      2  C   UNL     1      -0.375  12.072  19.411  0.00  0.00    +0.000 C 
ATOM      3  O   UNL     1      -0.818  11.788  18.302  0.00  0.00    +0.000 OA
ATOM      4  N   UNL     1       0.570  11.339  20.107  0.00  0.00    +0.000 N 
ATOM      5  C   UNL     1       1.130  10.177  19.563  0.00  0.00    +0.000 A 
ATOM      6  C   UNL     1       1.546  10.169  18.243  0.00  0.00    +0.000 A 
ATOM      7  C   UNL     1       2.016   8.988  17.719  0.00  0.00    +0.000 A 
ATOM      8  C   UNL     1       2.024   7.850  18.519  0.00  0.00    +0.000 A 
ATOM      9  C   UNL     1       2.423   6.642  17.956  0.00  0.00    +0.000 A 
ATOM     10  C   UNL     1       2.398   5.523  18.781  0.00  0.00    +0.000 A 
ATOM     11  C   UNL     1       1.968   5.656  20.101  0.00  0.00    +0.000 A 
ATOM     12  N   UNL     1       1.596   6.845  20.644  0.00  0.00    +0.000 NA
ATOM     13  C   UNL     1       1.622   7.929  19.867  0.00  0.00    +0.000 A 
ATOM     14  N   UNL     1       1.230   9.106  20.382  0.00  0.00    +0.000 NA
ATOM     15  C   UNL     1       1.998   4.361  20.703  0.00  0.00    +0.000 A 
ATOM     16  C   UNL     1       1.678   3.829  21.966  0.00  0.00    +0.000 A 
ATOM     17  C   UNL     1       1.875   2.463  22.177  0.00  0.00    +0.000 A 
ATOM     18  C   UNL     1       2.366   1.691  21.137  0.00  0.00    +0.000 A 
ATOM     19  N   UNL     1       2.665   2.146  19.902  0.00  0.00    +0.000 NA
ATOM     20  C   UNL     1       2.478   3.475  19.740  0.00  0.00    +0.000 A 
ATOM     21  N   UNL     1       2.740   4.203  18.611  0.00  0.00    +0.000 N 
ATOM     22  H   UNL     1       0.532  11.350  21.118  0.00  0.00    +0.000 HD
ENDROOT
BRANCH  21  23
ATOM     23  S   UNL     1       3.546   3.545  17.269  0.00  0.00    +0.000 S 
ATOM     24  O   UNL     1       4.030   2.236  17.673  0.00  0.00    +0.000 OA
ATOM     25  O   UNL     1       2.633   3.668  16.149  0.00  0.00    +0.000 OA
BRANCH  23  26
ATOM     26  C   UNL     1       4.981   4.547  16.979  0.00  0.00    +0.000 A 
ATOM     27  C   UNL     1       5.808   4.891  18.056  0.00  0.00    +0.000 A 
ATOM     28  C   UNL     1       7.037   5.507  17.811  0.00  0.00    +0.000 A 
ATOM     29  C   UNL     1       7.436   5.774  16.502  0.00  0.00    +0.000 A 
ATOM     30  C   UNL     1       6.603   5.442  15.432  0.00  0.00    +0.000 A 
ATOM     31  C   UNL     1       5.377   4.820  15.668  0.00  0.00    +0.000 A 
ENDBRANCH  23  26
ENDBRANCH  21  23
TORSDOF 2
ENDMDL
