MODEL 1
REMARK VINA RESULT:      -8.3      0.000      0.000
REMARK  Name = 
REMARK  5 active torsions:
REMARK  status: ('A' for Active; 'I' for Inactive)
REMARK    1  A    between atoms: C_1  and  C_2
REMARK    2  A    between atoms: C_2  and  N_3
REMARK    3  A    between atoms: C_2  and  C_13
REMARK    4  A    between atoms: N_3  and  C_4
REMARK    5  A    between atoms: N_24  and  C_25
REMARK                            x       y       z     vdW  Elec       q    Type
REMARK                         _______ _______ _______ _____ _____    ______ ____
ROOT
ATOM      1  C   UNL     1       2.519   6.274  18.439  0.00  0.00    +0.000 A 
ATOM      2  N   UNL     1       2.621   7.446  17.873  0.00  0.00    +0.000 NA
ATOM      3  C   UNL     1       2.094   8.575  18.502  0.00  0.00    +0.000 A 
ATOM      4  C   UNL     1       2.163   9.812  17.852  0.00  0.00    +0.000 A 
ATOM      5  C   UNL     1       1.619  10.956  18.442  0.00  0.00    +0.000 A 
ATOM      6  C   UNL     1       1.014  10.864  19.690  0.00  0.00    +0.000 A 
ATOM      7  F   UNL     1       0.492  11.960  20.254  0.00  0.00    +0.000 F 
ATOM      8  C   UNL     1       0.938   9.649  20.354  0.00  0.00    +0.000 A 
ATOM      9  C   UNL     1       1.476   8.510  19.743  0.00  0.00    +0.000 A 
ATOM     10  C   UNL     1       1.394   7.198  20.390  0.00  0.00    +0.000 A 
ATOM     11  O   UNL     1       0.871   7.148  21.504  0.00  0.00    +0.000 OA
ATOM     12  N   UNL     1       1.939   6.108  19.688  0.00  0.00    +0.000 N 
ENDROOT
BRANCH  12  13
ATOM     13  C   UNL     1       1.848   4.858  20.360  0.00  0.00    +0.000 A 
ATOM     14  C   UNL     1       2.958   4.385  21.078  0.00  0.00    +0.000 A 
ATOM     15  C   UNL     1       2.937   3.122  21.666  0.00  0.00    +0.000 A 
ATOM     16  C   UNL     1       1.813   2.314  21.525  0.00  0.00    +0.000 A 
ATOM     17  C   UNL     1       0.706   2.775  20.809  0.00  0.00    +0.000 A 
ATOM     18  C   UNL     1       0.719   4.047  20.228  0.00  0.00    +0.000 A 
ENDBRANCH  12  13
BRANCH   1  20
ATOM     19  C   UNL     1       2.115   3.932  17.323  0.00  0.00    +0.000 C 
ATOM     20  C   UNL     1       3.074   5.092  17.571  0.00  0.00    +0.000 C 
BRANCH  20  21
ATOM     21  N   UNL     1       4.378   4.654  18.098  0.00  0.00    +0.000 N 
ATOM     22  H   UNL     1       4.462   4.728  19.113  0.00  0.00    +0.000 HD
BRANCH  21  23
ATOM     23  C   UNL     1       5.504   5.284  17.539  0.00  0.00    +0.000 A 
ATOM     24  N   UNL     1       6.165   6.272  18.204  0.00  0.00    +0.000 NA
ATOM     25  C   UNL     1       7.229   6.867  17.622  0.00  0.00    +0.000 A 
ATOM     26  N   UNL     1       7.771   6.614  16.415  0.00  0.00    +0.000 NA
ATOM     27  C   UNL     1       7.095   5.635  15.797  0.00  0.00    +0.000 A 
ATOM     28  N   UNL     1       7.357   5.117  14.562  0.00  0.00    +0.000 N 
ATOM     29  C   UNL     1       6.438   4.132  14.328  0.00  0.00    +0.000 A 
ATOM     30  N   UNL     1       5.601   3.988  15.335  0.00  0.00    +0.000 NA
ATOM     31  C   UNL     1       5.997   4.932  16.263  0.00  0.00    +0.000 A 
ATOM     32  H   UNL     1       8.097   5.421  13.948  0.00  0.00    +0.000 HD
ENDBRANCH  21  23
ENDBRANCH  20  21
ENDBRANCH   1  20
TORSDOF 4
ENDMDL
MODEL 2
REMARK VINA RESULT:      -7.8      0.388      1.629
REMARK  Name = 
REMARK  5 active torsions:
REMARK  status: ('A' for Active; 'I' for Inactive)
REMARK    1  A    between atoms: C_1  and  C_2
REMARK    2  A    between atoms: C_2  and  N_3
REMARK    3  A    between atoms: C_2  and  C_13
REMARK    4  A    between atoms: N_3  and  C_4
REMARK    5  A    between atoms: N_24  and  C_25
REMARK                            x       y       z     vdW  Elec       q    Type
REMARK                         _______ _______ _______ _____ _____    ______ ____
ROOT
ATOM      1  C   UNL     1       2.419   6.256  18.401  0.00  0.00    +0.000 A 
ATOM      2  N   UNL     1       2.509   7.425  17.828  0.00  0.00    +0.000 NA
ATOM      3  C   UNL     1       2.045   8.564  18.488  0.00  0.00    +0.000 A 
ATOM      4  C   UNL     1       2.096   9.800  17.834  0.00  0.00    +0.000 A 
ATOM      5  C   UNL     1       1.613  10.954  18.456  0.00  0.00    +0.000 A 
ATOM      6  C   UNL     1       1.086  10.874  19.740  0.00  0.00    +0.000 A 
ATOM      7  F   UNL     1       0.622  11.980  20.334  0.00  0.00    +0.000 F 
ATOM      8  C   UNL     1       1.029   9.660  20.408  0.00  0.00    +0.000 A 
ATOM      9  C   UNL     1       1.504   8.511  19.766  0.00  0.00    +0.000 A 
ATOM     10  C   UNL     1       1.438   7.200  20.417  0.00  0.00    +0.000 A 
ATOM     11  O   UNL     1       0.986   7.160  21.562  0.00  0.00    +0.000 OA
ATOM     12  N   UNL     1       1.917   6.100  19.684  0.00  0.00    +0.000 N 
ENDROOT
BRANCH  12  13
ATOM     13  C   UNL     1       1.844   4.853  20.362  0.00  0.00    +0.000 A 
ATOM     14  C   UNL     1       2.976   4.376  21.042  0.00  0.00    +0.000 A 
ATOM     15  C   UNL     1       2.971   3.115  21.633  0.00  0.00    +0.000 A 
ATOM     16  C   UNL     1       1.839   2.311  21.533  0.00  0.00    +0.000 A 
ATOM     17  C   UNL     1       0.710   2.775  20.855  0.00  0.00    +0.000 A 
ATOM     18  C   UNL     1       0.708   4.045  20.270  0.00  0.00    +0.000 A 
ENDBRANCH  12  13
BRANCH   1  20
ATOM     19  C   UNL     1       1.902   3.920  17.318  0.00  0.00    +0.000 C 
ATOM     20  C   UNL     1       2.896   5.063  17.501  0.00  0.00    +0.000 C 
BRANCH  20  21
ATOM     21  N   UNL     1       4.224   4.603  17.942  0.00  0.00    +0.000 N 
ATOM     22  H   UNL     1       4.535   5.013  18.824  0.00  0.00    +0.000 HD
BRANCH  21  23
ATOM     23  C   UNL     1       5.267   4.772  17.013  0.00  0.00    +0.000 A 
ATOM     24  N   UNL     1       5.416   3.927  15.956  0.00  0.00    +0.000 NA
ATOM     25  C   UNL     1       6.445   4.111  15.099  0.00  0.00    +0.000 A 
ATOM     26  N   UNL     1       7.399   5.063  15.132  0.00  0.00    +0.000 NA
ATOM     27  C   UNL     1       7.214   5.873  16.183  0.00  0.00    +0.000 A 
ATOM     28  N   UNL     1       7.983   6.943  16.534  0.00  0.00    +0.000 N 
ATOM     29  C   UNL     1       7.431   7.495  17.657  0.00  0.00    +0.000 A 
ATOM     30  N   UNL     1       6.356   6.842  18.050  0.00  0.00    +0.000 NA
ATOM     31  C   UNL     1       6.212   5.814  17.137  0.00  0.00    +0.000 A 
ATOM     32  H   UNL     1       8.808   7.253  16.043  0.00  0.00    +0.000 HD
ENDBRANCH  21  23
ENDBRANCH  20  21
ENDBRANCH   1  20
TORSDOF 4
ENDMDL
MODEL 3
REMARK VINA RESULT:      -7.8      4.888      9.711
REMARK  Name = 
REMARK  5 active torsions:
REMARK  status: ('A' for Active; 'I' for Inactive)
REMARK    1  A    between atoms: C_1  and  C_2
REMARK    2  A    between atoms: C_2  and  N_3
REMARK    3  A    between atoms: C_2  and  C_13
REMARK    4  A    between atoms: N_3  and  C_4
REMARK    5  A    between atoms: N_24  and  C_25
REMARK                            x       y       z     vdW  Elec       q    Type
REMARK                         _______ _______ _______ _____ _____    ______ ____
ROOT
ATOM      1  C   UNL     1       0.887   9.643  20.978  0.00  0.00    +0.000 A 
ATOM      2  N   UNL     1       1.156   8.392  21.232  0.00  0.00    +0.000 NA
ATOM      3  C   UNL     1       1.669   7.569  20.228  0.00  0.00    +0.000 A 
ATOM      4  C   UNL     1       1.896   6.217  20.505  0.00  0.00    +0.000 A 
ATOM      5  C   UNL     1       2.381   5.360  19.513  0.00  0.00    +0.000 A 
ATOM      6  C   UNL     1       2.649   5.860  18.244  0.00  0.00    +0.000 A 
ATOM      7  F   UNL     1       3.113   5.038  17.294  0.00  0.00    +0.000 F 
ATOM      8  C   UNL     1       2.435   7.197  17.949  0.00  0.00    +0.000 A 
ATOM      9  C   UNL     1       1.936   8.039  18.949  0.00  0.00    +0.000 A 
ATOM     10  C   UNL     1       1.664   9.453  18.679  0.00  0.00    +0.000 A 
ATOM     11  O   UNL     1       1.930   9.875  17.553  0.00  0.00    +0.000 OA
ATOM     12  N   UNL     1       1.139  10.214  19.739  0.00  0.00    +0.000 N 
ENDROOT
BRANCH  12  13
ATOM     13  C   UNL     1       0.904  11.583  19.433  0.00  0.00    +0.000 A 
ATOM     14  C   UNL     1      -0.269  11.939  18.748  0.00  0.00    +0.000 A 
ATOM     15  C   UNL     1      -0.484  13.255  18.346  0.00  0.00    +0.000 A 
ATOM     16  C   UNL     1       0.480  14.223  18.608  0.00  0.00    +0.000 A 
ATOM     17  C   UNL     1       1.652  13.877  19.284  0.00  0.00    +0.000 A 
ATOM     18  C   UNL     1       1.867  12.559  19.700  0.00  0.00    +0.000 A 
ENDBRANCH  12  13
BRANCH   1  20
ATOM     19  C   UNL     1      -0.045   9.594  23.432  0.00  0.00    +0.000 C 
ATOM     20  C   UNL     1       0.232  10.415  22.176  0.00  0.00    +0.000 C 
BRANCH  20  21
ATOM     21  N   UNL     1      -0.949  11.159  21.707  0.00  0.00    +0.000 N 
ATOM     22  H   UNL     1      -0.959  11.331  20.700  0.00  0.00    +0.000 HD
BRANCH  21  23
ATOM     23  C   UNL     1      -1.184  12.392  22.342  0.00  0.00    +0.000 A 
ATOM     24  N   UNL     1      -0.338  13.446  22.177  0.00  0.00    +0.000 NA
ATOM     25  C   UNL     1      -0.588  14.606  22.824  0.00  0.00    +0.000 A 
ATOM     26  N   UNL     1      -1.611  14.897  23.651  0.00  0.00    +0.000 NA
ATOM     27  C   UNL     1      -2.420  13.837  23.782  0.00  0.00    +0.000 A 
ATOM     28  N   UNL     1      -3.553  13.764  24.540  0.00  0.00    +0.000 N 
ATOM     29  C   UNL     1      -4.077  12.512  24.374  0.00  0.00    +0.000 A 
ATOM     30  N   UNL     1      -3.349  11.776  23.559  0.00  0.00    +0.000 NA
ATOM     31  C   UNL     1      -2.299  12.593  23.186  0.00  0.00    +0.000 A 
ATOM     32  H   UNL     1      -3.919  14.509  25.113  0.00  0.00    +0.000 HD
ENDBRANCH  21  23
ENDBRANCH  20  21
ENDBRANCH   1  20
TORSDOF 4
ENDMDL
MODEL 4
REMARK VINA RESULT:      -7.8      6.800     10.089
REMARK  Name = 
REMARK  5 active torsions:
REMARK  status: ('A' for Active; 'I' for Inactive)
REMARK    1  A    between atoms: C_1  and  C_2
REMARK    2  A    between atoms: C_2  and  N_3
REMARK    3  A    between atoms: C_2  and  C_13
REMARK    4  A    between atoms: N_3  and  C_4
REMARK    5  A    between atoms: N_24  and  C_25
REMARK                            x       y       z     vdW  Elec       q    Type
REMARK                         _______ _______ _______ _____ _____    ______ ____
ROOT
ATOM      1  C   UNL     1      -0.955  12.882  19.723  0.00  0.00    +0.000 A 
ATOM      2  N   UNL     1      -0.925  14.010  19.068  0.00  0.00    +0.000 NA
ATOM      3  C   UNL     1       0.160  14.876  19.215  0.00  0.00    +0.000 A 
ATOM      4  C   UNL     1       0.146  16.106  18.548  0.00  0.00    +0.000 A 
ATOM      5  C   UNL     1       1.204  17.007  18.697  0.00  0.00    +0.000 A 
ATOM      6  C   UNL     1       2.284  16.672  19.507  0.00  0.00    +0.000 A 
ATOM      7  F   UNL     1       3.295  17.537  19.650  0.00  0.00    +0.000 F 
ATOM      8  C   UNL     1       2.320  15.457  20.173  0.00  0.00    +0.000 A 
ATOM      9  C   UNL     1       1.247  14.571  20.024  0.00  0.00    +0.000 A 
ATOM     10  C   UNL     1       1.223  13.288  20.731  0.00  0.00    +0.000 A 
ATOM     11  O   UNL     1       2.201  13.007  21.425  0.00  0.00    +0.000 OA
ATOM     12  N   UNL     1       0.091  12.476  20.539  0.00  0.00    +0.000 N 
ENDROOT
BRANCH  12  13
ATOM     13  C   UNL     1       0.120  11.237  21.235  0.00  0.00    +0.000 A 
ATOM     14  C   UNL     1       0.673  10.111  20.603  0.00  0.00    +0.000 A 
ATOM     15  C   UNL     1       0.629   8.860  21.216  0.00  0.00    +0.000 A 
ATOM     16  C   UNL     1       0.015   8.721  22.457  0.00  0.00    +0.000 A 
ATOM     17  C   UNL     1      -0.541   9.835  23.090  0.00  0.00    +0.000 A 
ATOM     18  C   UNL     1      -0.489  11.093  22.483  0.00  0.00    +0.000 A 
ENDBRANCH  12  13
BRANCH   1  20
ATOM     19  C   UNL     1      -2.256  11.006  18.427  0.00  0.00    +0.000 C 
ATOM     20  C   UNL     1      -2.277  12.062  19.528  0.00  0.00    +0.000 C 
BRANCH  20  21
ATOM     21  N   UNL     1      -3.424  12.979  19.419  0.00  0.00    +0.000 N 
ATOM     22  H   UNL     1      -3.195  13.956  19.612  0.00  0.00    +0.000 HD
BRANCH  21  23
ATOM     23  C   UNL     1      -4.544  12.651  20.204  0.00  0.00    +0.000 A 
ATOM     24  N   UNL     1      -4.654  13.077  21.493  0.00  0.00    +0.000 NA
ATOM     25  C   UNL     1      -5.735  12.721  22.220  0.00  0.00    +0.000 A 
ATOM     26  N   UNL     1      -6.786  11.968  21.840  0.00  0.00    +0.000 NA
ATOM     27  C   UNL     1      -6.641  11.573  20.568  0.00  0.00    +0.000 A 
ATOM     28  N   UNL     1      -7.505  10.800  19.849  0.00  0.00    +0.000 N 
ATOM     29  C   UNL     1      -6.979  10.654  18.595  0.00  0.00    +0.000 A 
ATOM     30  N   UNL     1      -5.829  11.283  18.466  0.00  0.00    +0.000 NA
ATOM     31  C   UNL     1      -5.599  11.859  19.701  0.00  0.00    +0.000 A 
ATOM     32  H   UNL     1      -8.369  10.414  20.199  0.00  0.00    +0.000 HD
ENDBRANCH  21  23
ENDBRANCH  20  21
ENDBRANCH   1  20
TORSDOF 4
ENDMDL
MODEL 5
REMARK VINA RESULT:      -7.7      6.994     10.515
REMARK  Name = 
REMARK  5 active torsions:
REMARK  status: ('A' for Active; 'I' for Inactive)
REMARK    1  A    between atoms: C_1  and  C_2
REMARK    2  A    between atoms: C_2  and  N_3
REMARK    3  A    between atoms: C_2  and  C_13
REMARK    4  A    between atoms: N_3  and  C_4
REMARK    5  A    between atoms: N_24  and  C_25
REMARK                            x       y       z     vdW  Elec       q    Type
REMARK                         _______ _______ _______ _____ _____    ______ ____
ROOT
ATOM      1  C   UNL     1      -1.153  13.082  19.842  0.00  0.00    +0.000 A 
ATOM      2  N   UNL     1      -1.069  14.207  19.186  0.00  0.00    +0.000 NA
ATOM      3  C   UNL     1       0.098  14.969  19.252  0.00  0.00    +0.000 A 
ATOM      4  C   UNL     1       0.147  16.200  18.588  0.00  0.00    +0.000 A 
ATOM      5  C   UNL     1       1.291  17.001  18.658  0.00  0.00    +0.000 A 
ATOM      6  C   UNL     1       2.392  16.563  19.385  0.00  0.00    +0.000 A 
ATOM      7  F   UNL     1       3.487  17.331  19.453  0.00  0.00    +0.000 F 
ATOM      8  C   UNL     1       2.367  15.346  20.047  0.00  0.00    +0.000 A 
ATOM      9  C   UNL     1       1.209  14.562  19.978  0.00  0.00    +0.000 A 
ATOM     10  C   UNL     1       1.121  13.282  20.686  0.00  0.00    +0.000 A 
ATOM     11  O   UNL     1       2.118  12.908  21.305  0.00  0.00    +0.000 OA
ATOM     12  N   UNL     1      -0.091  12.578  20.578  0.00  0.00    +0.000 N 
ENDROOT
BRANCH  12  13
ATOM     13  C   UNL     1      -0.124  11.336  21.270  0.00  0.00    +0.000 A 
ATOM     14  C   UNL     1       0.258  10.166  20.594  0.00  0.00    +0.000 A 
ATOM     15  C   UNL     1       0.144   8.921  21.210  0.00  0.00    +0.000 A 
ATOM     16  C   UNL     1      -0.370   8.834  22.500  0.00  0.00    +0.000 A 
ATOM     17  C   UNL     1      -0.757   9.992  23.178  0.00  0.00    +0.000 A 
ATOM     18  C   UNL     1      -0.634  11.244  22.567  0.00  0.00    +0.000 A 
ENDBRANCH  12  13
BRANCH   1  20
ATOM     19  C   UNL     1      -2.792  11.519  18.513  0.00  0.00    +0.000 C 
ATOM     20  C   UNL     1      -2.556  12.387  19.746  0.00  0.00    +0.000 C 
BRANCH  20  21
ATOM     21  N   UNL     1      -3.622  13.380  19.960  0.00  0.00    +0.000 N 
ATOM     22  H   UNL     1      -3.281  14.319  20.172  0.00  0.00    +0.000 HD
BRANCH  21  23
ATOM     23  C   UNL     1      -4.573  13.050  20.943  0.00  0.00    +0.000 A 
ATOM     24  N   UNL     1      -5.782  12.520  20.608  0.00  0.00    +0.000 NA
ATOM     25  C   UNL     1      -6.676  12.239  21.582  0.00  0.00    +0.000 A 
ATOM     26  N   UNL     1      -6.542  12.408  22.912  0.00  0.00    +0.000 NA
ATOM     27  C   UNL     1      -5.340  12.927  23.198  0.00  0.00    +0.000 A 
ATOM     28  N   UNL     1      -4.858  13.233  24.437  0.00  0.00    +0.000 N 
ATOM     29  C   UNL     1      -3.591  13.722  24.273  0.00  0.00    +0.000 A 
ATOM     30  N   UNL     1      -3.232  13.751  23.007  0.00  0.00    +0.000 NA
ATOM     31  C   UNL     1      -4.325  13.261  22.317  0.00  0.00    +0.000 A 
ATOM     32  H   UNL     1      -5.361  13.115  25.303  0.00  0.00    +0.000 HD
ENDBRANCH  21  23
ENDBRANCH  20  21
ENDBRANCH   1  20
TORSDOF 4
ENDMDL
MODEL 6
REMARK VINA RESULT:      -7.7      2.177      5.616
REMARK  Name = 
REMARK  5 active torsions:
REMARK  status: ('A' for Active; 'I' for Inactive)
REMARK    1  A    between atoms: C_1  and  C_2
REMARK    2  A    between atoms: C_2  and  N_3
REMARK    3  A    between atoms: C_2  and  C_13
REMARK    4  A    between atoms: N_3  and  C_4
REMARK    5  A    between atoms: N_24  and  C_25
REMARK                            x       y       z     vdW  Elec       q    Type
REMARK                         _______ _______ _______ _____ _____    ______ ____
ROOT
ATOM      1  C   UNL     1       4.294   5.689  18.920  0.00  0.00    +0.000 A 
ATOM      2  N   UNL     1       3.443   6.155  19.793  0.00  0.00    +0.000 NA
ATOM      3  C   UNL     1       2.631   7.241  19.466  0.00  0.00    +0.000 A 
ATOM      4  C   UNL     1       1.767   7.762  20.436  0.00  0.00    +0.000 A 
ATOM      5  C   UNL     1       0.961   8.868  20.149  0.00  0.00    +0.000 A 
ATOM      6  C   UNL     1       1.013   9.448  18.887  0.00  0.00    +0.000 A 
ATOM      7  F   UNL     1       0.242  10.507  18.614  0.00  0.00    +0.000 F 
ATOM      8  C   UNL     1       1.859   8.945  17.910  0.00  0.00    +0.000 A 
ATOM      9  C   UNL     1       2.669   7.846  18.217  0.00  0.00    +0.000 A 
ATOM     10  C   UNL     1       3.603   7.297  17.230  0.00  0.00    +0.000 A 
ATOM     11  O   UNL     1       3.614   7.816  16.113  0.00  0.00    +0.000 OA
ATOM     12  N   UNL     1       4.393   6.208  17.638  0.00  0.00    +0.000 N 
ENDROOT
BRANCH  12  13
ATOM     13  C   UNL     1       5.273   5.702  16.642  0.00  0.00    +0.000 A 
ATOM     14  C   UNL     1       4.830   4.671  15.799  0.00  0.00    +0.000 A 
ATOM     15  C   UNL     1       5.698   4.085  14.879  0.00  0.00    +0.000 A 
ATOM     16  C   UNL     1       7.020   4.513  14.808  0.00  0.00    +0.000 A 
ATOM     17  C   UNL     1       7.470   5.534  15.646  0.00  0.00    +0.000 A 
ATOM     18  C   UNL     1       6.599   6.133  16.563  0.00  0.00    +0.000 A 
ENDBRANCH  12  13
BRANCH   1  20
ATOM     19  C   UNL     1       6.706   4.756  19.377  0.00  0.00    +0.000 C 
ATOM     20  C   UNL     1       5.199   4.529  19.463  0.00  0.00    +0.000 C 
BRANCH  20  21
ATOM     21  N   UNL     1       4.779   3.247  18.872  0.00  0.00    +0.000 N 
ATOM     22  H   UNL     1       5.096   3.109  17.910  0.00  0.00    +0.000 HD
BRANCH  21  23
ATOM     23  C   UNL     1       3.396   2.989  18.896  0.00  0.00    +0.000 A 
ATOM     24  N   UNL     1       2.681   2.857  17.746  0.00  0.00    +0.000 NA
ATOM     25  C   UNL     1       1.350   2.631  17.813  0.00  0.00    +0.000 A 
ATOM     26  N   UNL     1       0.580   2.505  18.912  0.00  0.00    +0.000 NA
ATOM     27  C   UNL     1       1.322   2.637  20.019  0.00  0.00    +0.000 A 
ATOM     28  N   UNL     1       0.882   2.569  21.309  0.00  0.00    +0.000 N 
ATOM     29  C   UNL     1       1.968   2.742  22.122  0.00  0.00    +0.000 A 
ATOM     30  N   UNL     1       3.077   2.919  21.434  0.00  0.00    +0.000 NA
ATOM     31  C   UNL     1       2.685   2.864  20.110  0.00  0.00    +0.000 A 
ATOM     32  H   UNL     1      -0.076   2.420  21.590  0.00  0.00    +0.000 HD
ENDBRANCH  21  23
ENDBRANCH  20  21
ENDBRANCH   1  20
TORSDOF 4
ENDMDL
MODEL 7
REMARK VINA RESULT:      -7.7      6.280      9.801
REMARK  Name = 
REMARK  5 active torsions:
REMARK  status: ('A' for Active; 'I' for Inactive)
REMARK    1  A    between atoms: C_1  and  C_2
REMARK    2  A    between atoms: C_2  and  N_3
REMARK    3  A    between atoms: C_2  and  C_13
REMARK    4  A    between atoms: N_3  and  C_4
REMARK    5  A    between atoms: N_24  and  C_25
REMARK                            x       y       z     vdW  Elec       q    Type
REMARK                         _______ _______ _______ _____ _____    ______ ____
ROOT
ATOM      1  C   UNL     1      -0.910  12.372  19.144  0.00  0.00    +0.000 A 
ATOM      2  N   UNL     1      -0.943  13.557  18.598  0.00  0.00    +0.000 NA
ATOM      3  C   UNL     1       0.001  14.519  18.957  0.00  0.00    +0.000 A 
ATOM      4  C   UNL     1      -0.087  15.801  18.404  0.00  0.00    +0.000 A 
ATOM      5  C   UNL     1       0.826  16.796  18.765  0.00  0.00    +0.000 A 
ATOM      6  C   UNL     1       1.836  16.504  19.675  0.00  0.00    +0.000 A 
ATOM      7  F   UNL     1       2.709  17.458  20.021  0.00  0.00    +0.000 F 
ATOM      8  C   UNL     1       1.944  15.240  20.232  0.00  0.00    +0.000 A 
ATOM      9  C   UNL     1       1.014  14.258  19.871  0.00  0.00    +0.000 A 
ATOM     10  C   UNL     1       1.067  12.916  20.455  0.00  0.00    +0.000 A 
ATOM     11  O   UNL     1       1.984  12.677  21.242  0.00  0.00    +0.000 OA
ATOM     12  N   UNL     1       0.075  12.006  20.050  0.00  0.00    +0.000 N 
ENDROOT
BRANCH  12  13
ATOM     13  C   UNL     1       0.176  10.713  20.633  0.00  0.00    +0.000 A 
ATOM     14  C   UNL     1      -0.439  10.472  21.872  0.00  0.00    +0.000 A 
ATOM     15  C   UNL     1      -0.278   9.248  22.519  0.00  0.00    +0.000 A 
ATOM     16  C   UNL     1       0.515   8.262  21.940  0.00  0.00    +0.000 A 
ATOM     17  C   UNL     1       1.134   8.495  20.710  0.00  0.00    +0.000 A 
ATOM     18  C   UNL     1       0.965   9.717  20.053  0.00  0.00    +0.000 A 
ENDBRANCH  12  13
BRANCH   1  20
ATOM     19  C   UNL     1      -1.735  10.325  17.720  0.00  0.00    +0.000 C 
ATOM     20  C   UNL     1      -2.088  11.432  18.710  0.00  0.00    +0.000 C 
BRANCH  20  21
ATOM     21  N   UNL     1      -3.240  12.241  18.277  0.00  0.00    +0.000 N 
ATOM     22  H   UNL     1      -3.149  13.238  18.480  0.00  0.00    +0.000 HD
BRANCH  21  23
ATOM     23  C   UNL     1      -4.493  11.829  18.767  0.00  0.00    +0.000 A 
ATOM     24  N   UNL     1      -5.336  11.076  18.008  0.00  0.00    +0.000 NA
ATOM     25  C   UNL     1      -6.540  10.720  18.508  0.00  0.00    +0.000 A 
ATOM     26  N   UNL     1      -7.061  11.010  19.717  0.00  0.00    +0.000 NA
ATOM     27  C   UNL     1      -6.200  11.747  20.431  0.00  0.00    +0.000 A 
ATOM     28  N   UNL     1      -6.387  12.224  21.695  0.00  0.00    +0.000 N 
ATOM     29  C   UNL     1      -5.256  12.909  22.047  0.00  0.00    +0.000 A 
ATOM     30  N   UNL     1      -4.356  12.903  21.086  0.00  0.00    +0.000 NA
ATOM     31  C   UNL     1      -4.939  12.182  20.059  0.00  0.00    +0.000 A 
ATOM     32  H   UNL     1      -7.217  12.088  22.252  0.00  0.00    +0.000 HD
ENDBRANCH  21  23
ENDBRANCH  20  21
ENDBRANCH   1  20
TORSDOF 4
ENDMDL
MODEL 8
REMARK VINA RESULT:      -7.7      1.007      1.832
REMARK  Name = 
REMARK  5 active torsions:
REMARK  status: ('A' for Active; 'I' for Inactive)
REMARK    1  A    between atoms: C_1  and  C_2
REMARK    2  A    between atoms: C_2  and  N_3
REMARK    3  A    between atoms: C_2  and  C_13
REMARK    4  A    between atoms: N_3  and  C_4
REMARK    5  A    between atoms: N_24  and  C_25
REMARK                            x       y       z     vdW  Elec       q    Type
REMARK                         _______ _______ _______ _____ _____    ______ ____
ROOT
ATOM      1  C   UNL     1       2.410   6.260  18.411  0.00  0.00    +0.000 A 
ATOM      2  N   UNL     1       2.490   7.431  17.839  0.00  0.00    +0.000 NA
ATOM      3  C   UNL     1       2.019   8.565  18.500  0.00  0.00    +0.000 A 
ATOM      4  C   UNL     1       2.061   9.802  17.846  0.00  0.00    +0.000 A 
ATOM      5  C   UNL     1       1.570  10.953  18.470  0.00  0.00    +0.000 A 
ATOM      6  C   UNL     1       1.044  10.867  19.754  0.00  0.00    +0.000 A 
ATOM      7  F   UNL     1       0.573  11.970  20.350  0.00  0.00    +0.000 F 
ATOM      8  C   UNL     1       0.997   9.653  20.422  0.00  0.00    +0.000 A 
ATOM      9  C   UNL     1       1.480   8.508  19.779  0.00  0.00    +0.000 A 
ATOM     10  C   UNL     1       1.423   7.196  20.429  0.00  0.00    +0.000 A 
ATOM     11  O   UNL     1       0.973   7.152  21.574  0.00  0.00    +0.000 OA
ATOM     12  N   UNL     1       1.910   6.100  19.695  0.00  0.00    +0.000 N 
ENDROOT
BRANCH  12  13
ATOM     13  C   UNL     1       1.846   4.852  20.372  0.00  0.00    +0.000 A 
ATOM     14  C   UNL     1       2.988   4.375  21.036  0.00  0.00    +0.000 A 
ATOM     15  C   UNL     1       2.991   3.113  21.626  0.00  0.00    +0.000 A 
ATOM     16  C   UNL     1       1.859   2.309  21.540  0.00  0.00    +0.000 A 
ATOM     17  C   UNL     1       0.721   2.773  20.877  0.00  0.00    +0.000 A 
ATOM     18  C   UNL     1       0.710   4.044  20.294  0.00  0.00    +0.000 A 
ENDBRANCH  12  13
BRANCH   1  20
ATOM     19  C   UNL     1       1.889   3.947  17.283  0.00  0.00    +0.000 C 
ATOM     20  C   UNL     1       2.895   5.071  17.510  0.00  0.00    +0.000 C 
BRANCH  20  21
ATOM     21  N   UNL     1       4.201   4.584  17.984  0.00  0.00    +0.000 N 
ATOM     22  H   UNL     1       4.255   4.455  18.996  0.00  0.00    +0.000 HD
BRANCH  21  23
ATOM     23  C   UNL     1       5.314   5.355  17.603  0.00  0.00    +0.000 A 
ATOM     24  N   UNL     1       5.396   5.915  16.364  0.00  0.00    +0.000 NA
ATOM     25  C   UNL     1       6.493   6.629  16.030  0.00  0.00    +0.000 A 
ATOM     26  N   UNL     1       7.580   6.892  16.782  0.00  0.00    +0.000 NA
ATOM     27  C   UNL     1       7.457   6.328  17.991  0.00  0.00    +0.000 A 
ATOM     28  N   UNL     1       8.361   6.381  19.012  0.00  0.00    +0.000 N 
ATOM     29  C   UNL     1       7.832   5.687  20.065  0.00  0.00    +0.000 A 
ATOM     30  N   UNL     1       6.646   5.189  19.782  0.00  0.00    +0.000 NA
ATOM     31  C   UNL     1       6.400   5.577  18.478  0.00  0.00    +0.000 A 
ATOM     32  H   UNL     1       9.253   6.851  18.975  0.00  0.00    +0.000 HD
ENDBRANCH  21  23
ENDBRANCH  20  21
ENDBRANCH   1  20
TORSDOF 4
ENDMDL
MODEL 9
REMARK VINA RESULT:      -7.6      0.679      1.941
REMARK  Name = 
REMARK  5 active torsions:
REMARK  status: ('A' for Active; 'I' for Inactive)
REMARK    1  A    between atoms: C_1  and  C_2
REMARK    2  A    between atoms: C_2  and  N_3
REMARK    3  A    between atoms: C_2  and  C_13
REMARK    4  A    between atoms: N_3  and  C_4
REMARK    5  A    between atoms: N_24  and  C_25
REMARK                            x       y       z     vdW  Elec       q    Type
REMARK                         _______ _______ _______ _____ _____    ______ ____
ROOT
ATOM      1  C   UNL     1       2.671   5.647  18.122  0.00  0.00    +0.000 A 
ATOM      2  N   UNL     1       2.720   6.800  17.512  0.00  0.00    +0.000 NA
ATOM      3  C   UNL     1       2.288   7.955  18.164  0.00  0.00    +0.000 A 
ATOM      4  C   UNL     1       2.295   9.171  17.473  0.00  0.00    +0.000 A 
ATOM      5  C   UNL     1       1.841  10.342  18.088  0.00  0.00    +0.000 A 
ATOM      6  C   UNL     1       1.388  10.296  19.402  0.00  0.00    +0.000 A 
ATOM      7  F   UNL     1       0.952  11.417  19.990  0.00  0.00    +0.000 F 
ATOM      8  C   UNL     1       1.376   9.102  20.107  0.00  0.00    +0.000 A 
ATOM      9  C   UNL     1       1.821   7.937  19.472  0.00  0.00    +0.000 A 
ATOM     10  C   UNL     1       1.799   6.645  20.163  0.00  0.00    +0.000 A 
ATOM     11  O   UNL     1       1.413   6.636  21.333  0.00  0.00    +0.000 OA
ATOM     12  N   UNL     1       2.242   5.527  19.436  0.00  0.00    +0.000 N 
ENDROOT
BRANCH  12  13
ATOM     13  C   UNL     1       2.215   4.299  20.152  0.00  0.00    +0.000 A 
ATOM     14  C   UNL     1       0.978   3.764  20.546  0.00  0.00    +0.000 A 
ATOM     15  C   UNL     1       0.919   2.616  21.334  0.00  0.00    +0.000 A 
ATOM     16  C   UNL     1       2.098   2.004  21.749  0.00  0.00    +0.000 A 
ATOM     17  C   UNL     1       3.333   2.532  21.366  0.00  0.00    +0.000 A 
ATOM     18  C   UNL     1       3.395   3.677  20.567  0.00  0.00    +0.000 A 
ENDBRANCH  12  13
BRANCH   1  20
ATOM     19  C   UNL     1       2.134   3.252  17.187  0.00  0.00    +0.000 C 
ATOM     20  C   UNL     1       3.103   4.431  17.231  0.00  0.00    +0.000 C 
BRANCH  20  21
ATOM     21  N   UNL     1       4.479   4.028  17.566  0.00  0.00    +0.000 N 
ATOM     22  H   UNL     1       4.769   4.285  18.512  0.00  0.00    +0.000 HD
BRANCH  21  23
ATOM     23  C   UNL     1       5.478   4.482  16.686  0.00  0.00    +0.000 A 
ATOM     24  N   UNL     1       5.714   3.857  15.500  0.00  0.00    +0.000 NA
ATOM     25  C   UNL     1       6.698   4.312  14.694  0.00  0.00    +0.000 A 
ATOM     26  N   UNL     1       7.528   5.355  14.895  0.00  0.00    +0.000 NA
ATOM     27  C   UNL     1       7.260   5.943  16.069  0.00  0.00    +0.000 A 
ATOM     28  N   UNL     1       7.897   7.025  16.603  0.00  0.00    +0.000 N 
ATOM     29  C   UNL     1       7.299   7.303  17.801  0.00  0.00    +0.000 A 
ATOM     30  N   UNL     1       6.320   6.464  18.070  0.00  0.00    +0.000 NA
ATOM     31  C   UNL     1       6.289   5.598  16.993  0.00  0.00    +0.000 A 
ATOM     32  H   UNL     1       8.669   7.515  16.177  0.00  0.00    +0.000 HD
ENDBRANCH  21  23
ENDBRANCH  20  21
ENDBRANCH   1  20
TORSDOF 4
ENDMDL
