MODEL 1
REMARK VINA RESULT:      -8.4      0.000      0.000
REMARK  Name = 
REMARK  7 active torsions:
REMARK  status: ('A' for Active; 'I' for Inactive)
REMARK    1  A    between atoms: C_1  and  C_2
REMARK    2  A    between atoms: C_6  and  C_7
REMARK    3  A    between atoms: C_9  and  C_10
REMARK    4  A    between atoms: N_12  and  C_13
REMARK    5  A    between atoms: N_16  and  C_17
REMARK    6  A    between atoms: C_17  and  C_18
REMARK    7  A    between atoms: C_27  and  N_28
REMARK                            x       y       z     vdW  Elec       q    Type
REMARK                         _______ _______ _______ _____ _____    ______ ____
ROOT
ATOM      1  C   UNL     1       0.402  13.417  19.098  0.00  0.00    +0.000 A 
ATOM      2  C   UNL     1      -0.737  13.115  18.321  0.00  0.00    +0.000 A 
ATOM      3  C   UNL     1      -1.560  12.013  18.609  0.00  0.00    +0.000 A 
ATOM      4  C   UNL     1      -1.278  11.227  19.739  0.00  0.00    +0.000 A 
ATOM      5  C   UNL     1      -0.189  11.540  20.563  0.00  0.00    +0.000 A 
ATOM      6  C   UNL     1       0.647  12.618  20.229  0.00  0.00    +0.000 A 
ENDROOT
BRANCH   1  12
ATOM      7  C   UNL     1       1.238  18.284  18.222  0.00  0.00    +0.000 C 
ATOM      8  C   UNL     1       1.763  16.879  18.246  0.00  0.00    +0.000 A 
ATOM      9  C   UNL     1       3.039  16.571  17.777  0.00  0.00    +0.000 A 
ATOM     10  C   UNL     1       3.484  15.250  17.789  0.00  0.00    +0.000 A 
ATOM     11  C   UNL     1       2.649  14.226  18.252  0.00  0.00    +0.000 A 
ATOM     12  C   UNL     1       1.348  14.495  18.707  0.00  0.00    +0.000 A 
ATOM     13  C   UNL     1       0.941  15.842  18.712  0.00  0.00    +0.000 A 
ENDBRANCH   1  12
BRANCH   5  14
ATOM     14  N   UNL     1       0.091  10.787  21.733  0.00  0.00    +0.000 N 
ATOM     15  C   UNL     1      -0.693  10.546  22.831  0.00  0.00    +0.000 A 
ATOM     16  N   UNL     1      -0.021   9.819  23.697  0.00  0.00    +0.000 NA
ATOM     17  N   UNL     1       1.203   9.599  23.125  0.00  0.00    +0.000 NA
ATOM     18  N   UNL     1       1.282  10.174  21.933  0.00  0.00    +0.000 NA
ENDBRANCH   5  14
BRANCH   3  19
ATOM     19  C   UNL     1      -2.753  11.647  17.771  0.00  0.00    +0.000 C 
ATOM     20  O   UNL     1      -2.582  11.283  16.613  0.00  0.00    +0.000 OA
ATOM     21  N   UNL     1      -4.003  11.755  18.352  0.00  0.00    +0.000 N 
ATOM     22  H   UNL     1      -4.083  12.133  19.281  0.00  0.00    +0.000 HD
BRANCH  21  23
ATOM     23  C   UNL     1      -5.248  11.410  17.657  0.00  0.00    +0.000 C 
ATOM     24  C   UNL     1      -6.082  12.609  17.195  0.00  0.00    +0.000 C 
ATOM     25  C   UNL     1      -6.844  13.336  18.308  0.00  0.00    +0.000 C 
ATOM     26  N   UNL     1      -7.335  12.529  19.422  0.00  0.00    +0.000 NA
ATOM     27  C   UNL     1      -6.718  11.239  19.712  0.00  0.00    +0.000 C 
ATOM     28  C   UNL     1      -6.139  10.507  18.504  0.00  0.00    +0.000 C 
BRANCH  26  29
ATOM     29  C   UNL     1      -7.641  13.309  20.643  0.00  0.00    +0.000 C 
BRANCH  29  30
ATOM     30  C   UNL     1      -6.693  13.200  21.839  0.00  0.00    +0.000 A 
ATOM     31  C   UNL     1      -7.087  12.753  23.108  0.00  0.00    +0.000 A 
ATOM     32  C   UNL     1      -6.186  12.617  24.163  0.00  0.00    +0.000 A 
ATOM     33  C   UNL     1      -4.861  12.956  23.981  0.00  0.00    +0.000 A 
ATOM     34  C   UNL     1      -4.432  13.407  22.735  0.00  0.00    +0.000 A 
ATOM     35  C   UNL     1      -5.337  13.520  21.669  0.00  0.00    +0.000 A 
ENDBRANCH  29  30
ENDBRANCH  26  29
ENDBRANCH  21  23
ENDBRANCH   3  19
TORSDOF 6
ENDMDL
MODEL 2
REMARK VINA RESULT:      -8.4      3.173      7.382
REMARK  Name = 
REMARK  7 active torsions:
REMARK  status: ('A' for Active; 'I' for Inactive)
REMARK    1  A    between atoms: C_1  and  C_2
REMARK    2  A    between atoms: C_6  and  C_7
REMARK    3  A    between atoms: C_9  and  C_10
REMARK    4  A    between atoms: N_12  and  C_13
REMARK    5  A    between atoms: N_16  and  C_17
REMARK    6  A    between atoms: C_17  and  C_18
REMARK    7  A    between atoms: C_27  and  N_28
REMARK                            x       y       z     vdW  Elec       q    Type
REMARK                         _______ _______ _______ _____ _____    ______ ____
ROOT
ATOM      1  C   UNL     1      -4.499  11.404  17.277  0.00  0.00    +0.000 A 
ATOM      2  C   UNL     1      -3.333  11.175  18.039  0.00  0.00    +0.000 A 
ATOM      3  C   UNL     1      -2.225  10.491  17.511  0.00  0.00    +0.000 A 
ATOM      4  C   UNL     1      -2.254  10.079  16.168  0.00  0.00    +0.000 A 
ATOM      5  C   UNL     1      -3.374  10.347  15.370  0.00  0.00    +0.000 A 
ATOM      6  C   UNL     1      -4.488  10.990  15.933  0.00  0.00    +0.000 A 
ENDROOT
BRANCH   1  12
ATOM      7  C   UNL     1      -7.627  15.304  17.674  0.00  0.00    +0.000 C 
ATOM      8  C   UNL     1      -7.246  13.919  18.107  0.00  0.00    +0.000 A 
ATOM      9  C   UNL     1      -7.917  13.271  19.143  0.00  0.00    +0.000 A 
ATOM     10  C   UNL     1      -7.519  11.995  19.537  0.00  0.00    +0.000 A 
ATOM     11  C   UNL     1      -6.435  11.366  18.911  0.00  0.00    +0.000 A 
ATOM     12  C   UNL     1      -5.719  12.000  17.882  0.00  0.00    +0.000 A 
ATOM     13  C   UNL     1      -6.166  13.274  17.486  0.00  0.00    +0.000 A 
ENDBRANCH   1  12
BRANCH   5  14
ATOM     14  N   UNL     1      -3.409   9.979  14.001  0.00  0.00    +0.000 N 
ATOM     15  C   UNL     1      -2.399   9.548  13.180  0.00  0.00    +0.000 A 
ATOM     16  N   UNL     1      -2.875   9.346  11.970  0.00  0.00    +0.000 NA
ATOM     17  N   UNL     1      -4.207   9.649  12.041  0.00  0.00    +0.000 NA
ATOM     18  N   UNL     1      -4.545  10.028  13.265  0.00  0.00    +0.000 NA
ENDBRANCH   5  14
BRANCH   3  19
ATOM     19  C   UNL     1      -0.990  10.198  18.316  0.00  0.00    +0.000 C 
ATOM     20  O   UNL     1       0.008   9.769  17.747  0.00  0.00    +0.000 OA
ATOM     21  N   UNL     1      -1.046  10.416  19.680  0.00  0.00    +0.000 N 
ATOM     22  H   UNL     1      -1.918  10.696  20.098  0.00  0.00    +0.000 HD
BRANCH  21  23
ATOM     23  C   UNL     1       0.091  10.195  20.580  0.00  0.00    +0.000 C 
ATOM     24  C   UNL     1      -0.280   9.660  21.966  0.00  0.00    +0.000 C 
ATOM     25  C   UNL     1      -0.898  10.692  22.916  0.00  0.00    +0.000 C 
ATOM     26  N   UNL     1      -0.434  12.072  22.799  0.00  0.00    +0.000 NA
ATOM     27  C   UNL     1       0.178  12.530  21.557  0.00  0.00    +0.000 C 
ATOM     28  C   UNL     1       0.924  11.460  20.764  0.00  0.00    +0.000 C 
BRANCH  26  29
ATOM     29  C   UNL     1      -1.355  13.069  23.389  0.00  0.00    +0.000 C 
BRANCH  29  30
ATOM     30  C   UNL     1      -2.538  13.559  22.554  0.00  0.00    +0.000 A 
ATOM     31  C   UNL     1      -3.672  12.784  22.276  0.00  0.00    +0.000 A 
ATOM     32  C   UNL     1      -4.757  13.279  21.554  0.00  0.00    +0.000 A 
ATOM     33  C   UNL     1      -4.720  14.567  21.060  0.00  0.00    +0.000 A 
ATOM     34  C   UNL     1      -3.609  15.368  21.312  0.00  0.00    +0.000 A 
ATOM     35  C   UNL     1      -2.531  14.873  22.059  0.00  0.00    +0.000 A 
ENDBRANCH  29  30
ENDBRANCH  26  29
ENDBRANCH  21  23
ENDBRANCH   3  19
TORSDOF 6
ENDMDL
MODEL 3
REMARK VINA RESULT:      -8.3      3.049      4.797
REMARK  Name = 
REMARK  7 active torsions:
REMARK  status: ('A' for Active; 'I' for Inactive)
REMARK    1  A    between atoms: C_1  and  C_2
REMARK    2  A    between atoms: C_6  and  C_7
REMARK    3  A    between atoms: C_9  and  C_10
REMARK    4  A    between atoms: N_12  and  C_13
REMARK    5  A    between atoms: N_16  and  C_17
REMARK    6  A    between atoms: C_17  and  C_18
REMARK    7  A    between atoms: C_27  and  N_28
REMARK                            x       y       z     vdW  Elec       q    Type
REMARK                         _______ _______ _______ _____ _____    ______ ____
ROOT
ATOM      1  C   UNL     1       0.407  10.400  18.638  0.00  0.00    +0.000 A 
ATOM      2  C   UNL     1      -0.889  10.252  18.100  0.00  0.00    +0.000 A 
ATOM      3  C   UNL     1      -1.734  11.355  17.888  0.00  0.00    +0.000 A 
ATOM      4  C   UNL     1      -1.253  12.645  18.162  0.00  0.00    +0.000 A 
ATOM      5  C   UNL     1       0.051  12.828  18.641  0.00  0.00    +0.000 A 
ATOM      6  C   UNL     1       0.861  11.708  18.889  0.00  0.00    +0.000 A 
ENDROOT
BRANCH   1  12
ATOM      7  C   UNL     1       3.739   6.923  17.238  0.00  0.00    +0.000 C 
ATOM      8  C   UNL     1       2.856   7.492  18.309  0.00  0.00    +0.000 A 
ATOM      9  C   UNL     1       2.706   6.858  19.541  0.00  0.00    +0.000 A 
ATOM     10  C   UNL     1       1.857   7.401  20.503  0.00  0.00    +0.000 A 
ATOM     11  C   UNL     1       1.137   8.571  20.233  0.00  0.00    +0.000 A 
ATOM     12  C   UNL     1       1.242   9.223  18.993  0.00  0.00    +0.000 A 
ATOM     13  C   UNL     1       2.132   8.667  18.056  0.00  0.00    +0.000 A 
ENDBRANCH   1  12
BRANCH   5  14
ATOM     14  N   UNL     1       0.573  14.124  18.885  0.00  0.00    +0.000 N 
ATOM     15  C   UNL     1      -0.026  15.222  19.447  0.00  0.00    +0.000 A 
ATOM     16  N   UNL     1       0.822  16.228  19.452  0.00  0.00    +0.000 NA
ATOM     17  N   UNL     1       1.972  15.746  18.888  0.00  0.00    +0.000 NA
ATOM     18  N   UNL     1       1.837  14.472  18.546  0.00  0.00    +0.000 NA
ENDBRANCH   5  14
BRANCH   3  19
ATOM     19  C   UNL     1      -3.132  11.217  17.355  0.00  0.00    +0.000 C 
ATOM     20  O   UNL     1      -3.328  10.539  16.352  0.00  0.00    +0.000 OA
ATOM     21  N   UNL     1      -4.143  11.883  18.023  0.00  0.00    +0.000 N 
ATOM     22  H   UNL     1      -3.909  12.485  18.795  0.00  0.00    +0.000 HD
BRANCH  21  23
ATOM     23  C   UNL     1      -5.553  11.817  17.626  0.00  0.00    +0.000 C 
ATOM     24  C   UNL     1      -6.268  13.170  17.559  0.00  0.00    +0.000 C 
ATOM     25  C   UNL     1      -6.625  13.783  18.918  0.00  0.00    +0.000 C 
ATOM     26  N   UNL     1      -6.969  12.862  19.998  0.00  0.00    +0.000 NA
ATOM     27  C   UNL     1      -6.517  11.476  19.943  0.00  0.00    +0.000 C 
ATOM     28  C   UNL     1      -6.358  10.897  18.539  0.00  0.00    +0.000 C 
BRANCH  26  29
ATOM     29  C   UNL     1      -6.856  13.452  21.351  0.00  0.00    +0.000 C 
BRANCH  29  30
ATOM     30  C   UNL     1      -5.659  13.065  22.222  0.00  0.00    +0.000 A 
ATOM     31  C   UNL     1      -4.347  12.958  21.741  0.00  0.00    +0.000 A 
ATOM     32  C   UNL     1      -3.270  12.654  22.572  0.00  0.00    +0.000 A 
ATOM     33  C   UNL     1      -3.487  12.417  23.915  0.00  0.00    +0.000 A 
ATOM     34  C   UNL     1      -4.777  12.511  24.430  0.00  0.00    +0.000 A 
ATOM     35  C   UNL     1      -5.854  12.840  23.594  0.00  0.00    +0.000 A 
ENDBRANCH  29  30
ENDBRANCH  26  29
ENDBRANCH  21  23
ENDBRANCH   3  19
TORSDOF 6
ENDMDL
MODEL 4
REMARK VINA RESULT:      -8.3      3.856      6.130
REMARK  Name = 
REMARK  7 active torsions:
REMARK  status: ('A' for Active; 'I' for Inactive)
REMARK    1  A    between atoms: C_1  and  C_2
REMARK    2  A    between atoms: C_6  and  C_7
REMARK    3  A    between atoms: C_9  and  C_10
REMARK    4  A    between atoms: N_12  and  C_13
REMARK    5  A    between atoms: N_16  and  C_17
REMARK    6  A    between atoms: C_17  and  C_18
REMARK    7  A    between atoms: C_27  and  N_28
REMARK                            x       y       z     vdW  Elec       q    Type
REMARK                         _______ _______ _______ _____ _____    ______ ____
ROOT
ATOM      1  C   UNL     1      -2.273  10.306  17.631  0.00  0.00    +0.000 A 
ATOM      2  C   UNL     1      -3.378  10.995  18.175  0.00  0.00    +0.000 A 
ATOM      3  C   UNL     1      -4.442  11.440  17.371  0.00  0.00    +0.000 A 
ATOM      4  C   UNL     1      -4.435  11.136  16.000  0.00  0.00    +0.000 A 
ATOM      5  C   UNL     1      -3.380  10.400  15.444  0.00  0.00    +0.000 A 
ATOM      6  C   UNL     1      -2.305  10.007  16.258  0.00  0.00    +0.000 A 
ENDROOT
BRANCH   1  12
ATOM      7  C   UNL     1      -0.265   9.599  22.172  0.00  0.00    +0.000 C 
ATOM      8  C   UNL     1      -0.081   9.642  20.684  0.00  0.00    +0.000 A 
ATOM      9  C   UNL     1       1.180   9.517  20.103  0.00  0.00    +0.000 A 
ATOM     10  C   UNL     1       1.317   9.589  18.718  0.00  0.00    +0.000 A 
ATOM     11  C   UNL     1       0.197   9.807  17.906  0.00  0.00    +0.000 A 
ATOM     12  C   UNL     1      -1.086   9.963  18.458  0.00  0.00    +0.000 A 
ATOM     13  C   UNL     1      -1.194   9.853  19.857  0.00  0.00    +0.000 A 
ENDBRANCH   1  12
BRANCH   5  14
ATOM     14  N   UNL     1      -3.371  10.044  14.071  0.00  0.00    +0.000 N 
ATOM     15  C   UNL     1      -4.393  10.041  13.157  0.00  0.00    +0.000 A 
ATOM     16  N   UNL     1      -3.944   9.608  11.999  0.00  0.00    +0.000 NA
ATOM     17  N   UNL     1      -2.615   9.343  12.194  0.00  0.00    +0.000 NA
ATOM     18  N   UNL     1      -2.254   9.608  13.441  0.00  0.00    +0.000 NA
ENDBRANCH   5  14
BRANCH   3  19
ATOM     19  C   UNL     1      -5.608  12.212  17.920  0.00  0.00    +0.000 C 
ATOM     20  O   UNL     1      -6.733  11.990  17.483  0.00  0.00    +0.000 OA
ATOM     21  N   UNL     1      -5.351  13.158  18.895  0.00  0.00    +0.000 N 
ATOM     22  H   UNL     1      -4.398  13.347  19.157  0.00  0.00    +0.000 HD
BRANCH  21  23
ATOM     23  C   UNL     1      -6.397  13.964  19.532  0.00  0.00    +0.000 C 
ATOM     24  C   UNL     1      -5.909  15.277  20.153  0.00  0.00    +0.000 C 
ATOM     25  C   UNL     1      -5.147  15.127  21.474  0.00  0.00    +0.000 C 
ATOM     26  N   UNL     1      -5.554  14.041  22.362  0.00  0.00    +0.000 NA
ATOM     27  C   UNL     1      -6.270  12.891  21.823  0.00  0.00    +0.000 C 
ATOM     28  C   UNL     1      -7.145  13.179  20.605  0.00  0.00    +0.000 C 
BRANCH  26  29
ATOM     29  C   UNL     1      -4.529  13.666  23.363  0.00  0.00    +0.000 C 
BRANCH  29  30
ATOM     30  C   UNL     1      -3.059  13.671  22.943  0.00  0.00    +0.000 A 
ATOM     31  C   UNL     1      -2.560  12.965  21.839  0.00  0.00    +0.000 A 
ATOM     32  C   UNL     1      -1.222  13.033  21.453  0.00  0.00    +0.000 A 
ATOM     33  C   UNL     1      -0.335  13.793  22.188  0.00  0.00    +0.000 A 
ATOM     34  C   UNL     1      -0.792  14.506  23.294  0.00  0.00    +0.000 A 
ATOM     35  C   UNL     1      -2.143  14.453  23.664  0.00  0.00    +0.000 A 
ENDBRANCH  29  30
ENDBRANCH  26  29
ENDBRANCH  21  23
ENDBRANCH   3  19
TORSDOF 6
ENDMDL
MODEL 5
REMARK VINA RESULT:      -8.3      2.878      4.652
REMARK  Name = 
REMARK  7 active torsions:
REMARK  status: ('A' for Active; 'I' for Inactive)
REMARK    1  A    between atoms: C_1  and  C_2
REMARK    2  A    between atoms: C_6  and  C_7
REMARK    3  A    between atoms: C_9  and  C_10
REMARK    4  A    between atoms: N_12  and  C_13
REMARK    5  A    between atoms: N_16  and  C_17
REMARK    6  A    between atoms: C_17  and  C_18
REMARK    7  A    between atoms: C_27  and  N_28
REMARK                            x       y       z     vdW  Elec       q    Type
REMARK                         _______ _______ _______ _____ _____    ______ ____
ROOT
ATOM      1  C   UNL     1       0.663   9.910  18.708  0.00  0.00    +0.000 A 
ATOM      2  C   UNL     1      -0.564   9.986  18.014  0.00  0.00    +0.000 A 
ATOM      3  C   UNL     1      -1.456  11.055  18.202  0.00  0.00    +0.000 A 
ATOM      4  C   UNL     1      -1.090  12.108  19.055  0.00  0.00    +0.000 A 
ATOM      5  C   UNL     1       0.148  12.089  19.711  0.00  0.00    +0.000 A 
ATOM      6  C   UNL     1       1.003  10.987  19.545  0.00  0.00    +0.000 A 
ENDROOT
BRANCH   1  12
ATOM      7  C   UNL     1       2.211   5.566  20.680  0.00  0.00    +0.000 C 
ATOM      8  C   UNL     1       2.325   6.590  19.590  0.00  0.00    +0.000 A 
ATOM      9  C   UNL     1       3.313   6.502  18.611  0.00  0.00    +0.000 A 
ATOM     10  C   UNL     1       3.407   7.486  17.628  0.00  0.00    +0.000 A 
ATOM     11  C   UNL     1       2.527   8.575  17.630  0.00  0.00    +0.000 A 
ATOM     12  C   UNL     1       1.536   8.710  18.617  0.00  0.00    +0.000 A 
ATOM     13  C   UNL     1       1.447   7.684  19.574  0.00  0.00    +0.000 A 
ENDBRANCH   1  12
BRANCH   5  14
ATOM     14  N   UNL     1       0.559  13.161  20.544  0.00  0.00    +0.000 N 
ATOM     15  C   UNL     1       1.290  14.280  20.240  0.00  0.00    +0.000 A 
ATOM     16  N   UNL     1       1.464  14.998  21.329  0.00  0.00    +0.000 NA
ATOM     17  N   UNL     1       0.825  14.316  22.328  0.00  0.00    +0.000 NA
ATOM     18  N   UNL     1       0.268  13.205  21.866  0.00  0.00    +0.000 NA
ENDBRANCH   5  14
BRANCH   3  19
ATOM     19  C   UNL     1      -2.786  11.136  17.506  0.00  0.00    +0.000 C 
ATOM     20  O   UNL     1      -2.819  11.195  16.281  0.00  0.00    +0.000 OA
ATOM     21  N   UNL     1      -3.922  11.156  18.292  0.00  0.00    +0.000 N 
ATOM     22  H   UNL     1      -3.827  11.183  19.294  0.00  0.00    +0.000 HD
BRANCH  21  23
ATOM     23  C   UNL     1      -5.282  11.210  17.744  0.00  0.00    +0.000 C 
ATOM     24  C   UNL     1      -5.806  12.621  17.459  0.00  0.00    +0.000 C 
ATOM     25  C   UNL     1      -6.217  13.424  18.698  0.00  0.00    +0.000 C 
ATOM     26  N   UNL     1      -6.784  12.679  19.820  0.00  0.00    +0.000 NA
ATOM     27  C   UNL     1      -6.511  11.253  19.958  0.00  0.00    +0.000 C 
ATOM     28  C   UNL     1      -6.287  10.502  18.648  0.00  0.00    +0.000 C 
BRANCH  26  29
ATOM     29  C   UNL     1      -6.734  13.403  21.111  0.00  0.00    +0.000 C 
BRANCH  29  30
ATOM     30  C   UNL     1      -5.634  13.042  22.111  0.00  0.00    +0.000 A 
ATOM     31  C   UNL     1      -4.281  12.910  21.770  0.00  0.00    +0.000 A 
ATOM     32  C   UNL     1      -3.297  12.630  22.716  0.00  0.00    +0.000 A 
ATOM     33  C   UNL     1      -3.650  12.445  24.037  0.00  0.00    +0.000 A 
ATOM     34  C   UNL     1      -4.985  12.566  24.416  0.00  0.00    +0.000 A 
ATOM     35  C   UNL     1      -5.969  12.870  23.464  0.00  0.00    +0.000 A 
ENDBRANCH  29  30
ENDBRANCH  26  29
ENDBRANCH  21  23
ENDBRANCH   3  19
TORSDOF 6
ENDMDL
MODEL 6
REMARK VINA RESULT:      -8.1      5.840      9.462
REMARK  Name = 
REMARK  7 active torsions:
REMARK  status: ('A' for Active; 'I' for Inactive)
REMARK    1  A    between atoms: C_1  and  C_2
REMARK    2  A    between atoms: C_6  and  C_7
REMARK    3  A    between atoms: C_9  and  C_10
REMARK    4  A    between atoms: N_12  and  C_13
REMARK    5  A    between atoms: N_16  and  C_17
REMARK    6  A    between atoms: C_17  and  C_18
REMARK    7  A    between atoms: C_27  and  N_28
REMARK                            x       y       z     vdW  Elec       q    Type
REMARK                         _______ _______ _______ _____ _____    ______ ____
ROOT
ATOM      1  C   UNL     1      -0.529   9.557  18.340  0.00  0.00    +0.000 A 
ATOM      2  C   UNL     1       0.590   9.044  17.649  0.00  0.00    +0.000 A 
ATOM      3  C   UNL     1       1.778   8.699  18.316  0.00  0.00    +0.000 A 
ATOM      4  C   UNL     1       1.833   8.810  19.714  0.00  0.00    +0.000 A 
ATOM      5  C   UNL     1       0.717   9.259  20.433  0.00  0.00    +0.000 A 
ATOM      6  C   UNL     1      -0.443   9.642  19.741  0.00  0.00    +0.000 A 
ENDROOT
BRANCH   1  12
ATOM      7  C   UNL     1      -3.118   9.920  14.060  0.00  0.00    +0.000 C 
ATOM      8  C   UNL     1      -2.996  10.263  15.516  0.00  0.00    +0.000 A 
ATOM      9  C   UNL     1      -3.888  11.136  16.134  0.00  0.00    +0.000 A 
ATOM     10  C   UNL     1      -3.729  11.453  17.482  0.00  0.00    +0.000 A 
ATOM     11  C   UNL     1      -2.664  10.916  18.215  0.00  0.00    +0.000 A 
ATOM     12  C   UNL     1      -1.730  10.053  17.618  0.00  0.00    +0.000 A 
ATOM     13  C   UNL     1      -1.938   9.728  16.265  0.00  0.00    +0.000 A 
ENDBRANCH   1  12
BRANCH   5  14
ATOM     14  N   UNL     1       0.734   9.339  21.849  0.00  0.00    +0.000 N 
ATOM     15  C   UNL     1      -0.287   9.603  22.726  0.00  0.00    +0.000 A 
ATOM     16  N   UNL     1       0.183   9.608  23.955  0.00  0.00    +0.000 NA
ATOM     17  N   UNL     1       1.520   9.337  23.841  0.00  0.00    +0.000 NA
ATOM     18  N   UNL     1       1.865   9.166  22.573  0.00  0.00    +0.000 NA
ENDBRANCH   5  14
BRANCH   3  19
ATOM     19  C   UNL     1       2.996   8.191  17.596  0.00  0.00    +0.000 C 
ATOM     20  O   UNL     1       3.182   8.517  16.429  0.00  0.00    +0.000 OA
ATOM     21  N   UNL     1       3.851   7.356  18.292  0.00  0.00    +0.000 N 
ATOM     22  H   UNL     1       3.604   7.064  19.223  0.00  0.00    +0.000 HD
BRANCH  21  23
ATOM     23  C   UNL     1       5.085   6.808  17.719  0.00  0.00    +0.000 C 
ATOM     24  C   UNL     1       4.898   6.027  16.415  0.00  0.00    +0.000 C 
ATOM     25  C   UNL     1       4.290   4.630  16.576  0.00  0.00    +0.000 C 
ATOM     26  N   UNL     1       4.620   3.891  17.793  0.00  0.00    +0.000 NA
ATOM     27  C   UNL     1       5.066   4.611  18.980  0.00  0.00    +0.000 C 
ATOM     28  C   UNL     1       5.820   5.911  18.711  0.00  0.00    +0.000 C 
BRANCH  26  29
ATOM     29  C   UNL     1       3.679   2.792  18.105  0.00  0.00    +0.000 C 
BRANCH  29  30
ATOM     30  C   UNL     1       2.787   2.919  19.340  0.00  0.00    +0.000 A 
ATOM     31  C   UNL     1       1.553   3.584  19.347  0.00  0.00    +0.000 A 
ATOM     32  C   UNL     1       0.740   3.637  20.478  0.00  0.00    +0.000 A 
ATOM     33  C   UNL     1       1.161   3.045  21.653  0.00  0.00    +0.000 A 
ATOM     34  C   UNL     1       2.383   2.378  21.687  0.00  0.00    +0.000 A 
ATOM     35  C   UNL     1       3.186   2.308  20.539  0.00  0.00    +0.000 A 
ENDBRANCH  29  30
ENDBRANCH  26  29
ENDBRANCH  21  23
ENDBRANCH   3  19
TORSDOF 6
ENDMDL
MODEL 7
REMARK VINA RESULT:      -8.1      3.746      5.764
REMARK  Name = 
REMARK  7 active torsions:
REMARK  status: ('A' for Active; 'I' for Inactive)
REMARK    1  A    between atoms: C_1  and  C_2
REMARK    2  A    between atoms: C_6  and  C_7
REMARK    3  A    between atoms: C_9  and  C_10
REMARK    4  A    between atoms: N_12  and  C_13
REMARK    5  A    between atoms: N_16  and  C_17
REMARK    6  A    between atoms: C_17  and  C_18
REMARK    7  A    between atoms: C_27  and  N_28
REMARK                            x       y       z     vdW  Elec       q    Type
REMARK                         _______ _______ _______ _____ _____    ______ ____
ROOT
ATOM      1  C   UNL     1      -2.325  11.098  17.814  0.00  0.00    +0.000 A 
ATOM      2  C   UNL     1      -3.542  11.606  18.317  0.00  0.00    +0.000 A 
ATOM      3  C   UNL     1      -4.684  11.730  17.508  0.00  0.00    +0.000 A 
ATOM      4  C   UNL     1      -4.632  11.279  16.180  0.00  0.00    +0.000 A 
ATOM      5  C   UNL     1      -3.455  10.714  15.670  0.00  0.00    +0.000 A 
ATOM      6  C   UNL     1      -2.312  10.644  16.483  0.00  0.00    +0.000 A 
ENDROOT
BRANCH   1  12
ATOM      7  C   UNL     1       0.516   8.902  21.315  0.00  0.00    +0.000 C 
ATOM      8  C   UNL     1       0.307  10.048  20.369  0.00  0.00    +0.000 A 
ATOM      9  C   UNL     1       1.162  11.149  20.361  0.00  0.00    +0.000 A 
ATOM     10  C   UNL     1       0.922  12.208  19.487  0.00  0.00    +0.000 A 
ATOM     11  C   UNL     1      -0.185  12.182  18.631  0.00  0.00    +0.000 A 
ATOM     12  C   UNL     1      -1.083  11.101  18.630  0.00  0.00    +0.000 A 
ATOM     13  C   UNL     1      -0.794  10.035  19.501  0.00  0.00    +0.000 A 
ENDBRANCH   1  12
BRANCH   5  14
ATOM     14  N   UNL     1      -3.390  10.212  14.345  0.00  0.00    +0.000 N 
ATOM     15  C   UNL     1      -2.377   9.543  13.708  0.00  0.00    +0.000 A 
ATOM     16  N   UNL     1      -2.734   9.289  12.467  0.00  0.00    +0.000 NA
ATOM     17  N   UNL     1      -3.994   9.805  12.331  0.00  0.00    +0.000 NA
ATOM     18  N   UNL     1      -4.406  10.361  13.462  0.00  0.00    +0.000 NA
ENDBRANCH   5  14
BRANCH   3  19
ATOM     19  C   UNL     1      -5.978  12.307  18.011  0.00  0.00    +0.000 C 
ATOM     20  O   UNL     1      -7.035  11.768  17.700  0.00  0.00    +0.000 OA
ATOM     21  N   UNL     1      -5.913  13.441  18.798  0.00  0.00    +0.000 N 
ATOM     22  H   UNL     1      -5.021  13.880  18.955  0.00  0.00    +0.000 HD
BRANCH  21  23
ATOM     23  C   UNL     1      -7.094  14.093  19.373  0.00  0.00    +0.000 C 
ATOM     24  C   UNL     1      -6.905  15.571  19.727  0.00  0.00    +0.000 C 
ATOM     25  C   UNL     1      -6.080  15.836  20.991  0.00  0.00    +0.000 C 
ATOM     26  N   UNL     1      -6.186  14.864  22.076  0.00  0.00    +0.000 NA
ATOM     27  C   UNL     1      -6.631  13.505  21.793  0.00  0.00    +0.000 C 
ATOM     28  C   UNL     1      -7.595  13.365  20.617  0.00  0.00    +0.000 C 
BRANCH  26  29
ATOM     29  C   UNL     1      -5.065  14.915  23.042  0.00  0.00    +0.000 C 
BRANCH  29  30
ATOM     30  C   UNL     1      -3.909  13.927  22.874  0.00  0.00    +0.000 A 
ATOM     31  C   UNL     1      -3.708  12.813  23.700  0.00  0.00    +0.000 A 
ATOM     32  C   UNL     1      -2.674  11.903  23.488  0.00  0.00    +0.000 A 
ATOM     33  C   UNL     1      -1.786  12.105  22.450  0.00  0.00    +0.000 A 
ATOM     34  C   UNL     1      -1.950  13.203  21.610  0.00  0.00    +0.000 A 
ATOM     35  C   UNL     1      -3.006  14.103  21.813  0.00  0.00    +0.000 A 
ENDBRANCH  29  30
ENDBRANCH  26  29
ENDBRANCH  21  23
ENDBRANCH   3  19
TORSDOF 6
ENDMDL
MODEL 8
REMARK VINA RESULT:      -8.0      3.788      6.174
REMARK  Name = 
REMARK  7 active torsions:
REMARK  status: ('A' for Active; 'I' for Inactive)
REMARK    1  A    between atoms: C_1  and  C_2
REMARK    2  A    between atoms: C_6  and  C_7
REMARK    3  A    between atoms: C_9  and  C_10
REMARK    4  A    between atoms: N_12  and  C_13
REMARK    5  A    between atoms: N_16  and  C_17
REMARK    6  A    between atoms: C_17  and  C_18
REMARK    7  A    between atoms: C_27  and  N_28
REMARK                            x       y       z     vdW  Elec       q    Type
REMARK                         _______ _______ _______ _____ _____    ______ ____
ROOT
ATOM      1  C   UNL     1      -2.275  10.341  17.631  0.00  0.00    +0.000 A 
ATOM      2  C   UNL     1      -3.410  10.958  18.199  0.00  0.00    +0.000 A 
ATOM      3  C   UNL     1      -4.511  11.348  17.418  0.00  0.00    +0.000 A 
ATOM      4  C   UNL     1      -4.509  11.060  16.043  0.00  0.00    +0.000 A 
ATOM      5  C   UNL     1      -3.422  10.394  15.462  0.00  0.00    +0.000 A 
ATOM      6  C   UNL     1      -2.313  10.056  16.254  0.00  0.00    +0.000 A 
ENDROOT
BRANCH   1  12
ATOM      7  C   UNL     1       2.449   8.669  17.823  0.00  0.00    +0.000 C 
ATOM      8  C   UNL     1       1.254   9.215  18.547  0.00  0.00    +0.000 A 
ATOM      9  C   UNL     1       1.228   9.313  19.937  0.00  0.00    +0.000 A 
ATOM     10  C   UNL     1       0.090   9.799  20.578  0.00  0.00    +0.000 A 
ATOM     11  C   UNL     1      -1.037  10.171  19.835  0.00  0.00    +0.000 A 
ATOM     12  C   UNL     1      -1.057  10.060  18.434  0.00  0.00    +0.000 A 
ATOM     13  C   UNL     1       0.118   9.596  17.816  0.00  0.00    +0.000 A 
ENDBRANCH   1  12
BRANCH   5  14
ATOM     14  N   UNL     1      -3.415  10.054  14.085  0.00  0.00    +0.000 N 
ATOM     15  C   UNL     1      -4.442  10.050  13.176  0.00  0.00    +0.000 A 
ATOM     16  N   UNL     1      -3.992   9.636  12.011  0.00  0.00    +0.000 NA
ATOM     17  N   UNL     1      -2.660   9.383  12.197  0.00  0.00    +0.000 NA
ATOM     18  N   UNL     1      -2.296   9.638  13.446  0.00  0.00    +0.000 NA
ENDBRANCH   5  14
BRANCH   3  19
ATOM     19  C   UNL     1      -5.712  12.044  17.994  0.00  0.00    +0.000 C 
ATOM     20  O   UNL     1      -6.831  11.592  17.773  0.00  0.00    +0.000 OA
ATOM     21  N   UNL     1      -5.495  13.184  18.746  0.00  0.00    +0.000 N 
ATOM     22  H   UNL     1      -4.559  13.548  18.828  0.00  0.00    +0.000 HD
BRANCH  21  23
ATOM     23  C   UNL     1      -6.572  13.947  19.385  0.00  0.00    +0.000 C 
ATOM     24  C   UNL     1      -6.198  15.378  19.784  0.00  0.00    +0.000 C 
ATOM     25  C   UNL     1      -5.309  15.494  21.027  0.00  0.00    +0.000 C 
ATOM     26  N   UNL     1      -5.496  14.498  22.080  0.00  0.00    +0.000 NA
ATOM     27  C   UNL     1      -6.108  13.213  21.764  0.00  0.00    +0.000 C 
ATOM     28  C   UNL     1      -7.117  13.234  20.619  0.00  0.00    +0.000 C 
BRANCH  26  29
ATOM     29  C   UNL     1      -4.348  14.378  23.007  0.00  0.00    +0.000 C 
BRANCH  29  30
ATOM     30  C   UNL     1      -2.974  14.035  22.430  0.00  0.00    +0.000 A 
ATOM     31  C   UNL     1      -1.881  13.625  23.206  0.00  0.00    +0.000 A 
ATOM     32  C   UNL     1      -0.657  13.270  22.643  0.00  0.00    +0.000 A 
ATOM     33  C   UNL     1      -0.484  13.347  21.276  0.00  0.00    +0.000 A 
ATOM     34  C   UNL     1      -1.545  13.753  20.470  0.00  0.00    +0.000 A 
ATOM     35  C   UNL     1      -2.782  14.087  21.040  0.00  0.00    +0.000 A 
ENDBRANCH  29  30
ENDBRANCH  26  29
ENDBRANCH  21  23
ENDBRANCH   3  19
TORSDOF 6
ENDMDL
MODEL 9
REMARK VINA RESULT:      -8.0      3.061      7.578
REMARK  Name = 
REMARK  7 active torsions:
REMARK  status: ('A' for Active; 'I' for Inactive)
REMARK    1  A    between atoms: C_1  and  C_2
REMARK    2  A    between atoms: C_6  and  C_7
REMARK    3  A    between atoms: C_9  and  C_10
REMARK    4  A    between atoms: N_12  and  C_13
REMARK    5  A    between atoms: N_16  and  C_17
REMARK    6  A    between atoms: C_17  and  C_18
REMARK    7  A    between atoms: C_27  and  N_28
REMARK                            x       y       z     vdW  Elec       q    Type
REMARK                         _______ _______ _______ _____ _____    ______ ____
ROOT
ATOM      1  C   UNL     1      -4.353  11.350  17.176  0.00  0.00    +0.000 A 
ATOM      2  C   UNL     1      -3.177  11.065  17.902  0.00  0.00    +0.000 A 
ATOM      3  C   UNL     1      -2.106  10.358  17.329  0.00  0.00    +0.000 A 
ATOM      4  C   UNL     1      -2.183   9.978  15.980  0.00  0.00    +0.000 A 
ATOM      5  C   UNL     1      -3.313  10.299  15.218  0.00  0.00    +0.000 A 
ATOM      6  C   UNL     1      -4.390  10.966  15.824  0.00  0.00    +0.000 A 
ENDROOT
BRANCH   1  12
ATOM      7  C   UNL     1      -7.894  11.163  20.723  0.00  0.00    +0.000 C 
ATOM      8  C   UNL     1      -7.298  11.876  19.545  0.00  0.00    +0.000 A 
ATOM      9  C   UNL     1      -7.915  12.993  18.983  0.00  0.00    +0.000 A 
ATOM     10  C   UNL     1      -7.348  13.614  17.872  0.00  0.00    +0.000 A 
ATOM     11  C   UNL     1      -6.172  13.110  17.302  0.00  0.00    +0.000 A 
ATOM     12  C   UNL     1      -5.537  11.971  17.825  0.00  0.00    +0.000 A 
ATOM     13  C   UNL     1      -6.118  11.387  18.966  0.00  0.00    +0.000 A 
ENDBRANCH   1  12
BRANCH   5  14
ATOM     14  N   UNL     1      -3.396   9.964  13.842  0.00  0.00    +0.000 N 
ATOM     15  C   UNL     1      -2.420   9.528  12.983  0.00  0.00    +0.000 A 
ATOM     16  N   UNL     1      -2.935   9.365  11.783  0.00  0.00    +0.000 NA
ATOM     17  N   UNL     1      -4.257   9.699  11.899  0.00  0.00    +0.000 NA
ATOM     18  N   UNL     1      -4.551  10.058  13.140  0.00  0.00    +0.000 NA
ENDBRANCH   5  14
BRANCH   3  19
ATOM     19  C   UNL     1      -0.861  10.007  18.095  0.00  0.00    +0.000 C 
ATOM     20  O   UNL     1       0.032   9.381  17.533  0.00  0.00    +0.000 OA
ATOM     21  N   UNL     1      -0.788  10.400  19.418  0.00  0.00    +0.000 N 
ATOM     22  H   UNL     1      -1.585  10.844  19.844  0.00  0.00    +0.000 HD
BRANCH  21  23
ATOM     23  C   UNL     1       0.376  10.144  20.273  0.00  0.00    +0.000 C 
ATOM     24  C   UNL     1       0.042   9.625  21.676  0.00  0.00    +0.000 C 
ATOM     25  C   UNL     1      -0.504  10.679  22.645  0.00  0.00    +0.000 C 
ATOM     26  N   UNL     1      -0.001  12.044  22.504  0.00  0.00    +0.000 NA
ATOM     27  C   UNL     1       0.576  12.478  21.237  0.00  0.00    +0.000 C 
ATOM     28  C   UNL     1       1.255  11.382  20.420  0.00  0.00    +0.000 C 
BRANCH  26  29
ATOM     29  C   UNL     1      -0.865  13.072  23.127  0.00  0.00    +0.000 C 
BRANCH  29  30
ATOM     30  C   UNL     1      -2.338  13.135  22.720  0.00  0.00    +0.000 A 
ATOM     31  C   UNL     1      -2.818  12.742  21.463  0.00  0.00    +0.000 A 
ATOM     32  C   UNL     1      -4.174  12.763  21.142  0.00  0.00    +0.000 A 
ATOM     33  C   UNL     1      -5.091  13.212  22.071  0.00  0.00    +0.000 A 
ATOM     34  C   UNL     1      -4.653  13.614  23.330  0.00  0.00    +0.000 A 
ATOM     35  C   UNL     1      -3.290  13.569  23.657  0.00  0.00    +0.000 A 
ENDBRANCH  29  30
ENDBRANCH  26  29
ENDBRANCH  21  23
ENDBRANCH   3  19
TORSDOF 6
ENDMDL
