MODEL 1
REMARK VINA RESULT:      -7.7      0.000      0.000
REMARK  Name = 
REMARK  12 active torsions:
REMARK  status: ('A' for Active; 'I' for Inactive)
REMARK    1  A    between atoms: N_1  and  S_2
REMARK    2  A    between atoms: S_2  and  C_5
REMARK    3  A    between atoms: C_8  and  C_9
REMARK    4  A    between atoms: C_9  and  C_10
REMARK    5  A    between atoms: C_10  and  N_11
REMARK    6  A    between atoms: N_11  and  S_12
REMARK    7  A    between atoms: S_12  and  C_15
REMARK    8  A    between atoms: C_17  and  C_18
REMARK    9  A    between atoms: C_18  and  O_20
REMARK   10  A    between atoms: C_21  and  O_22
REMARK   11  A    between atoms: C_23  and  O_24
REMARK   12  A    between atoms: C_25  and  O_26
REMARK                            x       y       z     vdW  Elec       q    Type
REMARK                         _______ _______ _______ _____ _____    ______ ____
ROOT
ATOM      1  S   UNL     1       3.475   4.483  19.226  0.00  0.00    +0.000 S 
ATOM      2  O   UNL     1       3.462   3.418  20.207  0.00  0.00    +0.000 OA
ATOM      3  O   UNL     1       2.450   4.559  18.206  0.00  0.00    +0.000 OA
ENDROOT
BRANCH   1   4
ATOM      4  C   UNL     1       5.118   4.470  18.387  0.00  0.00    +0.000 C 
ATOM      5  O   UNL     1       5.714   5.802  18.376  0.00  0.00    +0.000 OA
ATOM      6  C   UNL     1       6.993   5.820  17.730  0.00  0.00    +0.000 C 
ATOM      7  C   UNL     1       6.793   5.521  16.246  0.00  0.00    +0.000 C 
ATOM      8  C   UNL     1       6.234   4.102  16.138  0.00  0.00    +0.000 C 
ATOM      9  C   UNL     1       4.946   3.916  16.963  0.00  0.00    +0.000 C 
BRANCH   6  10
ATOM     10  C   UNL     1       7.681   7.166  17.930  0.00  0.00    +0.000 C 
ATOM     11  O   UNL     1       7.545   8.124  17.186  0.00  0.00    +0.000 OA
BRANCH  10  12
ATOM     12  O   UNL     1       8.500   7.178  19.009  0.00  0.00    +0.000 OA
ATOM     13  H   UNL     1       7.989   7.026  19.835  0.00  0.00    +0.000 HD
ENDBRANCH  10  12
ENDBRANCH   6  10
BRANCH   7  14
ATOM     14  O   UNL     1       5.838   6.401  15.624  0.00  0.00    +0.000 OA
ATOM     15  H   UNL     1       5.718   7.198  16.174  0.00  0.00    +0.000 HD
ENDBRANCH   7  14
BRANCH   8  16
ATOM     16  O   UNL     1       5.945   3.775  14.774  0.00  0.00    +0.000 OA
ATOM     17  H   UNL     1       5.244   4.397  14.484  0.00  0.00    +0.000 HD
ENDBRANCH   8  16
BRANCH   9  18
ATOM     18  O   UNL     1       4.610   2.518  17.014  0.00  0.00    +0.000 OA
ATOM     19  H   UNL     1       5.391   2.031  17.349  0.00  0.00    +0.000 HD
ENDBRANCH   9  18
ENDBRANCH   1   4
BRANCH   1  20
ATOM     20  N   UNL     1       3.421   5.942  20.085  0.00  0.00    +0.000 NA
ATOM     21  H   UNL     1       3.358   5.764  21.098  0.00  0.00    +0.000 HD
BRANCH  20  22
ATOM     22  C   UNL     1       2.371   6.861  19.574  0.00  0.00    +0.000 C 
BRANCH  22  23
ATOM     23  C   UNL     1       1.590   7.514  20.715  0.00  0.00    +0.000 C 
BRANCH  23  27
ATOM     24  C   UNL     1      -0.074  11.263  19.381  0.00  0.00    +0.000 A 
ATOM     25  C   UNL     1      -0.463  10.742  20.617  0.00  0.00    +0.000 A 
ATOM     26  C   UNL     1       0.088   9.533  21.055  0.00  0.00    +0.000 A 
ATOM     27  C   UNL     1       1.025   8.844  20.266  0.00  0.00    +0.000 A 
ATOM     28  C   UNL     1       1.379   9.371  19.015  0.00  0.00    +0.000 A 
ATOM     29  C   UNL     1       0.831  10.566  18.573  0.00  0.00    +0.000 A 
BRANCH  24  30
ATOM     30  S   UNL     1      -0.737  12.791  18.802  0.00  0.00    +0.000 S 
ATOM     31  O   UNL     1       0.335  13.658  18.374  0.00  0.00    +0.000 OA
ATOM     32  O   UNL     1      -1.780  13.232  19.706  0.00  0.00    +0.000 OA
BRANCH  30  33
ATOM     33  N   UNL     1      -1.524  12.280  17.410  0.00  0.00    +0.000 NA
ATOM     34  H   UNL     1      -2.275  12.932  17.183  0.00  0.00    +0.000 HD
ATOM     35  H   UNL     1      -1.824  11.310  17.497  0.00  0.00    +0.000 HD
ENDBRANCH  30  33
ENDBRANCH  24  30
ENDBRANCH  23  27
ENDBRANCH  22  23
ENDBRANCH  20  22
ENDBRANCH   1  20
TORSDOF 12
ENDMDL
MODEL 2
REMARK VINA RESULT:      -7.6      1.920      2.448
REMARK  Name = 
REMARK  12 active torsions:
REMARK  status: ('A' for Active; 'I' for Inactive)
REMARK    1  A    between atoms: N_1  and  S_2
REMARK    2  A    between atoms: S_2  and  C_5
REMARK    3  A    between atoms: C_8  and  C_9
REMARK    4  A    between atoms: C_9  and  C_10
REMARK    5  A    between atoms: C_10  and  N_11
REMARK    6  A    between atoms: N_11  and  S_12
REMARK    7  A    between atoms: S_12  and  C_15
REMARK    8  A    between atoms: C_17  and  C_18
REMARK    9  A    between atoms: C_18  and  O_20
REMARK   10  A    between atoms: C_21  and  O_22
REMARK   11  A    between atoms: C_23  and  O_24
REMARK   12  A    between atoms: C_25  and  O_26
REMARK                            x       y       z     vdW  Elec       q    Type
REMARK                         _______ _______ _______ _____ _____    ______ ____
ROOT
ATOM      1  S   UNL     1       3.663   3.261  18.346  0.00  0.00    +0.000 S 
ATOM      2  O   UNL     1       3.540   3.564  19.757  0.00  0.00    +0.000 OA
ATOM      3  O   UNL     1       3.425   1.919  17.857  0.00  0.00    +0.000 OA
ENDROOT
BRANCH   1   4
ATOM      4  C   UNL     1       5.343   3.783  17.792  0.00  0.00    +0.000 C 
ATOM      5  O   UNL     1       5.978   4.651  18.780  0.00  0.00    +0.000 OA
ATOM      6  C   UNL     1       7.285   5.071  18.375  0.00  0.00    +0.000 C 
ATOM      7  C   UNL     1       7.149   5.981  17.156  0.00  0.00    +0.000 C 
ATOM      8  C   UNL     1       6.555   5.142  16.024  0.00  0.00    +0.000 C 
ATOM      9  C   UNL     1       5.224   4.476  16.425  0.00  0.00    +0.000 C 
BRANCH   6  10
ATOM     10  C   UNL     1       8.001   5.787  19.515  0.00  0.00    +0.000 C 
ATOM     11  O   UNL     1       8.071   5.361  20.657  0.00  0.00    +0.000 OA
BRANCH  10  12
ATOM     12  O   UNL     1       8.525   6.978  19.136  0.00  0.00    +0.000 OA
ATOM     13  H   UNL     1       9.356   6.846  18.626  0.00  0.00    +0.000 HD
ENDBRANCH  10  12
ENDBRANCH   6  10
BRANCH   7  14
ATOM     14  O   UNL     1       6.250   7.083  17.382  0.00  0.00    +0.000 OA
ATOM     15  H   UNL     1       5.328   6.762  17.382  0.00  0.00    +0.000 HD
ENDBRANCH   7  14
BRANCH   8  16
ATOM     16  O   UNL     1       6.323   5.949  14.865  0.00  0.00    +0.000 OA
ATOM     17  H   UNL     1       5.398   5.775  14.588  0.00  0.00    +0.000 HD
ENDBRANCH   8  16
BRANCH   9  18
ATOM     18  O   UNL     1       4.846   3.521  15.418  0.00  0.00    +0.000 OA
ATOM     19  H   UNL     1       4.368   4.001  14.711  0.00  0.00    +0.000 HD
ENDBRANCH   9  18
ENDBRANCH   1   4
BRANCH   1  20
ATOM     20  N   UNL     1       2.584   4.279  17.530  0.00  0.00    +0.000 NA
ATOM     21  H   UNL     1       3.009   4.637  16.663  0.00  0.00    +0.000 HD
BRANCH  20  22
ATOM     22  C   UNL     1       2.037   5.345  18.409  0.00  0.00    +0.000 C 
BRANCH  22  23
ATOM     23  C   UNL     1       2.746   6.681  18.185  0.00  0.00    +0.000 C 
BRANCH  23  27
ATOM     24  C   UNL     1       0.825   9.743  20.536  0.00  0.00    +0.000 A 
ATOM     25  C   UNL     1       1.213   8.551  21.150  0.00  0.00    +0.000 A 
ATOM     26  C   UNL     1       1.848   7.563  20.390  0.00  0.00    +0.000 A 
ATOM     27  C   UNL     1       2.099   7.763  19.021  0.00  0.00    +0.000 A 
ATOM     28  C   UNL     1       1.675   8.956  18.419  0.00  0.00    +0.000 A 
ATOM     29  C   UNL     1       1.038   9.936  19.167  0.00  0.00    +0.000 A 
BRANCH  24  30
ATOM     30  S   UNL     1       0.033  11.016  21.465  0.00  0.00    +0.000 S 
ATOM     31  O   UNL     1       0.049  10.678  22.869  0.00  0.00    +0.000 OA
ATOM     32  O   UNL     1      -1.174  11.427  20.778  0.00  0.00    +0.000 OA
BRANCH  30  33
ATOM     33  N   UNL     1       1.126  12.274  21.262  0.00  0.00    +0.000 NA
ATOM     34  H   UNL     1       0.630  13.113  20.964  0.00  0.00    +0.000 HD
ATOM     35  H   UNL     1       1.889  11.997  20.646  0.00  0.00    +0.000 HD
ENDBRANCH  30  33
ENDBRANCH  24  30
ENDBRANCH  23  27
ENDBRANCH  22  23
ENDBRANCH  20  22
ENDBRANCH   1  20
TORSDOF 12
ENDMDL
MODEL 3
REMARK VINA RESULT:      -7.6      1.906      2.482
REMARK  Name = 
REMARK  12 active torsions:
REMARK  status: ('A' for Active; 'I' for Inactive)
REMARK    1  A    between atoms: N_1  and  S_2
REMARK    2  A    between atoms: S_2  and  C_5
REMARK    3  A    between atoms: C_8  and  C_9
REMARK    4  A    between atoms: C_9  and  C_10
REMARK    5  A    between atoms: C_10  and  N_11
REMARK    6  A    between atoms: N_11  and  S_12
REMARK    7  A    between atoms: S_12  and  C_15
REMARK    8  A    between atoms: C_17  and  C_18
REMARK    9  A    between atoms: C_18  and  O_20
REMARK   10  A    between atoms: C_21  and  O_22
REMARK   11  A    between atoms: C_23  and  O_24
REMARK   12  A    between atoms: C_25  and  O_26
REMARK                            x       y       z     vdW  Elec       q    Type
REMARK                         _______ _______ _______ _____ _____    ______ ____
ROOT
ATOM      1  S   UNL     1       3.553   3.329  18.339  0.00  0.00    +0.000 S 
ATOM      2  O   UNL     1       3.522   3.438  19.783  0.00  0.00    +0.000 OA
ATOM      3  O   UNL     1       3.209   2.084  17.686  0.00  0.00    +0.000 OA
ENDROOT
BRANCH   1   4
ATOM      4  C   UNL     1       5.231   3.834  17.763  0.00  0.00    +0.000 C 
ATOM      5  O   UNL     1       5.891   4.688  18.746  0.00  0.00    +0.000 OA
ATOM      6  C   UNL     1       7.198   5.094  18.324  0.00  0.00    +0.000 C 
ATOM      7  C   UNL     1       7.055   6.013  17.113  0.00  0.00    +0.000 C 
ATOM      8  C   UNL     1       6.434   5.189  15.985  0.00  0.00    +0.000 C 
ATOM      9  C   UNL     1       5.101   4.537  16.402  0.00  0.00    +0.000 C 
BRANCH   6  10
ATOM     10  C   UNL     1       7.940   5.794  19.458  0.00  0.00    +0.000 C 
ATOM     11  O   UNL     1       8.026   5.358  20.595  0.00  0.00    +0.000 OA
BRANCH  10  12
ATOM     12  O   UNL     1       8.467   6.984  19.080  0.00  0.00    +0.000 OA
ATOM     13  H   UNL     1       7.821   7.711  19.224  0.00  0.00    +0.000 HD
ENDBRANCH  10  12
ENDBRANCH   6  10
BRANCH   7  14
ATOM     14  O   UNL     1       6.174   7.125  17.359  0.00  0.00    +0.000 OA
ATOM     15  H   UNL     1       6.054   7.639  16.538  0.00  0.00    +0.000 HD
ENDBRANCH   7  14
BRANCH   8  16
ATOM     16  O   UNL     1       6.195   6.005  14.834  0.00  0.00    +0.000 OA
ATOM     17  H   UNL     1       6.907   6.679  14.821  0.00  0.00    +0.000 HD
ENDBRANCH   8  16
BRANCH   9  18
ATOM     18  O   UNL     1       4.696   3.593  15.395  0.00  0.00    +0.000 OA
ATOM     19  H   UNL     1       4.917   2.695  15.716  0.00  0.00    +0.000 HD
ENDBRANCH   9  18
ENDBRANCH   1   4
BRANCH   1  20
ATOM     20  N   UNL     1       2.498   4.509  17.736  0.00  0.00    +0.000 NA
ATOM     21  H   UNL     1       2.828   4.858  16.825  0.00  0.00    +0.000 HD
BRANCH  20  22
ATOM     22  C   UNL     1       2.226   5.584  18.725  0.00  0.00    +0.000 C 
BRANCH  22  23
ATOM     23  C   UNL     1       2.679   6.951  18.210  0.00  0.00    +0.000 C 
BRANCH  23  27
ATOM     24  C   UNL     1       0.762  10.117  20.425  0.00  0.00    +0.000 A 
ATOM     25  C   UNL     1       1.043  10.301  19.069  0.00  0.00    +0.000 A 
ATOM     26  C   UNL     1       1.652   9.269  18.348  0.00  0.00    +0.000 A 
ATOM     27  C   UNL     1       1.980   8.054  18.974  0.00  0.00    +0.000 A 
ATOM     28  C   UNL     1       1.716   7.901  20.343  0.00  0.00    +0.000 A 
ATOM     29  C   UNL     1       1.118   8.924  21.064  0.00  0.00    +0.000 A 
BRANCH  24  30
ATOM     30  S   UNL     1      -0.016  11.391  21.362  0.00  0.00    +0.000 S 
ATOM     31  O   UNL     1      -1.369  11.582  20.898  0.00  0.00    +0.000 OA
ATOM     32  O   UNL     1       0.911  12.492  21.533  0.00  0.00    +0.000 OA
BRANCH  30  33
ATOM     33  N   UNL     1      -0.125  10.648  22.864  0.00  0.00    +0.000 NA
ATOM     34  H   UNL     1       0.792  10.641  23.309  0.00  0.00    +0.000 HD
ATOM     35  H   UNL     1      -0.560   9.730  22.785  0.00  0.00    +0.000 HD
ENDBRANCH  30  33
ENDBRANCH  24  30
ENDBRANCH  23  27
ENDBRANCH  22  23
ENDBRANCH  20  22
ENDBRANCH   1  20
TORSDOF 12
ENDMDL
MODEL 4
REMARK VINA RESULT:      -7.5      1.570      1.991
REMARK  Name = 
REMARK  12 active torsions:
REMARK  status: ('A' for Active; 'I' for Inactive)
REMARK    1  A    between atoms: N_1  and  S_2
REMARK    2  A    between atoms: S_2  and  C_5
REMARK    3  A    between atoms: C_8  and  C_9
REMARK    4  A    between atoms: C_9  and  C_10
REMARK    5  A    between atoms: C_10  and  N_11
REMARK    6  A    between atoms: N_11  and  S_12
REMARK    7  A    between atoms: S_12  and  C_15
REMARK    8  A    between atoms: C_17  and  C_18
REMARK    9  A    between atoms: C_18  and  O_20
REMARK   10  A    between atoms: C_21  and  O_22
REMARK   11  A    between atoms: C_23  and  O_24
REMARK   12  A    between atoms: C_25  and  O_26
REMARK                            x       y       z     vdW  Elec       q    Type
REMARK                         _______ _______ _______ _____ _____    ______ ____
ROOT
ATOM      1  S   UNL     1       4.078   3.848  19.131  0.00  0.00    +0.000 S 
ATOM      2  O   UNL     1       4.477   2.929  20.177  0.00  0.00    +0.000 OA
ATOM      3  O   UNL     1       2.982   3.523  18.242  0.00  0.00    +0.000 OA
ENDROOT
BRANCH   1   4
ATOM      4  C   UNL     1       5.560   4.221  18.099  0.00  0.00    +0.000 C 
ATOM      5  O   UNL     1       6.005   5.598  18.295  0.00  0.00    +0.000 OA
ATOM      6  C   UNL     1       7.157   5.915  17.505  0.00  0.00    +0.000 C 
ATOM      7  C   UNL     1       6.759   5.889  16.031  0.00  0.00    +0.000 C 
ATOM      8  C   UNL     1       6.341   4.457  15.696  0.00  0.00    +0.000 C 
ATOM      9  C   UNL     1       5.226   3.940  16.625  0.00  0.00    +0.000 C 
BRANCH   6  10
ATOM     10  C   UNL     1       7.724   7.275  17.896  0.00  0.00    +0.000 C 
ATOM     11  O   UNL     1       7.528   8.306  17.272  0.00  0.00    +0.000 OA
BRANCH  10  12
ATOM     12  O   UNL     1       8.510   7.216  18.998  0.00  0.00    +0.000 OA
ATOM     13  H   UNL     1       9.200   7.916  18.971  0.00  0.00    +0.000 HD
ENDBRANCH  10  12
ENDBRANCH   6  10
BRANCH   7  14
ATOM     14  O   UNL     1       5.632   6.737  15.744  0.00  0.00    +0.000 OA
ATOM     15  H   UNL     1       5.944   7.619  15.464  0.00  0.00    +0.000 HD
ENDBRANCH   7  14
BRANCH   8  16
ATOM     16  O   UNL     1       5.877   4.369  14.345  0.00  0.00    +0.000 OA
ATOM     17  H   UNL     1       6.068   3.455  14.046  0.00  0.00    +0.000 HD
ENDBRANCH   8  16
BRANCH   9  18
ATOM     18  O   UNL     1       5.050   2.528  16.419  0.00  0.00    +0.000 OA
ATOM     19  H   UNL     1       4.906   2.110  17.293  0.00  0.00    +0.000 HD
ENDBRANCH   9  18
ENDBRANCH   1   4
BRANCH   1  20
ATOM     20  N   UNL     1       3.678   5.309  19.889  0.00  0.00    +0.000 NA
ATOM     21  H   UNL     1       3.727   5.211  20.914  0.00  0.00    +0.000 HD
BRANCH  20  22
ATOM     22  C   UNL     1       2.388   5.864  19.404  0.00  0.00    +0.000 C 
BRANCH  22  23
ATOM     23  C   UNL     1       2.573   7.233  18.749  0.00  0.00    +0.000 C 
BRANCH  23  27
ATOM     24  C   UNL     1       0.373  10.247  20.910  0.00  0.00    +0.000 A 
ATOM     25  C   UNL     1       0.641  10.436  19.553  0.00  0.00    +0.000 A 
ATOM     26  C   UNL     1       1.342   9.452  18.849  0.00  0.00    +0.000 A 
ATOM     27  C   UNL     1       1.776   8.281  19.495  0.00  0.00    +0.000 A 
ATOM     28  C   UNL     1       1.521   8.125  20.865  0.00  0.00    +0.000 A 
ATOM     29  C   UNL     1       0.832   9.101  21.569  0.00  0.00    +0.000 A 
BRANCH  24  30
ATOM     30  S   UNL     1      -0.520  11.461  21.827  0.00  0.00    +0.000 S 
ATOM     31  O   UNL     1      -0.554  11.093  23.222  0.00  0.00    +0.000 OA
ATOM     32  O   UNL     1      -1.712  11.832  21.091  0.00  0.00    +0.000 OA
BRANCH  30  33
ATOM     33  N   UNL     1       0.521  12.772  21.701  0.00  0.00    +0.000 NA
ATOM     34  H   UNL     1       0.958  12.775  20.780  0.00  0.00    +0.000 HD
ATOM     35  H   UNL     1       1.181  12.788  22.478  0.00  0.00    +0.000 HD
ENDBRANCH  30  33
ENDBRANCH  24  30
ENDBRANCH  23  27
ENDBRANCH  22  23
ENDBRANCH  20  22
ENDBRANCH   1  20
TORSDOF 12
ENDMDL
MODEL 5
REMARK VINA RESULT:      -7.5      1.822      3.101
REMARK  Name = 
REMARK  12 active torsions:
REMARK  status: ('A' for Active; 'I' for Inactive)
REMARK    1  A    between atoms: N_1  and  S_2
REMARK    2  A    between atoms: S_2  and  C_5
REMARK    3  A    between atoms: C_8  and  C_9
REMARK    4  A    between atoms: C_9  and  C_10
REMARK    5  A    between atoms: C_10  and  N_11
REMARK    6  A    between atoms: N_11  and  S_12
REMARK    7  A    between atoms: S_12  and  C_15
REMARK    8  A    between atoms: C_17  and  C_18
REMARK    9  A    between atoms: C_18  and  O_20
REMARK   10  A    between atoms: C_21  and  O_22
REMARK   11  A    between atoms: C_23  and  O_24
REMARK   12  A    between atoms: C_25  and  O_26
REMARK                            x       y       z     vdW  Elec       q    Type
REMARK                         _______ _______ _______ _____ _____    ______ ____
ROOT
ATOM      1  S   UNL     1       3.361   3.329  17.902  0.00  0.00    +0.000 S 
ATOM      2  O   UNL     1       4.044   2.052  17.912  0.00  0.00    +0.000 OA
ATOM      3  O   UNL     1       2.146   3.509  17.136  0.00  0.00    +0.000 OA
ENDROOT
BRANCH   1   4
ATOM      4  C   UNL     1       4.567   4.621  17.374  0.00  0.00    +0.000 C 
ATOM      5  O   UNL     1       5.266   4.223  16.156  0.00  0.00    +0.000 OA
ATOM      6  C   UNL     1       6.210   5.209  15.723  0.00  0.00    +0.000 C 
ATOM      7  C   UNL     1       7.335   5.291  16.752  0.00  0.00    +0.000 C 
ATOM      8  C   UNL     1       6.719   5.777  18.064  0.00  0.00    +0.000 C 
ATOM      9  C   UNL     1       5.550   4.886  18.527  0.00  0.00    +0.000 C 
BRANCH   6  10
ATOM     10  C   UNL     1       6.755   4.867  14.341  0.00  0.00    +0.000 C 
ATOM     11  O   UNL     1       6.224   4.086  13.567  0.00  0.00    +0.000 OA
BRANCH  10  12
ATOM     12  O   UNL     1       7.925   5.495  14.072  0.00  0.00    +0.000 OA
ATOM     13  H   UNL     1       7.765   6.427  13.800  0.00  0.00    +0.000 HD
ENDBRANCH  10  12
ENDBRANCH   6  10
BRANCH   7  14
ATOM     14  O   UNL     1       7.942   4.013  17.016  0.00  0.00    +0.000 OA
ATOM     15  H   UNL     1       7.274   3.399  17.376  0.00  0.00    +0.000 HD
ENDBRANCH   7  14
BRANCH   8  16
ATOM     16  O   UNL     1       7.703   5.805  19.104  0.00  0.00    +0.000 OA
ATOM     17  H   UNL     1       7.222   6.017  19.932  0.00  0.00    +0.000 HD
ENDBRANCH   8  16
BRANCH   9  18
ATOM     18  O   UNL     1       4.868   5.524  19.621  0.00  0.00    +0.000 OA
ATOM     19  H   UNL     1       4.040   5.914  19.274  0.00  0.00    +0.000 HD
ENDBRANCH   9  18
ENDBRANCH   1   4
BRANCH   1  20
ATOM     20  N   UNL     1       2.985   3.696  19.513  0.00  0.00    +0.000 NA
ATOM     21  H   UNL     1       2.984   2.841  20.088  0.00  0.00    +0.000 HD
BRANCH  20  22
ATOM     22  C   UNL     1       1.741   4.499  19.634  0.00  0.00    +0.000 C 
BRANCH  22  23
ATOM     23  C   UNL     1       1.803   5.459  20.822  0.00  0.00    +0.000 C 
BRANCH  23  27
ATOM     24  C   UNL     1       1.273   9.542  19.538  0.00  0.00    +0.000 A 
ATOM     25  C   UNL     1       1.911   8.635  18.690  0.00  0.00    +0.000 A 
ATOM     26  C   UNL     1       2.070   7.307  19.101  0.00  0.00    +0.000 A 
ATOM     27  C   UNL     1       1.595   6.883  20.354  0.00  0.00    +0.000 A 
ATOM     28  C   UNL     1       0.983   7.818  21.202  0.00  0.00    +0.000 A 
ATOM     29  C   UNL     1       0.829   9.137  20.802  0.00  0.00    +0.000 A 
BRANCH  24  30
ATOM     30  S   UNL     1       1.043  11.220  19.048  0.00  0.00    +0.000 S 
ATOM     31  O   UNL     1       1.549  12.102  20.073  0.00  0.00    +0.000 OA
ATOM     32  O   UNL     1      -0.279  11.373  18.474  0.00  0.00    +0.000 OA
BRANCH  30  33
ATOM     33  N   UNL     1       2.116  11.317  17.760  0.00  0.00    +0.000 NA
ATOM     34  H   UNL     1       1.864  10.625  17.053  0.00  0.00    +0.000 HD
ATOM     35  H   UNL     1       3.080  11.254  18.083  0.00  0.00    +0.000 HD
ENDBRANCH  30  33
ENDBRANCH  24  30
ENDBRANCH  23  27
ENDBRANCH  22  23
ENDBRANCH  20  22
ENDBRANCH   1  20
TORSDOF 12
ENDMDL
MODEL 6
REMARK VINA RESULT:      -7.4      1.113      1.579
REMARK  Name = 
REMARK  12 active torsions:
REMARK  status: ('A' for Active; 'I' for Inactive)
REMARK    1  A    between atoms: N_1  and  S_2
REMARK    2  A    between atoms: S_2  and  C_5
REMARK    3  A    between atoms: C_8  and  C_9
REMARK    4  A    between atoms: C_9  and  C_10
REMARK    5  A    between atoms: C_10  and  N_11
REMARK    6  A    between atoms: N_11  and  S_12
REMARK    7  A    between atoms: S_12  and  C_15
REMARK    8  A    between atoms: C_17  and  C_18
REMARK    9  A    between atoms: C_18  and  O_20
REMARK   10  A    between atoms: C_21  and  O_22
REMARK   11  A    between atoms: C_23  and  O_24
REMARK   12  A    between atoms: C_25  and  O_26
REMARK                            x       y       z     vdW  Elec       q    Type
REMARK                         _______ _______ _______ _____ _____    ______ ____
ROOT
ATOM      1  S   UNL     1       4.333   3.699  19.188  0.00  0.00    +0.000 S 
ATOM      2  O   UNL     1       4.849   2.779  20.181  0.00  0.00    +0.000 OA
ATOM      3  O   UNL     1       3.200   3.334  18.364  0.00  0.00    +0.000 OA
ENDROOT
BRANCH   1   4
ATOM      4  C   UNL     1       5.722   4.177  18.073  0.00  0.00    +0.000 C 
ATOM      5  O   UNL     1       6.141   5.554  18.315  0.00  0.00    +0.000 OA
ATOM      6  C   UNL     1       7.220   5.952  17.462  0.00  0.00    +0.000 C 
ATOM      7  C   UNL     1       6.712   5.996  16.022  0.00  0.00    +0.000 C 
ATOM      8  C   UNL     1       6.311   4.572  15.636  0.00  0.00    +0.000 C 
ATOM      9  C   UNL     1       5.284   3.968  16.614  0.00  0.00    +0.000 C 
BRANCH   6  10
ATOM     10  C   UNL     1       7.776   7.306  17.888  0.00  0.00    +0.000 C 
ATOM     11  O   UNL     1       7.605   8.345  17.269  0.00  0.00    +0.000 OA
BRANCH  10  12
ATOM     12  O   UNL     1       8.524   7.232  19.016  0.00  0.00    +0.000 OA
ATOM     13  H   UNL     1       9.464   7.446  18.824  0.00  0.00    +0.000 HD
ENDBRANCH  10  12
ENDBRANCH   6  10
BRANCH   7  14
ATOM     14  O   UNL     1       5.543   6.822  15.870  0.00  0.00    +0.000 OA
ATOM     15  H   UNL     1       5.716   7.710  16.235  0.00  0.00    +0.000 HD
ENDBRANCH   7  14
BRANCH   8  16
ATOM     16  O   UNL     1       5.749   4.545  14.320  0.00  0.00    +0.000 OA
ATOM     17  H   UNL     1       5.371   5.436  14.163  0.00  0.00    +0.000 HD
ENDBRANCH   8  16
BRANCH   9  18
ATOM     18  O   UNL     1       5.133   2.564  16.339  0.00  0.00    +0.000 OA
ATOM     19  H   UNL     1       5.324   2.420  15.390  0.00  0.00    +0.000 HD
ENDBRANCH   9  18
ENDBRANCH   1   4
BRANCH   1  20
ATOM     20  N   UNL     1       3.907   5.118  20.009  0.00  0.00    +0.000 NA
ATOM     21  H   UNL     1       3.889   4.956  21.026  0.00  0.00    +0.000 HD
BRANCH  20  22
ATOM     22  C   UNL     1       2.657   5.724  19.480  0.00  0.00    +0.000 C 
BRANCH  22  23
ATOM     23  C   UNL     1       2.952   6.799  18.433  0.00  0.00    +0.000 C 
BRANCH  23  27
ATOM     24  C   UNL     1       0.727  10.387  19.312  0.00  0.00    +0.000 A 
ATOM     25  C   UNL     1       1.284  10.220  18.042  0.00  0.00    +0.000 A 
ATOM     26  C   UNL     1       1.993   9.050  17.753  0.00  0.00    +0.000 A 
ATOM     27  C   UNL     1       2.148   8.047  18.726  0.00  0.00    +0.000 A 
ATOM     28  C   UNL     1       1.605   8.248  20.003  0.00  0.00    +0.000 A 
ATOM     29  C   UNL     1       0.906   9.410  20.297  0.00  0.00    +0.000 A 
BRANCH  24  30
ATOM     30  S   UNL     1      -0.186  11.843  19.708  0.00  0.00    +0.000 S 
ATOM     31  O   UNL     1       0.613  12.709  20.542  0.00  0.00    +0.000 OA
ATOM     32  O   UNL     1      -1.547  11.476  20.045  0.00  0.00    +0.000 OA
BRANCH  30  33
ATOM     33  N   UNL     1      -0.271  12.575  18.199  0.00  0.00    +0.000 NA
ATOM     34  H   UNL     1       0.616  12.454  17.710  0.00  0.00    +0.000 HD
ATOM     35  H   UNL     1      -0.573  13.545  18.282  0.00  0.00    +0.000 HD
ENDBRANCH  30  33
ENDBRANCH  24  30
ENDBRANCH  23  27
ENDBRANCH  22  23
ENDBRANCH  20  22
ENDBRANCH   1  20
TORSDOF 12
ENDMDL
MODEL 7
REMARK VINA RESULT:      -7.4      1.772      2.997
REMARK  Name = 
REMARK  12 active torsions:
REMARK  status: ('A' for Active; 'I' for Inactive)
REMARK    1  A    between atoms: N_1  and  S_2
REMARK    2  A    between atoms: S_2  and  C_5
REMARK    3  A    between atoms: C_8  and  C_9
REMARK    4  A    between atoms: C_9  and  C_10
REMARK    5  A    between atoms: C_10  and  N_11
REMARK    6  A    between atoms: N_11  and  S_12
REMARK    7  A    between atoms: S_12  and  C_15
REMARK    8  A    between atoms: C_17  and  C_18
REMARK    9  A    between atoms: C_18  and  O_20
REMARK   10  A    between atoms: C_21  and  O_22
REMARK   11  A    between atoms: C_23  and  O_24
REMARK   12  A    between atoms: C_25  and  O_26
REMARK                            x       y       z     vdW  Elec       q    Type
REMARK                         _______ _______ _______ _____ _____    ______ ____
ROOT
ATOM      1  S   UNL     1       3.815   3.015  18.625  0.00  0.00    +0.000 S 
ATOM      2  O   UNL     1       4.314   2.733  19.955  0.00  0.00    +0.000 OA
ATOM      3  O   UNL     1       3.713   1.962  17.637  0.00  0.00    +0.000 OA
ENDROOT
BRANCH   1   4
ATOM      4  C   UNL     1       4.831   4.377  17.908  0.00  0.00    +0.000 C 
ATOM      5  O   UNL     1       5.456   3.965  16.656  0.00  0.00    +0.000 OA
ATOM      6  C   UNL     1       6.252   5.005  16.076  0.00  0.00    +0.000 C 
ATOM      7  C   UNL     1       7.449   5.267  16.987  0.00  0.00    +0.000 C 
ATOM      8  C   UNL     1       6.905   5.781  18.320  0.00  0.00    +0.000 C 
ATOM      9  C   UNL     1       5.879   4.816  18.945  0.00  0.00    +0.000 C 
BRANCH   6  10
ATOM     10  C   UNL     1       6.706   4.621  14.672  0.00  0.00    +0.000 C 
ATOM     11  O   UNL     1       7.380   5.337  13.948  0.00  0.00    +0.000 OA
BRANCH  10  12
ATOM     12  O   UNL     1       6.246   3.405  14.290  0.00  0.00    +0.000 OA
ATOM     13  H   UNL     1       6.083   3.384  13.320  0.00  0.00    +0.000 HD
ENDBRANCH  10  12
ENDBRANCH   6  10
BRANCH   7  14
ATOM     14  O   UNL     1       8.205   4.075  17.270  0.00  0.00    +0.000 OA
ATOM     15  H   UNL     1       7.604   3.367  17.570  0.00  0.00    +0.000 HD
ENDBRANCH   7  14
BRANCH   8  16
ATOM     16  O   UNL     1       7.968   5.977  19.258  0.00  0.00    +0.000 OA
ATOM     17  H   UNL     1       7.555   6.336  20.072  0.00  0.00    +0.000 HD
ENDBRANCH   8  16
BRANCH   9  18
ATOM     18  O   UNL     1       5.234   5.460  20.057  0.00  0.00    +0.000 OA
ATOM     19  H   UNL     1       4.291   5.198  20.054  0.00  0.00    +0.000 HD
ENDBRANCH   9  18
ENDBRANCH   1   4
BRANCH   1  20
ATOM     20  N   UNL     1       2.261   3.664  18.813  0.00  0.00    +0.000 NA
ATOM     21  H   UNL     1       1.586   3.164  18.217  0.00  0.00    +0.000 HD
BRANCH  20  22
ATOM     22  C   UNL     1       2.238   5.139  18.632  0.00  0.00    +0.000 C 
BRANCH  22  23
ATOM     23  C   UNL     1       2.167   5.870  19.972  0.00  0.00    +0.000 C 
BRANCH  23  27
ATOM     24  C   UNL     1       1.224  10.025  19.299  0.00  0.00    +0.000 A 
ATOM     25  C   UNL     1       0.961   9.456  20.546  0.00  0.00    +0.000 A 
ATOM     26  C   UNL     1       1.280   8.112  20.769  0.00  0.00    +0.000 A 
ATOM     27  C   UNL     1       1.861   7.336  19.752  0.00  0.00    +0.000 A 
ATOM     28  C   UNL     1       2.090   7.919  18.497  0.00  0.00    +0.000 A 
ATOM     29  C   UNL     1       1.769   9.249  18.269  0.00  0.00    +0.000 A 
BRANCH  24  30
ATOM     30  S   UNL     1       0.848  11.719  18.986  0.00  0.00    +0.000 S 
ATOM     31  O   UNL     1      -0.488  11.832  18.451  0.00  0.00    +0.000 OA
ATOM     32  O   UNL     1       1.992  12.354  18.363  0.00  0.00    +0.000 OA
BRANCH  30  33
ATOM     33  N   UNL     1       0.790  12.317  20.553  0.00  0.00    +0.000 NA
ATOM     34  H   UNL     1       0.221  11.701  21.134  0.00  0.00    +0.000 HD
ATOM     35  H   UNL     1       0.491  13.292  20.560  0.00  0.00    +0.000 HD
ENDBRANCH  30  33
ENDBRANCH  24  30
ENDBRANCH  23  27
ENDBRANCH  22  23
ENDBRANCH  20  22
ENDBRANCH   1  20
TORSDOF 12
ENDMDL
MODEL 8
REMARK VINA RESULT:      -7.4      1.829      2.274
REMARK  Name = 
REMARK  12 active torsions:
REMARK  status: ('A' for Active; 'I' for Inactive)
REMARK    1  A    between atoms: N_1  and  S_2
REMARK    2  A    between atoms: S_2  and  C_5
REMARK    3  A    between atoms: C_8  and  C_9
REMARK    4  A    between atoms: C_9  and  C_10
REMARK    5  A    between atoms: C_10  and  N_11
REMARK    6  A    between atoms: N_11  and  S_12
REMARK    7  A    between atoms: S_12  and  C_15
REMARK    8  A    between atoms: C_17  and  C_18
REMARK    9  A    between atoms: C_18  and  O_20
REMARK   10  A    between atoms: C_21  and  O_22
REMARK   11  A    between atoms: C_23  and  O_24
REMARK   12  A    between atoms: C_25  and  O_26
REMARK                            x       y       z     vdW  Elec       q    Type
REMARK                         _______ _______ _______ _____ _____    ______ ____
ROOT
ATOM      1  S   UNL     1       3.481   3.655  18.445  0.00  0.00    +0.000 S 
ATOM      2  O   UNL     1       3.535   3.624  19.892  0.00  0.00    +0.000 OA
ATOM      3  O   UNL     1       2.945   2.533  17.704  0.00  0.00    +0.000 OA
ENDROOT
BRANCH   1   4
ATOM      4  C   UNL     1       5.179   4.000  17.815  0.00  0.00    +0.000 C 
ATOM      5  O   UNL     1       5.873   4.960  18.668  0.00  0.00    +0.000 OA
ATOM      6  C   UNL     1       7.197   5.246  18.202  0.00  0.00    +0.000 C 
ATOM      7  C   UNL     1       7.094   5.984  16.869  0.00  0.00    +0.000 C 
ATOM      8  C   UNL     1       6.440   5.031  15.868  0.00  0.00    +0.000 C 
ATOM      9  C   UNL     1       5.081   4.503  16.365  0.00  0.00    +0.000 C 
BRANCH   6  10
ATOM     10  C   UNL     1       7.966   6.071  19.227  0.00  0.00    +0.000 C 
ATOM     11  O   UNL     1       8.484   7.151  18.991  0.00  0.00    +0.000 OA
BRANCH  10  12
ATOM     12  O   UNL     1       8.051   5.457  20.432  0.00  0.00    +0.000 OA
ATOM     13  H   UNL     1       8.406   4.545  20.334  0.00  0.00    +0.000 HD
ENDBRANCH  10  12
ENDBRANCH   6  10
BRANCH   7  14
ATOM     14  O   UNL     1       6.261   7.155  16.944  0.00  0.00    +0.000 OA
ATOM     15  H   UNL     1       5.375   6.954  16.587  0.00  0.00    +0.000 HD
ENDBRANCH   7  14
BRANCH   8  16
ATOM     16  O   UNL     1       6.237   5.681  14.609  0.00  0.00    +0.000 OA
ATOM     17  H   UNL     1       5.325   5.457  14.326  0.00  0.00    +0.000 HD
ENDBRANCH   8  16
BRANCH   9  18
ATOM     18  O   UNL     1       4.637   3.441  15.502  0.00  0.00    +0.000 OA
ATOM     19  H   UNL     1       5.192   3.454  14.696  0.00  0.00    +0.000 HD
ENDBRANCH   9  18
ENDBRANCH   1   4
BRANCH   1  20
ATOM     20  N   UNL     1       2.559   5.011  18.018  0.00  0.00    +0.000 NA
ATOM     21  H   UNL     1       2.590   5.163  17.000  0.00  0.00    +0.000 HD
BRANCH  20  22
ATOM     22  C   UNL     1       2.919   6.214  18.813  0.00  0.00    +0.000 C 
BRANCH  22  23
ATOM     23  C   UNL     1       2.613   7.504  18.053  0.00  0.00    +0.000 C 
BRANCH  23  27
ATOM     24  C   UNL     1       0.512  10.260  20.620  0.00  0.00    +0.000 A 
ATOM     25  C   UNL     1       0.785  10.625  19.300  0.00  0.00    +0.000 A 
ATOM     26  C   UNL     1       1.453   9.725  18.464  0.00  0.00    +0.000 A 
ATOM     27  C   UNL     1       1.850   8.464  18.939  0.00  0.00    +0.000 A 
ATOM     28  C   UNL     1       1.592   8.129  20.277  0.00  0.00    +0.000 A 
ATOM     29  C   UNL     1       0.935   9.021  21.112  0.00  0.00    +0.000 A 
BRANCH  24  30
ATOM     30  S   UNL     1      -0.341  11.363  21.699  0.00  0.00    +0.000 S 
ATOM     31  O   UNL     1      -0.242  10.890  23.059  0.00  0.00    +0.000 OA
ATOM     32  O   UNL     1      -1.604  11.738  21.096  0.00  0.00    +0.000 OA
BRANCH  30  33
ATOM     33  N   UNL     1       0.639  12.722  21.591  0.00  0.00    +0.000 NA
ATOM     34  H   UNL     1       1.598  12.438  21.391  0.00  0.00    +0.000 HD
ATOM     35  H   UNL     1       0.540  13.309  22.418  0.00  0.00    +0.000 HD
ENDBRANCH  30  33
ENDBRANCH  24  30
ENDBRANCH  23  27
ENDBRANCH  22  23
ENDBRANCH  20  22
ENDBRANCH   1  20
TORSDOF 12
ENDMDL
MODEL 9
REMARK VINA RESULT:      -7.3      1.532      1.921
REMARK  Name = 
REMARK  12 active torsions:
REMARK  status: ('A' for Active; 'I' for Inactive)
REMARK    1  A    between atoms: N_1  and  S_2
REMARK    2  A    between atoms: S_2  and  C_5
REMARK    3  A    between atoms: C_8  and  C_9
REMARK    4  A    between atoms: C_9  and  C_10
REMARK    5  A    between atoms: C_10  and  N_11
REMARK    6  A    between atoms: N_11  and  S_12
REMARK    7  A    between atoms: S_12  and  C_15
REMARK    8  A    between atoms: C_17  and  C_18
REMARK    9  A    between atoms: C_18  and  O_20
REMARK   10  A    between atoms: C_21  and  O_22
REMARK   11  A    between atoms: C_23  and  O_24
REMARK   12  A    between atoms: C_25  and  O_26
REMARK                            x       y       z     vdW  Elec       q    Type
REMARK                         _______ _______ _______ _____ _____    ______ ____
ROOT
ATOM      1  S   UNL     1       3.841   3.218  17.824  0.00  0.00    +0.000 S 
ATOM      2  O   UNL     1       3.869   1.876  18.369  0.00  0.00    +0.000 OA
ATOM      3  O   UNL     1       3.008   3.532  16.682  0.00  0.00    +0.000 OA
ENDROOT
BRANCH   1   4
ATOM      4  C   UNL     1       5.573   3.709  17.422  0.00  0.00    +0.000 C 
ATOM      5  O   UNL     1       6.041   4.765  18.314  0.00  0.00    +0.000 OA
ATOM      6  C   UNL     1       7.385   5.166  18.024  0.00  0.00    +0.000 C 
ATOM      7  C   UNL     1       7.408   5.839  16.653  0.00  0.00    +0.000 C 
ATOM      8  C   UNL     1       7.000   4.788  15.621  0.00  0.00    +0.000 C 
ATOM      9  C   UNL     1       5.639   4.144  15.948  0.00  0.00    +0.000 C 
BRANCH   6  10
ATOM     10  C   UNL     1       7.916   6.103  19.103  0.00  0.00    +0.000 C 
ATOM     11  O   UNL     1       8.368   7.216  18.886  0.00  0.00    +0.000 OA
BRANCH  10  12
ATOM     12  O   UNL     1       7.870   5.552  20.341  0.00  0.00    +0.000 OA
ATOM     13  H   UNL     1       7.918   4.571  20.286  0.00  0.00    +0.000 HD
ENDBRANCH  10  12
ENDBRANCH   6  10
BRANCH   7  14
ATOM     14  O   UNL     1       6.465   6.922  16.550  0.00  0.00    +0.000 OA
ATOM     15  H   UNL     1       6.312   7.312  17.431  0.00  0.00    +0.000 HD
ENDBRANCH   7  14
BRANCH   8  16
ATOM     16  O   UNL     1       6.922   5.366  14.314  0.00  0.00    +0.000 OA
ATOM     17  H   UNL     1       6.102   5.016  13.906  0.00  0.00    +0.000 HD
ENDBRANCH   8  16
BRANCH   9  18
ATOM     18  O   UNL     1       5.429   3.010  15.088  0.00  0.00    +0.000 OA
ATOM     19  H   UNL     1       5.792   2.219  15.537  0.00  0.00    +0.000 HD
ENDBRANCH   9  18
ENDBRANCH   1   4
BRANCH   1  20
ATOM     20  N   UNL     1       3.362   4.248  19.080  0.00  0.00    +0.000 NA
ATOM     21  H   UNL     1       3.047   3.703  19.895  0.00  0.00    +0.000 HD
BRANCH  20  22
ATOM     22  C   UNL     1       2.380   5.269  18.630  0.00  0.00    +0.000 C 
BRANCH  22  23
ATOM     23  C   UNL     1       3.066   6.582  18.251  0.00  0.00    +0.000 C 
BRANCH  23  27
ATOM     24  C   UNL     1       0.716   9.900  19.686  0.00  0.00    +0.000 A 
ATOM     25  C   UNL     1       1.066   8.876  20.569  0.00  0.00    +0.000 A 
ATOM     26  C   UNL     1       1.840   7.808  20.106  0.00  0.00    +0.000 A 
ATOM     27  C   UNL     1       2.266   7.758  18.768  0.00  0.00    +0.000 A 
ATOM     28  C   UNL     1       1.879   8.782  17.892  0.00  0.00    +0.000 A 
ATOM     29  C   UNL     1       1.105   9.841  18.344  0.00  0.00    +0.000 A 
BRANCH  24  30
ATOM     30  S   UNL     1      -0.248  11.270  20.237  0.00  0.00    +0.000 S 
ATOM     31  O   UNL     1       0.474  12.499  20.008  0.00  0.00    +0.000 OA
ATOM     32  O   UNL     1      -0.848  10.948  21.516  0.00  0.00    +0.000 OA
BRANCH  30  33
ATOM     33  N   UNL     1      -1.503  11.235  19.122  0.00  0.00    +0.000 NA
ATOM     34  H   UNL     1      -1.607  10.290  18.754  0.00  0.00    +0.000 HD
ATOM     35  H   UNL     1      -1.375  11.950  18.408  0.00  0.00    +0.000 HD
ENDBRANCH  30  33
ENDBRANCH  24  30
ENDBRANCH  23  27
ENDBRANCH  22  23
ENDBRANCH  20  22
ENDBRANCH   1  20
TORSDOF 12
ENDMDL
