MODEL 1
REMARK VINA RESULT:      -7.3      0.000      0.000
REMARK  Name = 
REMARK  3 active torsions:
REMARK  status: ('A' for Active; 'I' for Inactive)
REMARK    1  A    between atoms: C_1  and  C_2
REMARK    2  A    between atoms: C_9  and  S_10
REMARK    3  A    between atoms: S_10  and  C_13
REMARK                            x       y       z     vdW  Elec       q    Type
REMARK                         _______ _______ _______ _____ _____    ______ ____
ROOT
ATOM      1  C   UNL     1      -7.665  14.692  15.921  0.00  0.00    +0.000 C 
ATOM      2  C   UNL     1      -7.587  14.207  17.366  0.00  0.00    +0.000 C 
ATOM      3  C   UNL     1      -6.728  15.168  18.198  0.00  0.00    +0.000 C 
ATOM      4  C   UNL     1      -6.561  14.652  19.619  0.00  0.00    +0.000 C 
ATOM      5  N   UNL     1      -5.994  13.311  19.580  0.00  0.00    +0.000 N 
ATOM      6  C   UNL     1      -4.894  12.960  20.334  0.00  0.00    +0.000 A 
ATOM      7  N   UNL     1      -3.768  12.676  19.727  0.00  0.00    +0.000 NA
ATOM      8  C   UNL     1      -2.675  12.404  20.497  0.00  0.00    +0.000 A 
ATOM      9  C   UNL     1      -1.346  12.121  20.241  0.00  0.00    +0.000 A 
ATOM     10  N   UNL     1      -0.654  11.976  21.421  0.00  0.00    +0.000 NA
ATOM     11  N   UNL     1      -1.511  12.154  22.420  0.00  0.00    +0.000 NA
ATOM     12  N   UNL     1      -2.716  12.411  21.877  0.00  0.00    +0.000 N 
ATOM     13  C   UNL     1      -3.881  12.681  22.598  0.00  0.00    +0.000 A 
ATOM     14  C   UNL     1      -3.926  12.686  23.994  0.00  0.00    +0.000 A 
ATOM     15  C   UNL     1      -5.143  12.954  24.627  0.00  0.00    +0.000 A 
ATOM     16  C   UNL     1      -6.293  13.185  23.868  0.00  0.00    +0.000 A 
ATOM     17 CL   UNL     1      -7.789  13.517  24.649  0.00  0.00    +0.000 Cl
ATOM     18  C   UNL     1      -6.242  13.162  22.477  0.00  0.00    +0.000 A 
ATOM     19  C   UNL     1      -5.022  12.939  21.834  0.00  0.00    +0.000 A 
ATOM     20  C   UNL     1      -6.766  12.307  18.857  0.00  0.00    +0.000 C 
ATOM     21  C   UNL     1      -7.030  12.773  17.427  0.00  0.00    +0.000 C 
ENDROOT
BRANCH   9  22
ATOM     22  S   UNL     1      -0.586  12.045  18.698  0.00  0.00    +0.000 S 
ATOM     23  O   UNL     1      -0.484  13.417  18.241  0.00  0.00    +0.000 OA
ATOM     24  O   UNL     1       0.598  11.222  18.867  0.00  0.00    +0.000 OA
BRANCH  22  25
ATOM     25  C   UNL     1      -1.746  11.197  17.660  0.00  0.00    +0.000 A 
ATOM     26  C   UNL     1      -2.284   9.976  18.081  0.00  0.00    +0.000 A 
ATOM     27  C   UNL     1      -3.157   9.286  17.240  0.00  0.00    +0.000 A 
ATOM     28  C   UNL     1      -3.501   9.822  15.999  0.00  0.00    +0.000 A 
ATOM     29  C   UNL     1      -2.993  11.061  15.601  0.00  0.00    +0.000 A 
ATOM     30  C   UNL     1      -2.119  11.757  16.435  0.00  0.00    +0.000 A 
ENDBRANCH  22  25
ENDBRANCH   9  22
TORSDOF 2
ENDMDL
MODEL 2
REMARK VINA RESULT:      -7.3      7.141     10.622
REMARK  Name = 
REMARK  3 active torsions:
REMARK  status: ('A' for Active; 'I' for Inactive)
REMARK    1  A    between atoms: C_1  and  C_2
REMARK    2  A    between atoms: C_9  and  S_10
REMARK    3  A    between atoms: S_10  and  C_13
REMARK                            x       y       z     vdW  Elec       q    Type
REMARK                         _______ _______ _______ _____ _____    ______ ____
ROOT
ATOM      1  C   UNL     1       1.017   2.103  22.613  0.00  0.00    +0.000 C 
ATOM      2  C   UNL     1       1.628   2.470  21.263  0.00  0.00    +0.000 C 
ATOM      3  C   UNL     1       2.837   3.392  21.467  0.00  0.00    +0.000 C 
ATOM      4  C   UNL     1       3.404   3.845  20.130  0.00  0.00    +0.000 C 
ATOM      5  N   UNL     1       2.351   4.490  19.356  0.00  0.00    +0.000 N 
ATOM      6  C   UNL     1       2.526   5.729  18.776  0.00  0.00    +0.000 A 
ATOM      7  N   UNL     1       1.832   6.747  19.222  0.00  0.00    +0.000 NA
ATOM      8  C   UNL     1       2.076   7.976  18.682  0.00  0.00    +0.000 A 
ATOM      9  C   UNL     1       1.605   9.256  18.913  0.00  0.00    +0.000 A 
ATOM     10  N   UNL     1       2.246  10.154  18.092  0.00  0.00    +0.000 NA
ATOM     11  N   UNL     1       3.108   9.478  17.341  0.00  0.00    +0.000 NA
ATOM     12  N   UNL     1       3.013   8.180  17.689  0.00  0.00    +0.000 N 
ATOM     13  C   UNL     1       3.777   7.145  17.145  0.00  0.00    +0.000 A 
ATOM     14  C   UNL     1       4.724   7.348  16.138  0.00  0.00    +0.000 A 
ATOM     15  C   UNL     1       5.430   6.246  15.647  0.00  0.00    +0.000 A 
ATOM     16  C   UNL     1       5.167   4.967  16.142  0.00  0.00    +0.000 A 
ATOM     17 CL   UNL     1       6.039   3.613  15.537  0.00  0.00    +0.000 Cl
ATOM     18  C   UNL     1       4.210   4.772  17.133  0.00  0.00    +0.000 A 
ATOM     19  C   UNL     1       3.530   5.871  17.663  0.00  0.00    +0.000 A 
ATOM     20  C   UNL     1       1.178   3.677  19.061  0.00  0.00    +0.000 C 
ATOM     21  C   UNL     1       0.576   3.130  20.354  0.00  0.00    +0.000 C 
ENDROOT
BRANCH   9  22
ATOM     22  S   UNL     1       0.459   9.733  20.104  0.00  0.00    +0.000 S 
ATOM     23  O   UNL     1       0.019   8.507  20.741  0.00  0.00    +0.000 OA
ATOM     24  O   UNL     1       1.086  10.793  20.871  0.00  0.00    +0.000 OA
BRANCH  22  25
ATOM     25  C   UNL     1      -0.902  10.402  19.185  0.00  0.00    +0.000 A 
ATOM     26  C   UNL     1      -1.610  11.493  19.698  0.00  0.00    +0.000 A 
ATOM     27  C   UNL     1      -2.712  11.985  18.999  0.00  0.00    +0.000 A 
ATOM     28  C   UNL     1      -3.090  11.400  17.790  0.00  0.00    +0.000 A 
ATOM     29  C   UNL     1      -2.356  10.336  17.262  0.00  0.00    +0.000 A 
ATOM     30  C   UNL     1      -1.253   9.838  17.955  0.00  0.00    +0.000 A 
ENDBRANCH  22  25
ENDBRANCH   9  22
TORSDOF 2
ENDMDL
MODEL 3
REMARK VINA RESULT:      -7.2      3.260      5.334
REMARK  Name = 
REMARK  3 active torsions:
REMARK  status: ('A' for Active; 'I' for Inactive)
REMARK    1  A    between atoms: C_1  and  C_2
REMARK    2  A    between atoms: C_9  and  S_10
REMARK    3  A    between atoms: S_10  and  C_13
REMARK                            x       y       z     vdW  Elec       q    Type
REMARK                         _______ _______ _______ _____ _____    ______ ____
ROOT
ATOM      1  C   UNL     1      -1.538  15.814  24.836  0.00  0.00    +0.000 C 
ATOM      2  C   UNL     1      -2.447  15.496  23.652  0.00  0.00    +0.000 C 
ATOM      3  C   UNL     1      -2.903  14.033  23.717  0.00  0.00    +0.000 C 
ATOM      4  C   UNL     1      -3.734  13.669  22.496  0.00  0.00    +0.000 C 
ATOM      5  N   UNL     1      -2.963  13.946  21.291  0.00  0.00    +0.000 N 
ATOM      6  C   UNL     1      -2.811  13.010  20.290  0.00  0.00    +0.000 A 
ATOM      7  N   UNL     1      -1.625  12.501  20.066  0.00  0.00    +0.000 NA
ATOM      8  C   UNL     1      -1.513  11.523  19.121  0.00  0.00    +0.000 A 
ATOM      9  C   UNL     1      -0.481  10.732  18.651  0.00  0.00    +0.000 A 
ATOM     10  N   UNL     1      -0.949   9.854  17.701  0.00  0.00    +0.000 NA
ATOM     11  N   UNL     1      -2.251  10.070  17.552  0.00  0.00    +0.000 NA
ATOM     12  N   UNL     1      -2.594  11.062  18.396  0.00  0.00    +0.000 N 
ATOM     13  C   UNL     1      -3.886  11.569  18.559  0.00  0.00    +0.000 A 
ATOM     14  C   UNL     1      -4.980  11.106  17.825  0.00  0.00    +0.000 A 
ATOM     15  C   UNL     1      -6.233  11.685  18.048  0.00  0.00    +0.000 A 
ATOM     16  C   UNL     1      -6.371  12.723  18.971  0.00  0.00    +0.000 A 
ATOM     17 CL   UNL     1      -7.914  13.433  19.246  0.00  0.00    +0.000 Cl
ATOM     18  C   UNL     1      -5.272  13.189  19.686  0.00  0.00    +0.000 A 
ATOM     19  C   UNL     1      -4.024  12.589  19.504  0.00  0.00    +0.000 A 
ATOM     20  C   UNL     1      -2.528  15.325  21.108  0.00  0.00    +0.000 C 
ATOM     21  C   UNL     1      -1.730  15.793  22.323  0.00  0.00    +0.000 C 
ENDROOT
BRANCH   9  22
ATOM     22  S   UNL     1       1.150  10.730  19.201  0.00  0.00    +0.000 S 
ATOM     23  O   UNL     1       1.925  11.340  18.138  0.00  0.00    +0.000 OA
ATOM     24  O   UNL     1       1.130  11.299  20.535  0.00  0.00    +0.000 OA
BRANCH  22  25
ATOM     25  C   UNL     1       1.595   9.017  19.300  0.00  0.00    +0.000 A 
ATOM     26  C   UNL     1       1.339   8.306  20.477  0.00  0.00    +0.000 A 
ATOM     27  C   UNL     1       1.736   6.972  20.571  0.00  0.00    +0.000 A 
ATOM     28  C   UNL     1       2.367   6.352  19.492  0.00  0.00    +0.000 A 
ATOM     29  C   UNL     1       2.583   7.055  18.305  0.00  0.00    +0.000 A 
ATOM     30  C   UNL     1       2.190   8.389  18.202  0.00  0.00    +0.000 A 
ENDBRANCH  22  25
ENDBRANCH   9  22
TORSDOF 2
ENDMDL
MODEL 4
REMARK VINA RESULT:      -7.1      3.879      7.188
REMARK  Name = 
REMARK  3 active torsions:
REMARK  status: ('A' for Active; 'I' for Inactive)
REMARK    1  A    between atoms: C_1  and  C_2
REMARK    2  A    between atoms: C_9  and  S_10
REMARK    3  A    between atoms: S_10  and  C_13
REMARK                            x       y       z     vdW  Elec       q    Type
REMARK                         _______ _______ _______ _____ _____    ______ ____
ROOT
ATOM      1  C   UNL     1       2.916  13.866  20.714  0.00  0.00    +0.000 C 
ATOM      2  C   UNL     1       1.855  13.092  19.937  0.00  0.00    +0.000 C 
ATOM      3  C   UNL     1       0.826  14.062  19.343  0.00  0.00    +0.000 C 
ATOM      4  C   UNL     1      -0.292  13.304  18.643  0.00  0.00    +0.000 C 
ATOM      5  N   UNL     1      -0.902  12.372  19.584  0.00  0.00    +0.000 N 
ATOM      6  C   UNL     1      -2.267  12.315  19.774  0.00  0.00    +0.000 A 
ATOM      7  N   UNL     1      -2.767  12.686  20.927  0.00  0.00    +0.000 NA
ATOM      8  C   UNL     1      -4.124  12.691  21.066  0.00  0.00    +0.000 A 
ATOM      9  C   UNL     1      -5.002  13.052  22.072  0.00  0.00    +0.000 A 
ATOM     10  N   UNL     1      -6.301  12.896  21.648  0.00  0.00    +0.000 NA
ATOM     11  N   UNL     1      -6.272  12.438  20.402  0.00  0.00    +0.000 NA
ATOM     12  N   UNL     1      -4.978  12.315  20.048  0.00  0.00    +0.000 N 
ATOM     13  C   UNL     1      -4.524  11.886  18.799  0.00  0.00    +0.000 A 
ATOM     14  C   UNL     1      -5.385  11.503  17.768  0.00  0.00    +0.000 A 
ATOM     15  C   UNL     1      -4.836  11.074  16.557  0.00  0.00    +0.000 A 
ATOM     16  C   UNL     1      -3.450  11.008  16.399  0.00  0.00    +0.000 A 
ATOM     17 CL   UNL     1      -2.776  10.481  14.907  0.00  0.00    +0.000 Cl
ATOM     18  C   UNL     1      -2.599  11.376  17.438  0.00  0.00    +0.000 A 
ATOM     19  C   UNL     1      -3.136  11.848  18.637  0.00  0.00    +0.000 A 
ATOM     20  C   UNL     1      -0.015  11.372  20.164  0.00  0.00    +0.000 C 
ATOM     21  C   UNL     1       1.174  12.049  20.842  0.00  0.00    +0.000 C 
ENDROOT
BRANCH   9  22
ATOM     22  S   UNL     1      -4.594  13.703  23.612  0.00  0.00    +0.000 S 
ATOM     23  O   UNL     1      -5.681  14.597  23.962  0.00  0.00    +0.000 OA
ATOM     24  O   UNL     1      -4.253  12.572  24.455  0.00  0.00    +0.000 OA
BRANCH  22  25
ATOM     25  C   UNL     1      -3.142  14.679  23.324  0.00  0.00    +0.000 A 
ATOM     26  C   UNL     1      -3.255  15.900  22.650  0.00  0.00    +0.000 A 
ATOM     27  C   UNL     1      -2.105  16.641  22.380  0.00  0.00    +0.000 A 
ATOM     28  C   UNL     1      -0.858  16.174  22.796  0.00  0.00    +0.000 A 
ATOM     29  C   UNL     1      -0.756  14.974  23.504  0.00  0.00    +0.000 A 
ATOM     30  C   UNL     1      -1.900  14.226  23.778  0.00  0.00    +0.000 A 
ENDBRANCH  22  25
ENDBRANCH   9  22
TORSDOF 2
ENDMDL
MODEL 5
REMARK VINA RESULT:      -7.1      3.948      5.479
REMARK  Name = 
REMARK  3 active torsions:
REMARK  status: ('A' for Active; 'I' for Inactive)
REMARK    1  A    between atoms: C_1  and  C_2
REMARK    2  A    between atoms: C_9  and  S_10
REMARK    3  A    between atoms: S_10  and  C_13
REMARK                            x       y       z     vdW  Elec       q    Type
REMARK                         _______ _______ _______ _____ _____    ______ ____
ROOT
ATOM      1  C   UNL     1      -2.398  10.064  16.363  0.00  0.00    +0.000 C 
ATOM      2  C   UNL     1      -2.472  10.360  17.859  0.00  0.00    +0.000 C 
ATOM      3  C   UNL     1      -2.961  11.796  18.087  0.00  0.00    +0.000 C 
ATOM      4  C   UNL     1      -2.953  12.142  19.568  0.00  0.00    +0.000 C 
ATOM      5  N   UNL     1      -1.614  11.931  20.103  0.00  0.00    +0.000 N 
ATOM      6  C   UNL     1      -0.964  12.896  20.844  0.00  0.00    +0.000 A 
ATOM      7  N   UNL     1       0.104  13.471  20.347  0.00  0.00    +0.000 NA
ATOM      8  C   UNL     1       0.687  14.473  21.066  0.00  0.00    +0.000 A 
ATOM      9  C   UNL     1       1.756  15.327  20.864  0.00  0.00    +0.000 A 
ATOM     10  N   UNL     1       1.874  16.200  21.920  0.00  0.00    +0.000 NA
ATOM     11  N   UNL     1       0.912  15.919  22.791  0.00  0.00    +0.000 NA
ATOM     12  N   UNL     1       0.200  14.893  22.288  0.00  0.00    +0.000 N 
ATOM     13  C   UNL     1      -0.918  14.316  22.896  0.00  0.00    +0.000 A 
ATOM     14  C   UNL     1      -1.411  14.737  24.133  0.00  0.00    +0.000 A 
ATOM     15  C   UNL     1      -2.529  14.089  24.667  0.00  0.00    +0.000 A 
ATOM     16  C   UNL     1      -3.118  13.025  23.981  0.00  0.00    +0.000 A 
ATOM     17 CL   UNL     1      -4.494  12.230  24.639  0.00  0.00    +0.000 Cl
ATOM     18  C   UNL     1      -2.609  12.602  22.756  0.00  0.00    +0.000 A 
ATOM     19  C   UNL     1      -1.521  13.270  22.192  0.00  0.00    +0.000 A 
ATOM     20  C   UNL     1      -1.079  10.581  19.984  0.00  0.00    +0.000 C 
ATOM     21  C   UNL     1      -1.104  10.130  18.525  0.00  0.00    +0.000 C 
ENDROOT
BRANCH   9  22
ATOM     22  S   UNL     1       2.766  15.402  19.473  0.00  0.00    +0.000 S 
ATOM     23  O   UNL     1       4.002  16.016  19.916  0.00  0.00    +0.000 OA
ATOM     24  O   UNL     1       2.757  14.073  18.890  0.00  0.00    +0.000 OA
BRANCH  22  25
ATOM     25  C   UNL     1       1.948  16.529  18.376  0.00  0.00    +0.000 A 
ATOM     26  C   UNL     1       0.611  16.869  18.609  0.00  0.00    +0.000 A 
ATOM     27  C   UNL     1      -0.045  17.716  17.716  0.00  0.00    +0.000 A 
ATOM     28  C   UNL     1       0.635  18.230  16.611  0.00  0.00    +0.000 A 
ATOM     29  C   UNL     1       1.981  17.919  16.406  0.00  0.00    +0.000 A 
ATOM     30  C   UNL     1       2.645  17.073  17.293  0.00  0.00    +0.000 A 
ENDBRANCH  22  25
ENDBRANCH   9  22
TORSDOF 2
ENDMDL
MODEL 6
REMARK VINA RESULT:      -7.1      1.848      2.294
REMARK  Name = 
REMARK  3 active torsions:
REMARK  status: ('A' for Active; 'I' for Inactive)
REMARK    1  A    between atoms: C_1  and  C_2
REMARK    2  A    between atoms: C_9  and  S_10
REMARK    3  A    between atoms: S_10  and  C_13
REMARK                            x       y       z     vdW  Elec       q    Type
REMARK                         _______ _______ _______ _____ _____    ______ ____
ROOT
ATOM      1  C   UNL     1      -7.296  14.535  15.948  0.00  0.00    +0.000 C 
ATOM      2  C   UNL     1      -7.256  14.054  17.396  0.00  0.00    +0.000 C 
ATOM      3  C   UNL     1      -6.411  15.013  18.245  0.00  0.00    +0.000 C 
ATOM      4  C   UNL     1      -6.282  14.502  19.671  0.00  0.00    +0.000 C 
ATOM      5  N   UNL     1      -5.723  13.157  19.651  0.00  0.00    +0.000 N 
ATOM      6  C   UNL     1      -4.644  12.802  20.433  0.00  0.00    +0.000 A 
ATOM      7  N   UNL     1      -3.505  12.509  19.854  0.00  0.00    +0.000 NA
ATOM      8  C   UNL     1      -2.432  12.233  20.651  0.00  0.00    +0.000 A 
ATOM      9  C   UNL     1      -1.099  11.940  20.428  0.00  0.00    +0.000 A 
ATOM     10  N   UNL     1      -0.437  11.796  21.625  0.00  0.00    +0.000 NA
ATOM     11  N   UNL     1      -1.317  11.983  22.603  0.00  0.00    +0.000 NA
ATOM     12  N   UNL     1      -2.506  12.245  22.030  0.00  0.00    +0.000 N 
ATOM     13  C   UNL     1      -3.687  12.526  22.722  0.00  0.00    +0.000 A 
ATOM     14  C   UNL     1      -3.766  12.537  24.116  0.00  0.00    +0.000 A 
ATOM     15  C   UNL     1      -4.996  12.815  24.718  0.00  0.00    +0.000 A 
ATOM     16  C   UNL     1      -6.125  13.050  23.931  0.00  0.00    +0.000 A 
ATOM     17 CL   UNL     1      -7.638  13.394  24.674  0.00  0.00    +0.000 Cl
ATOM     18  C   UNL     1      -6.041  13.021  22.542  0.00  0.00    +0.000 A 
ATOM     19  C   UNL     1      -4.808  12.788  21.929  0.00  0.00    +0.000 A 
ATOM     20  C   UNL     1      -6.483  12.156  18.913  0.00  0.00    +0.000 C 
ATOM     21  C   UNL     1      -6.710  12.618  17.476  0.00  0.00    +0.000 C 
ENDROOT
BRANCH   9  22
ATOM     22  S   UNL     1      -0.303  11.854  18.905  0.00  0.00    +0.000 S 
ATOM     23  O   UNL     1      -1.356  11.713  17.918  0.00  0.00    +0.000 OA
ATOM     24  O   UNL     1       0.619  12.974  18.863  0.00  0.00    +0.000 OA
BRANCH  22  25
ATOM     25  C   UNL     1       0.616  10.339  18.957  0.00  0.00    +0.000 A 
ATOM     26  C   UNL     1       0.630   9.581  20.132  0.00  0.00    +0.000 A 
ATOM     27  C   UNL     1       1.395   8.416  20.187  0.00  0.00    +0.000 A 
ATOM     28  C   UNL     1       2.125   8.006  19.071  0.00  0.00    +0.000 A 
ATOM     29  C   UNL     1       2.075   8.744  17.887  0.00  0.00    +0.000 A 
ATOM     30  C   UNL     1       1.313   9.911  17.823  0.00  0.00    +0.000 A 
ENDBRANCH  22  25
ENDBRANCH   9  22
TORSDOF 2
ENDMDL
MODEL 7
REMARK VINA RESULT:      -7.1      3.079      5.285
REMARK  Name = 
REMARK  3 active torsions:
REMARK  status: ('A' for Active; 'I' for Inactive)
REMARK    1  A    between atoms: C_1  and  C_2
REMARK    2  A    between atoms: C_9  and  S_10
REMARK    3  A    between atoms: S_10  and  C_13
REMARK                            x       y       z     vdW  Elec       q    Type
REMARK                         _______ _______ _______ _____ _____    ______ ____
ROOT
ATOM      1  C   UNL     1       1.505  10.152  18.404  0.00  0.00    +0.000 C 
ATOM      2  C   UNL     1       0.909  11.201  19.339  0.00  0.00    +0.000 C 
ATOM      3  C   UNL     1       0.060  10.521  20.420  0.00  0.00    +0.000 C 
ATOM      4  C   UNL     1      -0.618  11.555  21.306  0.00  0.00    +0.000 C 
ATOM      5  N   UNL     1      -1.411  12.452  20.476  0.00  0.00    +0.000 N 
ATOM      6  C   UNL     1      -2.731  12.733  20.758  0.00  0.00    +0.000 A 
ATOM      7  N   UNL     1      -3.663  12.314  19.938  0.00  0.00    +0.000 NA
ATOM      8  C   UNL     1      -4.965  12.540  20.277  0.00  0.00    +0.000 A 
ATOM      9  C   UNL     1      -6.190  12.218  19.719  0.00  0.00    +0.000 A 
ATOM     10  N   UNL     1      -7.211  12.663  20.526  0.00  0.00    +0.000 NA
ATOM     11  N   UNL     1      -6.667  13.265  21.578  0.00  0.00    +0.000 NA
ATOM     12  N   UNL     1      -5.331  13.194  21.436  0.00  0.00    +0.000 N 
ATOM     13  C   UNL     1      -4.398  13.691  22.350  0.00  0.00    +0.000 A 
ATOM     14  C   UNL     1      -4.764  14.355  23.523  0.00  0.00    +0.000 A 
ATOM     15  C   UNL     1      -3.759  14.829  24.370  0.00  0.00    +0.000 A 
ATOM     16  C   UNL     1      -2.415  14.660  24.027  0.00  0.00    +0.000 A 
ATOM     17 CL   UNL     1      -1.179  15.243  25.071  0.00  0.00    +0.000 Cl
ATOM     18  C   UNL     1      -2.059  14.012  22.847  0.00  0.00    +0.000 A 
ATOM     19  C   UNL     1      -3.055  13.495  22.016  0.00  0.00    +0.000 A 
ATOM     20  C   UNL     1      -0.684  13.190  19.450  0.00  0.00    +0.000 C 
ATOM     21  C   UNL     1       0.078  12.225  18.545  0.00  0.00    +0.000 C 
ENDROOT
BRANCH   9  22
ATOM     22  S   UNL     1      -6.462  11.310  18.283  0.00  0.00    +0.000 S 
ATOM     23  O   UNL     1      -7.093  10.076  18.711  0.00  0.00    +0.000 OA
ATOM     24  O   UNL     1      -7.124  12.206  17.354  0.00  0.00    +0.000 OA
BRANCH  22  25
ATOM     25  C   UNL     1      -4.843  10.924  17.674  0.00  0.00    +0.000 A 
ATOM     26  C   UNL     1      -4.288  11.701  16.652  0.00  0.00    +0.000 A 
ATOM     27  C   UNL     1      -3.036  11.365  16.138  0.00  0.00    +0.000 A 
ATOM     28  C   UNL     1      -2.339  10.272  16.655  0.00  0.00    +0.000 A 
ATOM     29  C   UNL     1      -2.880   9.524  17.703  0.00  0.00    +0.000 A 
ATOM     30  C   UNL     1      -4.132   9.853  18.222  0.00  0.00    +0.000 A 
ENDBRANCH  22  25
ENDBRANCH   9  22
TORSDOF 2
ENDMDL
MODEL 8
REMARK VINA RESULT:      -7.1      3.357      5.680
REMARK  Name = 
REMARK  3 active torsions:
REMARK  status: ('A' for Active; 'I' for Inactive)
REMARK    1  A    between atoms: C_1  and  C_2
REMARK    2  A    between atoms: C_9  and  S_10
REMARK    3  A    between atoms: S_10  and  C_13
REMARK                            x       y       z     vdW  Elec       q    Type
REMARK                         _______ _______ _______ _____ _____    ______ ____
ROOT
ATOM      1  C   UNL     1       0.711   8.162  21.412  0.00  0.00    +0.000 C 
ATOM      2  C   UNL     1       0.530   9.672  21.538  0.00  0.00    +0.000 C 
ATOM      3  C   UNL     1      -0.590   9.986  22.538  0.00  0.00    +0.000 C 
ATOM      4  C   UNL     1      -0.849  11.483  22.608  0.00  0.00    +0.000 C 
ATOM      5  N   UNL     1      -1.155  11.981  21.273  0.00  0.00    +0.000 N 
ATOM      6  C   UNL     1      -2.264  12.760  21.020  0.00  0.00    +0.000 A 
ATOM      7  N   UNL     1      -3.231  12.275  20.279  0.00  0.00    +0.000 NA
ATOM      8  C   UNL     1      -4.350  13.036  20.105  0.00  0.00    +0.000 A 
ATOM      9  C   UNL     1      -5.560  12.859  19.460  0.00  0.00    +0.000 A 
ATOM     10  N   UNL     1      -6.365  13.959  19.649  0.00  0.00    +0.000 NA
ATOM     11  N   UNL     1      -5.695  14.831  20.393  0.00  0.00    +0.000 NA
ATOM     12  N   UNL     1      -4.494  14.288  20.669  0.00  0.00    +0.000 N 
ATOM     13  C   UNL     1      -3.503  14.884  21.451  0.00  0.00    +0.000 A 
ATOM     14  C   UNL     1      -3.645  16.151  22.022  0.00  0.00    +0.000 A 
ATOM     15  C   UNL     1      -2.591  16.671  22.778  0.00  0.00    +0.000 A 
ATOM     16  C   UNL     1      -1.412  15.939  22.934  0.00  0.00    +0.000 A 
ATOM     17 CL   UNL     1      -0.116  16.580  23.867  0.00  0.00    +0.000 Cl
ATOM     18  C   UNL     1      -1.272  14.684  22.348  0.00  0.00    +0.000 A 
ATOM     19  C   UNL     1      -2.335  14.136  21.627  0.00  0.00    +0.000 A 
ATOM     20  C   UNL     1      -0.127  11.779  20.260  0.00  0.00    +0.000 C 
ATOM     21  C   UNL     1       0.237  10.300  20.164  0.00  0.00    +0.000 C 
ENDROOT
BRANCH   9  22
ATOM     22  S   UNL     1      -6.082  11.456  18.612  0.00  0.00    +0.000 S 
ATOM     23  O   UNL     1      -6.301  10.442  19.625  0.00  0.00    +0.000 OA
ATOM     24  O   UNL     1      -7.157  11.885  17.737  0.00  0.00    +0.000 OA
BRANCH  22  25
ATOM     25  C   UNL     1      -4.687  10.970  17.632  0.00  0.00    +0.000 A 
ATOM     26  C   UNL     1      -3.848   9.947  18.087  0.00  0.00    +0.000 A 
ATOM     27  C   UNL     1      -2.722   9.601  17.339  0.00  0.00    +0.000 A 
ATOM     28  C   UNL     1      -2.450  10.261  16.141  0.00  0.00    +0.000 A 
ATOM     29  C   UNL     1      -3.312  11.254  15.672  0.00  0.00    +0.000 A 
ATOM     30  C   UNL     1      -4.440  11.606  16.412  0.00  0.00    +0.000 A 
ENDBRANCH  22  25
ENDBRANCH   9  22
TORSDOF 2
ENDMDL
MODEL 9
REMARK VINA RESULT:      -7.0      2.840      5.527
REMARK  Name = 
REMARK  3 active torsions:
REMARK  status: ('A' for Active; 'I' for Inactive)
REMARK    1  A    between atoms: C_1  and  C_2
REMARK    2  A    between atoms: C_9  and  S_10
REMARK    3  A    between atoms: S_10  and  C_13
REMARK                            x       y       z     vdW  Elec       q    Type
REMARK                         _______ _______ _______ _____ _____    ______ ____
ROOT
ATOM      1  C   UNL     1      -1.357  15.257  24.905  0.00  0.00    +0.000 C 
ATOM      2  C   UNL     1      -2.298  15.041  23.723  0.00  0.00    +0.000 C 
ATOM      3  C   UNL     1      -2.804  13.592  23.712  0.00  0.00    +0.000 C 
ATOM      4  C   UNL     1      -3.670  13.331  22.489  0.00  0.00    +0.000 C 
ATOM      5  N   UNL     1      -2.912  13.652  21.286  0.00  0.00    +0.000 N 
ATOM      6  C   UNL     1      -2.812  12.773  20.229  0.00  0.00    +0.000 A 
ATOM      7  N   UNL     1      -1.648  12.237  19.952  0.00  0.00    +0.000 NA
ATOM      8  C   UNL     1      -1.589  11.314  18.949  0.00  0.00    +0.000 A 
ATOM      9  C   UNL     1      -0.594  10.518  18.412  0.00  0.00    +0.000 A 
ATOM     10  N   UNL     1      -1.110   9.714  17.422  0.00  0.00    +0.000 NA
ATOM     11  N   UNL     1      -2.406   9.983  17.313  0.00  0.00    +0.000 NA
ATOM     12  N   UNL     1      -2.698  10.934  18.220  0.00  0.00    +0.000 N 
ATOM     13  C   UNL     1      -3.968  11.474  18.438  0.00  0.00    +0.000 A 
ATOM     14  C   UNL     1      -5.091  11.093  17.701  0.00  0.00    +0.000 A 
ATOM     15  C   UNL     1      -6.318  11.700  17.984  0.00  0.00    +0.000 A 
ATOM     16  C   UNL     1      -6.403  12.686  18.969  0.00  0.00    +0.000 A 
ATOM     17 CL   UNL     1      -7.915  13.430  19.316  0.00  0.00    +0.000 Cl
ATOM     18  C   UNL     1      -5.275  13.071  19.687  0.00  0.00    +0.000 A 
ATOM     19  C   UNL     1      -4.053  12.440  19.444  0.00  0.00    +0.000 A 
ATOM     20  C   UNL     1      -2.433  15.024  21.176  0.00  0.00    +0.000 C 
ATOM     21  C   UNL     1      -1.596  15.391  22.399  0.00  0.00    +0.000 C 
ENDROOT
BRANCH   9  22
ATOM     22  S   UNL     1       1.046  10.427  18.927  0.00  0.00    +0.000 S 
ATOM     23  O   UNL     1       1.025   9.701  20.182  0.00  0.00    +0.000 OA
ATOM     24  O   UNL     1       1.804   9.938  17.791  0.00  0.00    +0.000 OA
BRANCH  22  25
ATOM     25  C   UNL     1       1.511  12.105  19.264  0.00  0.00    +0.000 A 
ATOM     26  C   UNL     1       1.763  12.976  18.200  0.00  0.00    +0.000 A 
ATOM     27  C   UNL     1       2.179  14.281  18.468  0.00  0.00    +0.000 A 
ATOM     28  C   UNL     1       2.323  14.712  19.787  0.00  0.00    +0.000 A 
ATOM     29  C   UNL     1       2.030  13.849  20.845  0.00  0.00    +0.000 A 
ATOM     30  C   UNL     1       1.615  12.544  20.587  0.00  0.00    +0.000 A 
ENDBRANCH  22  25
ENDBRANCH   9  22
TORSDOF 2
ENDMDL
