MODEL 1
REMARK VINA RESULT:      -7.7      0.000      0.000
REMARK  Name = 
REMARK  6 active torsions:
REMARK  status: ('A' for Active; 'I' for Inactive)
REMARK    1  A    between atoms: C_2  and  C_3
REMARK    2  A    between atoms: C_2  and  C_24
REMARK    3  A    between atoms: C_3  and  S_15
REMARK    4  A    between atoms: C_4  and  C_5
REMARK    5  A    between atoms: S_15  and  C_16
REMARK    6  A    between atoms: C_16  and  C_17
REMARK                            x       y       z     vdW  Elec       q    Type
REMARK                         _______ _______ _______ _____ _____    ______ ____
ROOT
ATOM      1  C   UNL     1      -0.214  10.662  18.655  0.00  0.00    +0.000 C 
ATOM      2  C   UNL     1      -1.252  10.162  17.961  0.00  0.00    +0.000 C 
ENDROOT
BRANCH   2   3
ATOM      3  C   UNL     1      -2.347  10.819  17.320  0.00  0.00    +0.000 A 
ATOM      4  C   UNL     1      -2.590  10.725  15.967  0.00  0.00    +0.000 A 
ATOM      5  N   UNL     1      -3.809  11.300  15.718  0.00  0.00    +0.000 N 
ATOM      6  C   UNL     1      -4.394  11.706  16.897  0.00  0.00    +0.000 A 
ATOM      7  C   UNL     1      -5.664  12.253  17.125  0.00  0.00    +0.000 A 
ATOM      8  C   UNL     1      -6.005  12.563  18.443  0.00  0.00    +0.000 A 
ATOM      9  C   UNL     1      -5.099  12.350  19.479  0.00  0.00    +0.000 A 
ATOM     10 CL   UNL     1      -5.553  12.751  21.094  0.00  0.00    +0.000 Cl
ATOM     11  C   UNL     1      -3.830  11.807  19.239  0.00  0.00    +0.000 A 
ATOM     12  C   UNL     1      -3.474  11.459  17.921  0.00  0.00    +0.000 A 
ATOM     13  H   UNL     1      -4.251  11.356  14.810  0.00  0.00    +0.000 HD
ENDBRANCH   2   3
BRANCH   1  15
ATOM     14  O   UNL     1       0.528  12.920  18.223  0.00  0.00    +0.000 OA
ATOM     15  C   UNL     1      -0.084  12.151  18.963  0.00  0.00    +0.000 C 
BRANCH  15  16
ATOM     16  C   UNL     1      -0.640  12.705  20.245  0.00  0.00    +0.000 A 
ATOM     17  C   UNL     1      -0.712  11.951  21.425  0.00  0.00    +0.000 A 
ATOM     18  C   UNL     1      -1.014  12.565  22.644  0.00  0.00    +0.000 A 
ATOM     19  C   UNL     1      -1.341  13.918  22.672  0.00  0.00    +0.000 A 
ATOM     20 BR   UNL     1      -1.682  14.762  24.328  0.00  0.00    +0.000 Br
ATOM     21  C   UNL     1      -1.401  14.651  21.487  0.00  0.00    +0.000 A 
ATOM     22  C   UNL     1      -1.048  14.046  20.275  0.00  0.00    +0.000 A 
ENDBRANCH  15  16
ENDBRANCH   1  15
BRANCH   1  23
ATOM     23  S   UNL     1       1.074   9.632  19.258  0.00  0.00    +0.000 S 
BRANCH  23  24
ATOM     24  C   UNL     1       1.975   8.980  17.838  0.00  0.00    +0.000 C 
BRANCH  24  25
ATOM     25  C   UNL     1       2.691   7.704  18.230  0.00  0.00    +0.000 A 
ATOM     26  C   UNL     1       2.335   7.019  19.407  0.00  0.00    +0.000 A 
ATOM     27  C   UNL     1       3.016   5.861  19.787  0.00  0.00    +0.000 A 
ATOM     28  C   UNL     1       4.059   5.389  18.999  0.00  0.00    +0.000 A 
ATOM     29  F   UNL     1       4.710   4.278  19.364  0.00  0.00    +0.000 F 
ATOM     30  C   UNL     1       4.439   6.059  17.843  0.00  0.00    +0.000 A 
ATOM     31  C   UNL     1       3.760   7.218  17.459  0.00  0.00    +0.000 A 
ENDBRANCH  24  25
ENDBRANCH  23  24
ENDBRANCH   1  23
TORSDOF 6
ENDMDL
MODEL 2
REMARK VINA RESULT:      -7.6      0.730      1.403
REMARK  Name = 
REMARK  6 active torsions:
REMARK  status: ('A' for Active; 'I' for Inactive)
REMARK    1  A    between atoms: C_2  and  C_3
REMARK    2  A    between atoms: C_2  and  C_24
REMARK    3  A    between atoms: C_3  and  S_15
REMARK    4  A    between atoms: C_4  and  C_5
REMARK    5  A    between atoms: S_15  and  C_16
REMARK    6  A    between atoms: C_16  and  C_17
REMARK                            x       y       z     vdW  Elec       q    Type
REMARK                         _______ _______ _______ _____ _____    ______ ____
ROOT
ATOM      1  C   UNL     1      -0.201  10.485  18.626  0.00  0.00    +0.000 C 
ATOM      2  C   UNL     1      -1.239  10.042  17.894  0.00  0.00    +0.000 C 
ENDROOT
BRANCH   2   3
ATOM      3  C   UNL     1      -2.313  10.754  17.276  0.00  0.00    +0.000 A 
ATOM      4  C   UNL     1      -2.538  10.742  15.916  0.00  0.00    +0.000 A 
ATOM      5  N   UNL     1      -3.743  11.350  15.684  0.00  0.00    +0.000 N 
ATOM      6  C   UNL     1      -4.340  11.697  16.876  0.00  0.00    +0.000 A 
ATOM      7  C   UNL     1      -5.604  12.251  17.116  0.00  0.00    +0.000 A 
ATOM      8  C   UNL     1      -5.960  12.490  18.445  0.00  0.00    +0.000 A 
ATOM      9  C   UNL     1      -5.073  12.203  19.481  0.00  0.00    +0.000 A 
ATOM     10 CL   UNL     1      -5.546  12.518  21.109  0.00  0.00    +0.000 Cl
ATOM     11  C   UNL     1      -3.810  11.654  19.228  0.00  0.00    +0.000 A 
ATOM     12  C   UNL     1      -3.439  11.376  17.897  0.00  0.00    +0.000 A 
ATOM     13  H   UNL     1      -4.171  11.465  14.774  0.00  0.00    +0.000 HD
ENDBRANCH   2   3
BRANCH   1  15
ATOM     14  O   UNL     1       0.650  12.731  18.370  0.00  0.00    +0.000 OA
ATOM     15  C   UNL     1      -0.050  11.952  19.017  0.00  0.00    +0.000 C 
BRANCH  15  16
ATOM     16  C   UNL     1      -0.697  12.467  20.272  0.00  0.00    +0.000 A 
ATOM     17  C   UNL     1      -1.256  13.749  20.363  0.00  0.00    +0.000 A 
ATOM     18  C   UNL     1      -2.048  14.104  21.459  0.00  0.00    +0.000 A 
ATOM     19  C   UNL     1      -2.203  13.210  22.515  0.00  0.00    +0.000 A 
ATOM     20 BR   UNL     1      -3.328  13.663  23.965  0.00  0.00    +0.000 Br
ATOM     21  C   UNL     1      -1.545  11.981  22.498  0.00  0.00    +0.000 A 
ATOM     22  C   UNL     1      -0.795  11.608  21.376  0.00  0.00    +0.000 A 
ENDBRANCH  15  16
ENDBRANCH   1  15
BRANCH   1  23
ATOM     23  S   UNL     1       1.060   9.400  19.188  0.00  0.00    +0.000 S 
BRANCH  23  24
ATOM     24  C   UNL     1       2.200   9.118  17.820  0.00  0.00    +0.000 C 
BRANCH  24  25
ATOM     25  C   UNL     1       2.727   7.699  17.879  0.00  0.00    +0.000 A 
ATOM     26  C   UNL     1       4.021   7.399  17.414  0.00  0.00    +0.000 A 
ATOM     27  C   UNL     1       4.497   6.086  17.437  0.00  0.00    +0.000 A 
ATOM     28  C   UNL     1       3.678   5.069  17.915  0.00  0.00    +0.000 A 
ATOM     29  F   UNL     1       4.136   3.811  17.938  0.00  0.00    +0.000 F 
ATOM     30  C   UNL     1       2.392   5.340  18.363  0.00  0.00    +0.000 A 
ATOM     31  C   UNL     1       1.913   6.652  18.341  0.00  0.00    +0.000 A 
ENDBRANCH  24  25
ENDBRANCH  23  24
ENDBRANCH   1  23
TORSDOF 6
ENDMDL
MODEL 3
REMARK VINA RESULT:      -7.6      4.437      6.812
REMARK  Name = 
REMARK  6 active torsions:
REMARK  status: ('A' for Active; 'I' for Inactive)
REMARK    1  A    between atoms: C_2  and  C_3
REMARK    2  A    between atoms: C_2  and  C_24
REMARK    3  A    between atoms: C_3  and  S_15
REMARK    4  A    between atoms: C_4  and  C_5
REMARK    5  A    between atoms: S_15  and  C_16
REMARK    6  A    between atoms: C_16  and  C_17
REMARK                            x       y       z     vdW  Elec       q    Type
REMARK                         _______ _______ _______ _____ _____    ______ ____
ROOT
ATOM      1  C   UNL     1       0.352  12.058  20.199  0.00  0.00    +0.000 C 
ATOM      2  C   UNL     1      -0.659  12.803  19.716  0.00  0.00    +0.000 C 
ENDROOT
BRANCH   2   3
ATOM      3  C   UNL     1      -2.047  12.499  19.563  0.00  0.00    +0.000 A 
ATOM      4  C   UNL     1      -3.017  12.968  20.422  0.00  0.00    +0.000 A 
ATOM      5  N   UNL     1      -4.239  12.664  19.883  0.00  0.00    +0.000 N 
ATOM      6  C   UNL     1      -4.082  12.064  18.652  0.00  0.00    +0.000 A 
ATOM      7  C   UNL     1      -5.048  11.673  17.716  0.00  0.00    +0.000 A 
ATOM      8  C   UNL     1      -4.597  11.094  16.528  0.00  0.00    +0.000 A 
ATOM      9  C   UNL     1      -3.235  10.900  16.305  0.00  0.00    +0.000 A 
ATOM     10 CL   UNL     1      -2.717  10.175  14.829  0.00  0.00    +0.000 Cl
ATOM     11  C   UNL     1      -2.278  11.291  17.251  0.00  0.00    +0.000 A 
ATOM     12  C   UNL     1      -2.708  11.904  18.445  0.00  0.00    +0.000 A 
ATOM     13  H   UNL     1      -5.133  12.906  20.292  0.00  0.00    +0.000 HD
ENDBRANCH   2   3
BRANCH   1  15
ATOM     14  O   UNL     1      -0.489  10.289  21.610  0.00  0.00    +0.000 OA
ATOM     15  C   UNL     1       0.163  10.603  20.615  0.00  0.00    +0.000 C 
BRANCH  15  16
ATOM     16  C   UNL     1       0.853   9.506  19.853  0.00  0.00    +0.000 A 
ATOM     17  C   UNL     1       1.085   9.576  18.472  0.00  0.00    +0.000 A 
ATOM     18  C   UNL     1       1.928   8.655  17.845  0.00  0.00    +0.000 A 
ATOM     19  C   UNL     1       2.464   7.601  18.579  0.00  0.00    +0.000 A 
ATOM     20 BR   UNL     1       3.658   6.394  17.747  0.00  0.00    +0.000 Br
ATOM     21  C   UNL     1       2.137   7.443  19.926  0.00  0.00    +0.000 A 
ATOM     22  C   UNL     1       1.335   8.397  20.563  0.00  0.00    +0.000 A 
ENDBRANCH  15  16
ENDBRANCH   1  15
BRANCH   1  23
ATOM     23  S   UNL     1       1.971  12.712  20.383  0.00  0.00    +0.000 S 
BRANCH  23  24
ATOM     24  C   UNL     1       1.820  14.459  20.807  0.00  0.00    +0.000 C 
BRANCH  24  25
ATOM     25  C   UNL     1       2.107  15.307  19.586  0.00  0.00    +0.000 A 
ATOM     26  C   UNL     1       1.292  16.412  19.277  0.00  0.00    +0.000 A 
ATOM     27  C   UNL     1       1.534  17.175  18.133  0.00  0.00    +0.000 A 
ATOM     28  C   UNL     1       2.586  16.833  17.291  0.00  0.00    +0.000 A 
ATOM     29  F   UNL     1       2.819  17.567  16.196  0.00  0.00    +0.000 F 
ATOM     30  C   UNL     1       3.393  15.737  17.567  0.00  0.00    +0.000 A 
ATOM     31  C   UNL     1       3.153  14.970  18.710  0.00  0.00    +0.000 A 
ENDBRANCH  24  25
ENDBRANCH  23  24
ENDBRANCH   1  23
TORSDOF 6
ENDMDL
MODEL 4
REMARK VINA RESULT:      -7.6      8.078     10.527
REMARK  Name = 
REMARK  6 active torsions:
REMARK  status: ('A' for Active; 'I' for Inactive)
REMARK    1  A    between atoms: C_2  and  C_3
REMARK    2  A    between atoms: C_2  and  C_24
REMARK    3  A    between atoms: C_3  and  S_15
REMARK    4  A    between atoms: C_4  and  C_5
REMARK    5  A    between atoms: S_15  and  C_16
REMARK    6  A    between atoms: C_16  and  C_17
REMARK                            x       y       z     vdW  Elec       q    Type
REMARK                         _______ _______ _______ _____ _____    ______ ____
ROOT
ATOM      1  C   UNL     1       6.554   6.213  18.261  0.00  0.00    +0.000 C 
ATOM      2  C   UNL     1       6.117   5.396  19.237  0.00  0.00    +0.000 C 
ENDROOT
BRANCH   2   3
ATOM      3  C   UNL     1       4.995   4.512  19.277  0.00  0.00    +0.000 A 
ATOM      4  C   UNL     1       5.110   3.147  19.129  0.00  0.00    +0.000 A 
ATOM      5  N   UNL     1       3.892   2.589  19.416  0.00  0.00    +0.000 N 
ATOM      6  C   UNL     1       3.004   3.563  19.816  0.00  0.00    +0.000 A 
ATOM      7  C   UNL     1       1.690   3.437  20.285  0.00  0.00    +0.000 A 
ATOM      8  C   UNL     1       1.017   4.609  20.638  0.00  0.00    +0.000 A 
ATOM      9  C   UNL     1       1.636   5.851  20.503  0.00  0.00    +0.000 A 
ATOM     10 CL   UNL     1       0.772   7.277  20.942  0.00  0.00    +0.000 Cl
ATOM     11  C   UNL     1       2.949   5.964  20.027  0.00  0.00    +0.000 A 
ATOM     12  C   UNL     1       3.658   4.793  19.692  0.00  0.00    +0.000 A 
ATOM     13  H   UNL     1       3.690   1.597  19.406  0.00  0.00    +0.000 HD
ENDBRANCH   2   3
BRANCH   1  15
ATOM     14  O   UNL     1       4.941   7.276  16.814  0.00  0.00    +0.000 OA
ATOM     15  C   UNL     1       5.790   6.398  16.954  0.00  0.00    +0.000 C 
BRANCH  15  16
ATOM     16  C   UNL     1       6.002   5.439  15.816  0.00  0.00    +0.000 A 
ATOM     17  C   UNL     1       5.065   4.455  15.473  0.00  0.00    +0.000 A 
ATOM     18  C   UNL     1       5.188   3.742  14.276  0.00  0.00    +0.000 A 
ATOM     19  C   UNL     1       6.302   3.942  13.467  0.00  0.00    +0.000 A 
ATOM     20 BR   UNL     1       6.434   3.028  11.817  0.00  0.00    +0.000 Br
ATOM     21  C   UNL     1       7.309   4.822  13.861  0.00  0.00    +0.000 A 
ATOM     22  C   UNL     1       7.158   5.573  15.033  0.00  0.00    +0.000 A 
ENDBRANCH  15  16
ENDBRANCH   1  15
BRANCH   1  23
ATOM     23  S   UNL     1       8.043   7.129  18.425  0.00  0.00    +0.000 S 
BRANCH  23  24
ATOM     24  C   UNL     1       7.861   8.657  17.484  0.00  0.00    +0.000 C 
BRANCH  24  25
ATOM     25  C   UNL     1       8.533   9.795  18.224  0.00  0.00    +0.000 A 
ATOM     26  C   UNL     1       9.087   9.587  19.500  0.00  0.00    +0.000 A 
ATOM     27  C   UNL     1       9.677  10.643  20.198  0.00  0.00    +0.000 A 
ATOM     28  C   UNL     1       9.709  11.910  19.627  0.00  0.00    +0.000 A 
ATOM     29  F   UNL     1      10.276  12.921  20.296  0.00  0.00    +0.000 F 
ATOM     30  C   UNL     1       9.153  12.141  18.375  0.00  0.00    +0.000 A 
ATOM     31  C   UNL     1       8.562  11.088  17.674  0.00  0.00    +0.000 A 
ENDBRANCH  24  25
ENDBRANCH  23  24
ENDBRANCH   1  23
TORSDOF 6
ENDMDL
MODEL 5
REMARK VINA RESULT:      -7.5      8.827     11.177
REMARK  Name = 
REMARK  6 active torsions:
REMARK  status: ('A' for Active; 'I' for Inactive)
REMARK    1  A    between atoms: C_2  and  C_3
REMARK    2  A    between atoms: C_2  and  C_24
REMARK    3  A    between atoms: C_3  and  S_15
REMARK    4  A    between atoms: C_4  and  C_5
REMARK    5  A    between atoms: S_15  and  C_16
REMARK    6  A    between atoms: C_16  and  C_17
REMARK                            x       y       z     vdW  Elec       q    Type
REMARK                         _______ _______ _______ _____ _____    ______ ____
ROOT
ATOM      1  C   UNL     1       6.864   6.362  18.136  0.00  0.00    +0.000 C 
ATOM      2  C   UNL     1       5.600   6.687  18.462  0.00  0.00    +0.000 C 
ENDROOT
BRANCH   2   3
ATOM      3  C   UNL     1       4.393   5.926  18.381  0.00  0.00    +0.000 A 
ATOM      4  C   UNL     1       3.329   6.289  17.585  0.00  0.00    +0.000 A 
ATOM      5  N   UNL     1       2.431   5.255  17.587  0.00  0.00    +0.000 N 
ATOM      6  C   UNL     1       2.924   4.196  18.316  0.00  0.00    +0.000 A 
ATOM      7  C   UNL     1       2.389   2.915  18.509  0.00  0.00    +0.000 A 
ATOM      8  C   UNL     1       3.120   2.024  19.296  0.00  0.00    +0.000 A 
ATOM      9  C   UNL     1       4.324   2.415  19.880  0.00  0.00    +0.000 A 
ATOM     10 CL   UNL     1       5.195   1.289  20.852  0.00  0.00    +0.000 Cl
ATOM     11  C   UNL     1       4.846   3.700  19.685  0.00  0.00    +0.000 A 
ATOM     12  C   UNL     1       4.140   4.608  18.870  0.00  0.00    +0.000 A 
ATOM     13  H   UNL     1       1.560   5.239  17.069  0.00  0.00    +0.000 HD
ENDBRANCH   2   3
BRANCH   1  15
ATOM     14  O   UNL     1       7.938   4.202  18.041  0.00  0.00    +0.000 OA
ATOM     15  C   UNL     1       7.218   5.029  17.484  0.00  0.00    +0.000 C 
BRANCH  15  16
ATOM     16  C   UNL     1       6.755   4.728  16.086  0.00  0.00    +0.000 A 
ATOM     17  C   UNL     1       7.391   5.250  14.951  0.00  0.00    +0.000 A 
ATOM     18  C   UNL     1       7.081   4.766  13.677  0.00  0.00    +0.000 A 
ATOM     19  C   UNL     1       6.064   3.829  13.524  0.00  0.00    +0.000 A 
ATOM     20 BR   UNL     1       5.691   3.126  11.809  0.00  0.00    +0.000 Br
ATOM     21  C   UNL     1       5.333   3.398  14.631  0.00  0.00    +0.000 A 
ATOM     22  C   UNL     1       5.680   3.845  15.912  0.00  0.00    +0.000 A 
ENDBRANCH  15  16
ENDBRANCH   1  15
BRANCH   1  23
ATOM     23  S   UNL     1       8.204   7.457  18.437  0.00  0.00    +0.000 S 
BRANCH  23  24
ATOM     24  C   UNL     1       7.851   9.012  17.594  0.00  0.00    +0.000 C 
BRANCH  24  25
ATOM     25  C   UNL     1       8.597  10.142  18.273  0.00  0.00    +0.000 A 
ATOM     26  C   UNL     1       9.237   9.932  19.508  0.00  0.00    +0.000 A 
ATOM     27  C   UNL     1       9.897  10.981  20.152  0.00  0.00    +0.000 A 
ATOM     28  C   UNL     1       9.913  12.242  19.568  0.00  0.00    +0.000 A 
ATOM     29  F   UNL     1      10.547  13.246  20.185  0.00  0.00    +0.000 F 
ATOM     30  C   UNL     1       9.273  12.476  18.357  0.00  0.00    +0.000 A 
ATOM     31  C   UNL     1       8.611  11.429  17.711  0.00  0.00    +0.000 A 
ENDBRANCH  24  25
ENDBRANCH  23  24
ENDBRANCH   1  23
TORSDOF 6
ENDMDL
MODEL 6
REMARK VINA RESULT:      -7.5      7.776      9.948
REMARK  Name = 
REMARK  6 active torsions:
REMARK  status: ('A' for Active; 'I' for Inactive)
REMARK    1  A    between atoms: C_2  and  C_3
REMARK    2  A    between atoms: C_2  and  C_24
REMARK    3  A    between atoms: C_3  and  S_15
REMARK    4  A    between atoms: C_4  and  C_5
REMARK    5  A    between atoms: S_15  and  C_16
REMARK    6  A    between atoms: C_16  and  C_17
REMARK                            x       y       z     vdW  Elec       q    Type
REMARK                         _______ _______ _______ _____ _____    ______ ____
ROOT
ATOM      1  C   UNL     1       5.904   4.434  16.591  0.00  0.00    +0.000 C 
ATOM      2  C   UNL     1       4.715   3.813  16.492  0.00  0.00    +0.000 C 
ENDROOT
BRANCH   2   3
ATOM      3  C   UNL     1       3.759   3.468  17.496  0.00  0.00    +0.000 A 
ATOM      4  C   UNL     1       3.538   2.171  17.909  0.00  0.00    +0.000 A 
ATOM      5  N   UNL     1       2.718   2.213  19.004  0.00  0.00    +0.000 N 
ATOM      6  C   UNL     1       2.455   3.519  19.355  0.00  0.00    +0.000 A 
ATOM      7  C   UNL     1       1.746   4.027  20.452  0.00  0.00    +0.000 A 
ATOM      8  C   UNL     1       1.648   5.415  20.568  0.00  0.00    +0.000 A 
ATOM      9  C   UNL     1       2.220   6.250  19.611  0.00  0.00    +0.000 A 
ATOM     10 CL   UNL     1       2.072   7.959  19.784  0.00  0.00    +0.000 Cl
ATOM     11  C   UNL     1       2.922   5.730  18.516  0.00  0.00    +0.000 A 
ATOM     12  C   UNL     1       3.060   4.333  18.392  0.00  0.00    +0.000 A 
ATOM     13  H   UNL     1       2.405   1.405  19.528  0.00  0.00    +0.000 HD
ENDBRANCH   2   3
BRANCH   1  15
ATOM     14  O   UNL     1       6.518   4.053  18.895  0.00  0.00    +0.000 OA
ATOM     15  C   UNL     1       6.507   4.824  17.937  0.00  0.00    +0.000 C 
BRANCH  15  16
ATOM     16  C   UNL     1       7.033   6.216  18.150  0.00  0.00    +0.000 A 
ATOM     17  C   UNL     1       8.048   6.507  19.073  0.00  0.00    +0.000 A 
ATOM     18  C   UNL     1       8.668   7.760  19.076  0.00  0.00    +0.000 A 
ATOM     19  C   UNL     1       8.209   8.758  18.222  0.00  0.00    +0.000 A 
ATOM     20 BR   UNL     1       9.092  10.430  18.179  0.00  0.00    +0.000 Br
ATOM     21  C   UNL     1       7.114   8.524  17.391  0.00  0.00    +0.000 A 
ATOM     22  C   UNL     1       6.529   7.253  17.352  0.00  0.00    +0.000 A 
ENDBRANCH  15  16
ENDBRANCH   1  15
BRANCH   1  23
ATOM     23  S   UNL     1       6.852   4.841  15.170  0.00  0.00    +0.000 S 
BRANCH  23  24
ATOM     24  C   UNL     1       5.719   5.019  13.778  0.00  0.00    +0.000 C 
BRANCH  24  25
ATOM     25  C   UNL     1       5.895   3.855  12.825  0.00  0.00    +0.000 A 
ATOM     26  C   UNL     1       7.182   3.447  12.430  0.00  0.00    +0.000 A 
ATOM     27  C   UNL     1       7.346   2.396  11.525  0.00  0.00    +0.000 A 
ATOM     28  C   UNL     1       6.226   1.757  11.006  0.00  0.00    +0.000 A 
ATOM     29  F   UNL     1       6.384   0.748  10.140  0.00  0.00    +0.000 F 
ATOM     30  C   UNL     1       4.946   2.155  11.369  0.00  0.00    +0.000 A 
ATOM     31  C   UNL     1       4.778   3.206  12.274  0.00  0.00    +0.000 A 
ENDBRANCH  24  25
ENDBRANCH  23  24
ENDBRANCH   1  23
TORSDOF 6
ENDMDL
MODEL 7
REMARK VINA RESULT:      -7.3      2.959      4.582
REMARK  Name = 
REMARK  6 active torsions:
REMARK  status: ('A' for Active; 'I' for Inactive)
REMARK    1  A    between atoms: C_2  and  C_3
REMARK    2  A    between atoms: C_2  and  C_24
REMARK    3  A    between atoms: C_3  and  S_15
REMARK    4  A    between atoms: C_4  and  C_5
REMARK    5  A    between atoms: S_15  and  C_16
REMARK    6  A    between atoms: C_16  and  C_17
REMARK                            x       y       z     vdW  Elec       q    Type
REMARK                         _______ _______ _______ _____ _____    ______ ____
ROOT
ATOM      1  C   UNL     1      -0.600  10.476  21.678  0.00  0.00    +0.000 C 
ATOM      2  C   UNL     1      -1.301  11.111  22.635  0.00  0.00    +0.000 C 
ENDROOT
BRANCH   2   3
ATOM      3  C   UNL     1      -1.756  12.463  22.713  0.00  0.00    +0.000 A 
ATOM      4  C   UNL     1      -0.973  13.493  23.187  0.00  0.00    +0.000 A 
ATOM      5  N   UNL     1      -1.631  14.668  22.942  0.00  0.00    +0.000 N 
ATOM      6  C   UNL     1      -2.801  14.427  22.255  0.00  0.00    +0.000 A 
ATOM      7  C   UNL     1      -3.731  15.330  21.725  0.00  0.00    +0.000 A 
ATOM      8  C   UNL     1      -4.834  14.799  21.054  0.00  0.00    +0.000 A 
ATOM      9  C   UNL     1      -5.001  13.420  20.943  0.00  0.00    +0.000 A 
ATOM     10 CL   UNL     1      -6.380  12.801  20.114  0.00  0.00    +0.000 Cl
ATOM     11  C   UNL     1      -4.067  12.526  21.482  0.00  0.00    +0.000 A 
ATOM     12  C   UNL     1      -2.930  13.039  22.138  0.00  0.00    +0.000 A 
ATOM     13  H   UNL     1      -1.280  15.591  23.168  0.00  0.00    +0.000 HD
ENDBRANCH   2   3
BRANCH   1  15
ATOM     14  O   UNL     1       0.909  11.959  20.514  0.00  0.00    +0.000 OA
ATOM     15  C   UNL     1      -0.059  11.204  20.450  0.00  0.00    +0.000 C 
BRANCH  15  16
ATOM     16  C   UNL     1      -0.764  11.075  19.129  0.00  0.00    +0.000 A 
ATOM     17  C   UNL     1      -0.486  10.043  18.222  0.00  0.00    +0.000 A 
ATOM     18  C   UNL     1      -1.317   9.823  17.119  0.00  0.00    +0.000 A 
ATOM     19  C   UNL     1      -2.372  10.694  16.867  0.00  0.00    +0.000 A 
ATOM     20 BR   UNL     1      -3.536  10.357  15.415  0.00  0.00    +0.000 Br
ATOM     21  C   UNL     1      -2.581  11.803  17.687  0.00  0.00    +0.000 A 
ATOM     22  C   UNL     1      -1.780  11.991  18.820  0.00  0.00    +0.000 A 
ENDBRANCH  15  16
ENDBRANCH   1  15
BRANCH   1  23
ATOM     23  S   UNL     1      -0.254   8.757  21.775  0.00  0.00    +0.000 S 
BRANCH  23  24
ATOM     24  C   UNL     1       1.528   8.538  21.605  0.00  0.00    +0.000 C 
BRANCH  24  25
ATOM     25  C   UNL     1       1.817   7.542  20.501  0.00  0.00    +0.000 A 
ATOM     26  C   UNL     1       2.173   7.987  19.215  0.00  0.00    +0.000 A 
ATOM     27  C   UNL     1       2.408   7.072  18.187  0.00  0.00    +0.000 A 
ATOM     28  C   UNL     1       2.278   5.711  18.439  0.00  0.00    +0.000 A 
ATOM     29  F   UNL     1       2.505   4.834  17.453  0.00  0.00    +0.000 F 
ATOM     30  C   UNL     1       1.911   5.250  19.697  0.00  0.00    +0.000 A 
ATOM     31  C   UNL     1       1.675   6.163  20.727  0.00  0.00    +0.000 A 
ENDBRANCH  24  25
ENDBRANCH  23  24
ENDBRANCH   1  23
TORSDOF 6
ENDMDL
MODEL 8
REMARK VINA RESULT:      -7.3      2.876      4.772
REMARK  Name = 
REMARK  6 active torsions:
REMARK  status: ('A' for Active; 'I' for Inactive)
REMARK    1  A    between atoms: C_2  and  C_3
REMARK    2  A    between atoms: C_2  and  C_24
REMARK    3  A    between atoms: C_3  and  S_15
REMARK    4  A    between atoms: C_4  and  C_5
REMARK    5  A    between atoms: S_15  and  C_16
REMARK    6  A    between atoms: C_16  and  C_17
REMARK                            x       y       z     vdW  Elec       q    Type
REMARK                         _______ _______ _______ _____ _____    ______ ____
ROOT
ATOM      1  C   UNL     1       0.948   9.754  20.239  0.00  0.00    +0.000 C 
ATOM      2  C   UNL     1       1.243  10.779  21.059  0.00  0.00    +0.000 C 
ENDROOT
BRANCH   2   3
ATOM      3  C   UNL     1       1.147  12.191  20.856  0.00  0.00    +0.000 A 
ATOM      4  C   UNL     1       1.821  12.852  19.853  0.00  0.00    +0.000 A 
ATOM      5  N   UNL     1       1.360  14.141  19.815  0.00  0.00    +0.000 N 
ATOM      6  C   UNL     1       0.346  14.312  20.731  0.00  0.00    +0.000 A 
ATOM      7  C   UNL     1      -0.468  15.427  20.969  0.00  0.00    +0.000 A 
ATOM      8  C   UNL     1      -1.440  15.315  21.965  0.00  0.00    +0.000 A 
ATOM      9  C   UNL     1      -1.570  14.139  22.701  0.00  0.00    +0.000 A 
ATOM     10 CL   UNL     1      -2.777  14.039  23.928  0.00  0.00    +0.000 Cl
ATOM     11  C   UNL     1      -0.747  13.031  22.457  0.00  0.00    +0.000 A 
ATOM     12  C   UNL     1       0.222  13.111  21.437  0.00  0.00    +0.000 A 
ATOM     13  H   UNL     1       1.666  14.850  19.160  0.00  0.00    +0.000 HD
ENDBRANCH   2   3
BRANCH   1  15
ATOM     14  O   UNL     1       1.303   9.947  17.858  0.00  0.00    +0.000 OA
ATOM     15  C   UNL     1       0.506   9.970  18.795  0.00  0.00    +0.000 C 
BRANCH  15  16
ATOM     16  C   UNL     1      -0.927  10.308  18.490  0.00  0.00    +0.000 A 
ATOM     17  C   UNL     1      -1.670  11.213  19.260  0.00  0.00    +0.000 A 
ATOM     18  C   UNL     1      -2.912  11.675  18.813  0.00  0.00    +0.000 A 
ATOM     19  C   UNL     1      -3.458  11.158  17.642  0.00  0.00    +0.000 A 
ATOM     20 BR   UNL     1      -5.105  11.832  17.003  0.00  0.00    +0.000 Br
ATOM     21  C   UNL     1      -2.789  10.160  16.934  0.00  0.00    +0.000 A 
ATOM     22  C   UNL     1      -1.522   9.738  17.356  0.00  0.00    +0.000 A 
ENDBRANCH  15  16
ENDBRANCH   1  15
BRANCH   1  23
ATOM     23  S   UNL     1       1.054   8.085  20.776  0.00  0.00    +0.000 S 
BRANCH  23  24
ATOM     24  C   UNL     1       2.335   7.270  19.803  0.00  0.00    +0.000 C 
BRANCH  24  25
ATOM     25  C   UNL     1       1.917   5.846  19.500  0.00  0.00    +0.000 A 
ATOM     26  C   UNL     1       1.439   5.010  20.526  0.00  0.00    +0.000 A 
ATOM     27  C   UNL     1       1.084   3.686  20.255  0.00  0.00    +0.000 A 
ATOM     28  C   UNL     1       1.214   3.193  18.962  0.00  0.00    +0.000 A 
ATOM     29  F   UNL     1       0.872   1.925  18.703  0.00  0.00    +0.000 F 
ATOM     30  C   UNL     1       1.700   3.996  17.937  0.00  0.00    +0.000 A 
ATOM     31  C   UNL     1       2.056   5.320  18.205  0.00  0.00    +0.000 A 
ENDBRANCH  24  25
ENDBRANCH  23  24
ENDBRANCH   1  23
TORSDOF 6
ENDMDL
MODEL 9
REMARK VINA RESULT:      -7.3      4.551      7.051
REMARK  Name = 
REMARK  6 active torsions:
REMARK  status: ('A' for Active; 'I' for Inactive)
REMARK    1  A    between atoms: C_2  and  C_3
REMARK    2  A    between atoms: C_2  and  C_24
REMARK    3  A    between atoms: C_3  and  S_15
REMARK    4  A    between atoms: C_4  and  C_5
REMARK    5  A    between atoms: S_15  and  C_16
REMARK    6  A    between atoms: C_16  and  C_17
REMARK                            x       y       z     vdW  Elec       q    Type
REMARK                         _______ _______ _______ _____ _____    ______ ____
ROOT
ATOM      1  C   UNL     1       0.520  12.172  19.753  0.00  0.00    +0.000 C 
ATOM      2  C   UNL     1      -0.535  12.755  19.156  0.00  0.00    +0.000 C 
ENDROOT
BRANCH   2   3
ATOM      3  C   UNL     1      -1.909  12.367  19.108  0.00  0.00    +0.000 A 
ATOM      4  C   UNL     1      -2.836  12.766  20.046  0.00  0.00    +0.000 A 
ATOM      5  N   UNL     1      -4.075  12.390  19.601  0.00  0.00    +0.000 N 
ATOM      6  C   UNL     1      -3.978  11.811  18.354  0.00  0.00    +0.000 A 
ATOM      7  C   UNL     1      -4.989  11.367  17.492  0.00  0.00    +0.000 A 
ATOM      8  C   UNL     1      -4.599  10.828  16.265  0.00  0.00    +0.000 A 
ATOM      9  C   UNL     1      -3.249  10.722  15.933  0.00  0.00    +0.000 A 
ATOM     10 CL   UNL     1      -2.805  10.044  14.412  0.00  0.00    +0.000 Cl
ATOM     11  C   UNL     1      -2.247  11.164  16.806  0.00  0.00    +0.000 A 
ATOM     12  C   UNL     1      -2.618  11.740  18.038  0.00  0.00    +0.000 A 
ATOM     13  H   UNL     1      -4.947  12.572  20.082  0.00  0.00    +0.000 HD
ENDBRANCH   2   3
BRANCH   1  15
ATOM     14  O   UNL     1      -0.221  10.696  21.514  0.00  0.00    +0.000 OA
ATOM     15  C   UNL     1       0.410  10.828  20.467  0.00  0.00    +0.000 C 
BRANCH  15  16
ATOM     16  C   UNL     1       1.154   9.633  19.940  0.00  0.00    +0.000 A 
ATOM     17  C   UNL     1       1.494   8.539  20.747  0.00  0.00    +0.000 A 
ATOM     18  C   UNL     1       1.973   7.356  20.176  0.00  0.00    +0.000 A 
ATOM     19  C   UNL     1       2.207   7.298  18.805  0.00  0.00    +0.000 A 
ATOM     20 BR   UNL     1       2.791   5.678  18.025  0.00  0.00    +0.000 Br
ATOM     21  C   UNL     1       1.998   8.422  18.008  0.00  0.00    +0.000 A 
ATOM     22  C   UNL     1       1.468   9.588  18.574  0.00  0.00    +0.000 A 
ENDBRANCH  15  16
ENDBRANCH   1  15
BRANCH   1  23
ATOM     23  S   UNL     1       2.109  12.921  19.752  0.00  0.00    +0.000 S 
BRANCH  23  24
ATOM     24  C   UNL     1       1.951  14.560  20.487  0.00  0.00    +0.000 C 
BRANCH  24  25
ATOM     25  C   UNL     1       1.813  15.598  19.393  0.00  0.00    +0.000 A 
ATOM     26  C   UNL     1       2.884  15.860  18.519  0.00  0.00    +0.000 A 
ATOM     27  C   UNL     1       2.771  16.840  17.531  0.00  0.00    +0.000 A 
ATOM     28  C   UNL     1       1.591  17.567  17.418  0.00  0.00    +0.000 A 
ATOM     29  F   UNL     1       1.483  18.505  16.470  0.00  0.00    +0.000 F 
ATOM     30  C   UNL     1       0.527  17.337  18.281  0.00  0.00    +0.000 A 
ATOM     31  C   UNL     1       0.637  16.358  19.271  0.00  0.00    +0.000 A 
ENDBRANCH  24  25
ENDBRANCH  23  24
ENDBRANCH   1  23
TORSDOF 6
ENDMDL
