MODEL 1
REMARK VINA RESULT:      -8.2      0.000      0.000
REMARK  Name = 
REMARK  6 active torsions:
REMARK  status: ('A' for Active; 'I' for Inactive)
REMARK    1  A    between atoms: C_1  and  O_2
REMARK    2  A    between atoms: O_2  and  C_3
REMARK    3  A    between atoms: C_8  and  O_9
REMARK    4  A    between atoms: O_9  and  C_10
REMARK    5  A    between atoms: C_11  and  C_12
REMARK    6  A    between atoms: N_14  and  C_15
REMARK                            x       y       z     vdW  Elec       q    Type
REMARK                         _______ _______ _______ _____ _____    ______ ____
ROOT
ATOM      1  C   UNL     1      -4.391  12.876  22.868  0.00  0.00    +0.000 A 
ATOM      2  C   UNL     1      -3.134  13.432  23.139  0.00  0.00    +0.000 A 
ATOM      3  C   UNL     1      -2.165  13.586  22.132  0.00  0.00    +0.000 A 
ATOM      4  C   UNL     1      -2.421  13.132  20.836  0.00  0.00    +0.000 A 
ATOM      5  C   UNL     1      -3.688  12.591  20.560  0.00  0.00    +0.000 A 
ATOM      6  C   UNL     1      -4.678  12.472  21.553  0.00  0.00    +0.000 A 
ATOM      7  C   UNL     1      -1.369  13.229  19.745  0.00  0.00    +0.000 C 
ATOM      8  C   UNL     1      -0.360  14.357  20.040  0.00  0.00    +0.000 C 
ATOM      9  C   UNL     1       0.931  14.526  19.252  0.00  0.00    +0.000 A 
ATOM     10  C   UNL     1       1.803  13.530  18.840  0.00  0.00    +0.000 A 
ATOM     11  C   UNL     1       2.967  13.843  18.134  0.00  0.00    +0.000 A 
ATOM     12  C   UNL     1       3.253  15.168  17.814  0.00  0.00    +0.000 A 
ATOM     13  C   UNL     1       2.500  16.184  18.387  0.00  0.00    +0.000 A 
ATOM     14  C   UNL     1       1.450  15.832  19.235  0.00  0.00    +0.000 A 
ATOM     15  C   UNL     1       1.091  16.669  20.454  0.00  0.00    +0.000 C 
ATOM     16  C   UNL     1       0.979  15.683  21.662  0.00  0.00    +0.000 C 
ATOM     17  N   UNL     1      -0.069  14.657  21.442  0.00  0.00    +0.000 N 
ATOM     18  C   UNL     1      -0.902  14.301  22.476  0.00  0.00    +0.000 C 
ATOM     19  O   UNL     1      -0.669  14.581  23.654  0.00  0.00    +0.000 OA
ENDROOT
BRANCH   7  20
ATOM     20  C   UNL     1      -0.763  11.891  19.348  0.00  0.00    +0.000 C 
ATOM     21  O   UNL     1      -0.947  11.452  18.211  0.00  0.00    +0.000 OA
ATOM     22  N   UNL     1      -0.018  11.242  20.314  0.00  0.00    +0.000 N 
ATOM     23  H   UNL     1      -0.271  11.420  21.278  0.00  0.00    +0.000 HD
BRANCH  22  24
ATOM     24  C   UNL     1       0.669  10.035  20.055  0.00  0.00    +0.000 A 
ATOM     25  C   UNL     1       0.766   9.103  21.086  0.00  0.00    +0.000 A 
ATOM     26  C   UNL     1       1.395   7.872  20.860  0.00  0.00    +0.000 A 
ATOM     27  C   UNL     1       2.002   7.616  19.633  0.00  0.00    +0.000 A 
ATOM     28  C   UNL     1       1.996   8.585  18.638  0.00  0.00    +0.000 A 
ATOM     29  C   UNL     1       1.273   9.766  18.820  0.00  0.00    +0.000 A 
ATOM     30  O   UNL     1       2.674   8.454  17.447  0.00  0.00    +0.000 OA
ATOM     31  C   UNL     1       3.617   7.378  17.522  0.00  0.00    +0.000 C 
ATOM     32  C   UNL     1       2.945   6.149  18.110  0.00  0.00    +0.000 C 
ATOM     33  O   UNL     1       2.597   6.391  19.482  0.00  0.00    +0.000 OA
ENDBRANCH  22  24
ENDBRANCH   7  20
BRANCH   1  35
ATOM     34  C   UNL     1      -6.422  13.614  23.907  0.00  0.00    +0.000 C 
ATOM     35  O   UNL     1      -5.342  12.691  23.835  0.00  0.00    +0.000 OA
ENDBRANCH   1  35
BRANCH   6  36
ATOM     36  O   UNL     1      -5.846  11.954  21.055  0.00  0.00    +0.000 OA
ATOM     37  C   UNL     1      -6.249  12.296  19.736  0.00  0.00    +0.000 C 
ENDBRANCH   6  36
TORSDOF 4
ENDMDL
MODEL 2
REMARK VINA RESULT:      -8.1      0.777      1.361
REMARK  Name = 
REMARK  6 active torsions:
REMARK  status: ('A' for Active; 'I' for Inactive)
REMARK    1  A    between atoms: C_1  and  O_2
REMARK    2  A    between atoms: O_2  and  C_3
REMARK    3  A    between atoms: C_8  and  O_9
REMARK    4  A    between atoms: O_9  and  C_10
REMARK    5  A    between atoms: C_11  and  C_12
REMARK    6  A    between atoms: N_14  and  C_15
REMARK                            x       y       z     vdW  Elec       q    Type
REMARK                         _______ _______ _______ _____ _____    ______ ____
ROOT
ATOM      1  C   UNL     1      -4.199  12.766  22.664  0.00  0.00    +0.000 A 
ATOM      2  C   UNL     1      -2.938  13.306  22.951  0.00  0.00    +0.000 A 
ATOM      3  C   UNL     1      -1.984  13.523  21.942  0.00  0.00    +0.000 A 
ATOM      4  C   UNL     1      -2.258  13.148  20.624  0.00  0.00    +0.000 A 
ATOM      5  C   UNL     1      -3.529  12.624  20.333  0.00  0.00    +0.000 A 
ATOM      6  C   UNL     1      -4.505  12.443  21.331  0.00  0.00    +0.000 A 
ATOM      7  C   UNL     1      -1.222  13.314  19.526  0.00  0.00    +0.000 C 
ATOM      8  C   UNL     1      -0.209  14.423  19.875  0.00  0.00    +0.000 C 
ATOM      9  C   UNL     1       1.070  14.641  19.080  0.00  0.00    +0.000 A 
ATOM     10  C   UNL     1       1.937  13.674  18.596  0.00  0.00    +0.000 A 
ATOM     11  C   UNL     1       3.090  14.031  17.893  0.00  0.00    +0.000 A 
ATOM     12  C   UNL     1       3.371  15.373  17.651  0.00  0.00    +0.000 A 
ATOM     13  C   UNL     1       2.625  16.351  18.296  0.00  0.00    +0.000 A 
ATOM     14  C   UNL     1       1.588  15.947  19.135  0.00  0.00    +0.000 A 
ATOM     15  C   UNL     1       1.247  16.707  20.409  0.00  0.00    +0.000 C 
ATOM     16  C   UNL     1       1.153  15.648  21.555  0.00  0.00    +0.000 C 
ATOM     17  N   UNL     1       0.101  14.637  21.288  0.00  0.00    +0.000 N 
ATOM     18  C   UNL     1      -0.716  14.217  22.310  0.00  0.00    +0.000 C 
ATOM     19  O   UNL     1      -0.467  14.425  23.499  0.00  0.00    +0.000 OA
ENDROOT
BRANCH   7  20
ATOM     20  C   UNL     1      -0.622  12.003  19.039  0.00  0.00    +0.000 C 
ATOM     21  O   UNL     1      -0.873  11.603  17.901  0.00  0.00    +0.000 OA
ATOM     22  N   UNL     1       0.197  11.334  19.927  0.00  0.00    +0.000 N 
ATOM     23  H   UNL     1       0.006  11.471  20.913  0.00  0.00    +0.000 HD
BRANCH  22  24
ATOM     24  C   UNL     1       0.886  10.151  19.578  0.00  0.00    +0.000 A 
ATOM     25  C   UNL     1       1.438  10.067  18.302  0.00  0.00    +0.000 A 
ATOM     26  C   UNL     1       2.172   8.934  17.930  0.00  0.00    +0.000 A 
ATOM     27  C   UNL     1       2.274   7.853  18.803  0.00  0.00    +0.000 A 
ATOM     28  C   UNL     1       1.637   7.893  20.036  0.00  0.00    +0.000 A 
ATOM     29  C   UNL     1       1.001   9.064  20.455  0.00  0.00    +0.000 A 
ATOM     30  O   UNL     1       1.591   6.823  20.902  0.00  0.00    +0.000 OA
ATOM     31  C   UNL     1       1.980   5.618  20.231  0.00  0.00    +0.000 C 
ATOM     32  C   UNL     1       3.259   5.859  19.448  0.00  0.00    +0.000 C 
ATOM     33  O   UNL     1       3.009   6.779  18.373  0.00  0.00    +0.000 OA
ENDBRANCH  22  24
ENDBRANCH   7  20
BRANCH   1  35
ATOM     34  C   UNL     1      -4.693  12.347  24.972  0.00  0.00    +0.000 C 
ATOM     35  O   UNL     1      -5.135  12.521  23.631  0.00  0.00    +0.000 OA
ENDBRANCH   1  35
BRANCH   6  36
ATOM     36  O   UNL     1      -5.680  11.955  20.820  0.00  0.00    +0.000 OA
ATOM     37  C   UNL     1      -6.340  12.679  19.791  0.00  0.00    +0.000 C 
ENDBRANCH   6  36
TORSDOF 4
ENDMDL
MODEL 3
REMARK VINA RESULT:      -7.7      1.517      2.108
REMARK  Name = 
REMARK  6 active torsions:
REMARK  status: ('A' for Active; 'I' for Inactive)
REMARK    1  A    between atoms: C_1  and  O_2
REMARK    2  A    between atoms: O_2  and  C_3
REMARK    3  A    between atoms: C_8  and  O_9
REMARK    4  A    between atoms: O_9  and  C_10
REMARK    5  A    between atoms: C_11  and  C_12
REMARK    6  A    between atoms: N_14  and  C_15
REMARK                            x       y       z     vdW  Elec       q    Type
REMARK                         _______ _______ _______ _____ _____    ______ ____
ROOT
ATOM      1  C   UNL     1      -2.782  13.843  23.567  0.00  0.00    +0.000 A 
ATOM      2  C   UNL     1      -1.615  14.618  23.536  0.00  0.00    +0.000 A 
ATOM      3  C   UNL     1      -0.729  14.569  22.446  0.00  0.00    +0.000 A 
ATOM      4  C   UNL     1      -0.970  13.694  21.384  0.00  0.00    +0.000 A 
ATOM      5  C   UNL     1      -2.149  12.931  21.407  0.00  0.00    +0.000 A 
ATOM      6  C   UNL     1      -3.063  13.005  22.475  0.00  0.00    +0.000 A 
ATOM      7  C   UNL     1       0.004  13.576  20.224  0.00  0.00    +0.000 C 
ATOM      8  C   UNL     1       0.838  14.862  20.061  0.00  0.00    +0.000 C 
ATOM      9  C   UNL     1       2.051  14.940  19.145  0.00  0.00    +0.000 A 
ATOM     10  C   UNL     1       3.047  13.989  18.983  0.00  0.00    +0.000 A 
ATOM     11  C   UNL     1       4.115  14.211  18.110  0.00  0.00    +0.000 A 
ATOM     12  C   UNL     1       4.177  15.390  17.371  0.00  0.00    +0.000 A 
ATOM     13  C   UNL     1       3.303  16.427  17.668  0.00  0.00    +0.000 A 
ATOM     14  C   UNL     1       2.360  16.228  18.675  0.00  0.00    +0.000 A 
ATOM     15  C   UNL     1       1.931  17.356  19.604  0.00  0.00    +0.000 C 
ATOM     16  C   UNL     1       2.028  16.802  21.062  0.00  0.00    +0.000 C 
ATOM     17  N   UNL     1       1.142  15.631  21.269  0.00  0.00    +0.000 N 
ATOM     18  C   UNL     1       0.423  15.518  22.434  0.00  0.00    +0.000 C 
ATOM     19  O   UNL     1       0.662  16.188  23.440  0.00  0.00    +0.000 OA
ENDROOT
BRANCH   7  20
ATOM     20  C   UNL     1       0.791  12.274  20.207  0.00  0.00    +0.000 C 
ATOM     21  O   UNL     1       1.585  12.029  21.116  0.00  0.00    +0.000 OA
ATOM     22  N   UNL     1       0.548  11.423  19.146  0.00  0.00    +0.000 N 
ATOM     23  H   UNL     1       0.256  11.852  18.277  0.00  0.00    +0.000 HD
BRANCH  22  24
ATOM     24  C   UNL     1       1.145  10.146  19.048  0.00  0.00    +0.000 A 
ATOM     25  C   UNL     1       1.759   9.800  17.846  0.00  0.00    +0.000 A 
ATOM     26  C   UNL     1       2.407   8.566  17.720  0.00  0.00    +0.000 A 
ATOM     27  C   UNL     1       2.360   7.646  18.765  0.00  0.00    +0.000 A 
ATOM     28  C   UNL     1       1.660   7.947  19.926  0.00  0.00    +0.000 A 
ATOM     29  C   UNL     1       1.111   9.220  20.098  0.00  0.00    +0.000 A 
ATOM     30  O   UNL     1       1.468   7.049  20.951  0.00  0.00    +0.000 OA
ATOM     31  C   UNL     1       1.783   5.720  20.519  0.00  0.00    +0.000 C 
ATOM     32  C   UNL     1       3.121   5.720  19.800  0.00  0.00    +0.000 C 
ATOM     33  O   UNL     1       3.017   6.459  18.573  0.00  0.00    +0.000 OA
ENDBRANCH  22  24
ENDBRANCH   7  20
BRANCH   1  35
ATOM     34  C   UNL     1      -3.335  14.671  25.749  0.00  0.00    +0.000 C 
ATOM     35  O   UNL     1      -3.648  13.853  24.627  0.00  0.00    +0.000 OA
ENDBRANCH   1  35
BRANCH   6  36
ATOM     36  O   UNL     1      -4.158  12.205  22.272  0.00  0.00    +0.000 OA
ATOM     37  C   UNL     1      -5.262  12.717  21.538  0.00  0.00    +0.000 C 
ENDBRANCH   6  36
TORSDOF 4
ENDMDL
MODEL 4
REMARK VINA RESULT:      -7.7      2.737      7.127
REMARK  Name = 
REMARK  6 active torsions:
REMARK  status: ('A' for Active; 'I' for Inactive)
REMARK    1  A    between atoms: C_1  and  O_2
REMARK    2  A    between atoms: O_2  and  C_3
REMARK    3  A    between atoms: C_8  and  O_9
REMARK    4  A    between atoms: O_9  and  C_10
REMARK    5  A    between atoms: C_11  and  C_12
REMARK    6  A    between atoms: N_14  and  C_15
REMARK                            x       y       z     vdW  Elec       q    Type
REMARK                         _______ _______ _______ _____ _____    ______ ____
ROOT
ATOM      1  C   UNL     1       1.713   7.694  20.192  0.00  0.00    +0.000 A 
ATOM      2  C   UNL     1       1.092   8.265  21.311  0.00  0.00    +0.000 A 
ATOM      3  C   UNL     1       0.610   9.586  21.289  0.00  0.00    +0.000 A 
ATOM      4  C   UNL     1       0.790  10.381  20.155  0.00  0.00    +0.000 A 
ATOM      5  C   UNL     1       1.396   9.801  19.027  0.00  0.00    +0.000 A 
ATOM      6  C   UNL     1       1.845   8.468  19.027  0.00  0.00    +0.000 A 
ATOM      7  C   UNL     1       0.334  11.829  20.127  0.00  0.00    +0.000 C 
ATOM      8  C   UNL     1      -0.807  12.076  21.134  0.00  0.00    +0.000 C 
ATOM      9  C   UNL     1      -1.292  13.472  21.495  0.00  0.00    +0.000 A 
ATOM     10  C   UNL     1      -0.518  14.597  21.734  0.00  0.00    +0.000 A 
ATOM     11  C   UNL     1      -1.110  15.816  22.074  0.00  0.00    +0.000 A 
ATOM     12  C   UNL     1      -2.497  15.919  22.155  0.00  0.00    +0.000 A 
ATOM     13  C   UNL     1      -3.268  14.764  22.115  0.00  0.00    +0.000 A 
ATOM     14  C   UNL     1      -2.620  13.541  21.951  0.00  0.00    +0.000 A 
ATOM     15  C   UNL     1      -3.118  12.274  22.631  0.00  0.00    +0.000 C 
ATOM     16  C   UNL     1      -1.882  11.619  23.329  0.00  0.00    +0.000 C 
ATOM     17  N   UNL     1      -0.819  11.270  22.356  0.00  0.00    +0.000 N 
ATOM     18  C   UNL     1      -0.150  10.076  22.476  0.00  0.00    +0.000 C 
ATOM     19  O   UNL     1      -0.186   9.385  23.496  0.00  0.00    +0.000 OA
ENDROOT
BRANCH   7  20
ATOM     20  C   UNL     1       1.473  12.838  20.162  0.00  0.00    +0.000 C 
ATOM     21  O   UNL     1       2.197  12.906  21.157  0.00  0.00    +0.000 OA
ATOM     22  N   UNL     1       1.630  13.627  19.039  0.00  0.00    +0.000 N 
ATOM     23  H   UNL     1       0.795  13.821  18.500  0.00  0.00    +0.000 HD
BRANCH  22  24
ATOM     24  C   UNL     1       2.695  14.546  18.903  0.00  0.00    +0.000 A 
ATOM     25  C   UNL     1       2.392  15.905  18.899  0.00  0.00    +0.000 A 
ATOM     26  C   UNL     1       3.420  16.852  18.817  0.00  0.00    +0.000 A 
ATOM     27  C   UNL     1       4.738  16.434  18.646  0.00  0.00    +0.000 A 
ATOM     28  C   UNL     1       5.031  15.080  18.545  0.00  0.00    +0.000 A 
ATOM     29  C   UNL     1       4.024  14.133  18.741  0.00  0.00    +0.000 A 
ATOM     30  O   UNL     1       6.287  14.595  18.258  0.00  0.00    +0.000 OA
ATOM     31  C   UNL     1       7.130  15.644  17.765  0.00  0.00    +0.000 C 
ATOM     32  C   UNL     1       7.014  16.860  18.668  0.00  0.00    +0.000 C 
ATOM     33  O   UNL     1       5.693  17.415  18.574  0.00  0.00    +0.000 OA
ENDBRANCH  22  24
ENDBRANCH   7  20
BRANCH   1  35
ATOM     34  C   UNL     1       1.323   5.342  20.457  0.00  0.00    +0.000 C 
ATOM     35  O   UNL     1       2.215   6.420  20.196  0.00  0.00    +0.000 OA
ENDBRANCH   1  35
BRANCH   6  36
ATOM     36  O   UNL     1       2.368   8.101  17.814  0.00  0.00    +0.000 OA
ATOM     37  C   UNL     1       3.685   7.569  17.761  0.00  0.00    +0.000 C 
ENDBRANCH   6  36
TORSDOF 4
ENDMDL
MODEL 5
REMARK VINA RESULT:      -7.7      1.246      1.376
REMARK  Name = 
REMARK  6 active torsions:
REMARK  status: ('A' for Active; 'I' for Inactive)
REMARK    1  A    between atoms: C_1  and  O_2
REMARK    2  A    between atoms: O_2  and  C_3
REMARK    3  A    between atoms: C_8  and  O_9
REMARK    4  A    between atoms: O_9  and  C_10
REMARK    5  A    between atoms: C_11  and  C_12
REMARK    6  A    between atoms: N_14  and  C_15
REMARK                            x       y       z     vdW  Elec       q    Type
REMARK                         _______ _______ _______ _____ _____    ______ ____
ROOT
ATOM      1  C   UNL     1      -3.494  14.219  23.167  0.00  0.00    +0.000 A 
ATOM      2  C   UNL     1      -2.342  15.017  23.161  0.00  0.00    +0.000 A 
ATOM      3  C   UNL     1      -1.365  14.890  22.159  0.00  0.00    +0.000 A 
ATOM      4  C   UNL     1      -1.500  13.916  21.166  0.00  0.00    +0.000 A 
ATOM      5  C   UNL     1      -2.664  13.128  21.162  0.00  0.00    +0.000 A 
ATOM      6  C   UNL     1      -3.666  13.278  22.139  0.00  0.00    +0.000 A 
ATOM      7  C   UNL     1      -0.429  13.716  20.108  0.00  0.00    +0.000 C 
ATOM      8  C   UNL     1       0.394  15.002  19.895  0.00  0.00    +0.000 C 
ATOM      9  C   UNL     1       1.679  15.025  19.079  0.00  0.00    +0.000 A 
ATOM     10  C   UNL     1       2.701  14.089  19.090  0.00  0.00    +0.000 A 
ATOM     11  C   UNL     1       3.835  14.256  18.293  0.00  0.00    +0.000 A 
ATOM     12  C   UNL     1       3.941  15.363  17.454  0.00  0.00    +0.000 A 
ATOM     13  C   UNL     1       3.026  16.401  17.579  0.00  0.00    +0.000 A 
ATOM     14  C   UNL     1       2.005  16.272  18.519  0.00  0.00    +0.000 A 
ATOM     15  C   UNL     1       1.480  17.470  19.299  0.00  0.00    +0.000 C 
ATOM     16  C   UNL     1       1.461  17.054  20.806  0.00  0.00    +0.000 C 
ATOM     17  N   UNL     1       0.581  15.885  21.046  0.00  0.00    +0.000 N 
ATOM     18  C   UNL     1      -0.233  15.862  22.153  0.00  0.00    +0.000 C 
ATOM     19  O   UNL     1      -0.091  16.627  23.109  0.00  0.00    +0.000 OA
ENDROOT
BRANCH   7  20
ATOM     20  C   UNL     1       0.378  12.438  20.278  0.00  0.00    +0.000 C 
ATOM     21  O   UNL     1       1.135  12.318  21.242  0.00  0.00    +0.000 OA
ATOM     22  N   UNL     1       0.197  11.463  19.315  0.00  0.00    +0.000 N 
ATOM     23  H   UNL     1      -0.063  11.781  18.390  0.00  0.00    +0.000 HD
BRANCH  22  24
ATOM     24  C   UNL     1       0.818  10.196  19.394  0.00  0.00    +0.000 A 
ATOM     25  C   UNL     1       0.742   9.503  20.600  0.00  0.00    +0.000 A 
ATOM     26  C   UNL     1       1.299   8.223  20.709  0.00  0.00    +0.000 A 
ATOM     27  C   UNL     1       2.009   7.681  19.640  0.00  0.00    +0.000 A 
ATOM     28  C   UNL     1       2.175   8.413  18.472  0.00  0.00    +0.000 A 
ATOM     29  C   UNL     1       1.524   9.640  18.320  0.00  0.00    +0.000 A 
ATOM     30  O   UNL     1       2.960   7.997  17.420  0.00  0.00    +0.000 OA
ATOM     31  C   UNL     1       3.810   6.917  17.825  0.00  0.00    +0.000 C 
ATOM     32  C   UNL     1       2.994   5.877  18.573  0.00  0.00    +0.000 C 
ATOM     33  O   UNL     1       2.526   6.424  19.816  0.00  0.00    +0.000 OA
ENDBRANCH  22  24
ENDBRANCH   7  20
BRANCH   1  35
ATOM     34  C   UNL     1      -5.446  15.312  24.032  0.00  0.00    +0.000 C 
ATOM     35  O   UNL     1      -4.447  14.305  24.146  0.00  0.00    +0.000 OA
ENDBRANCH   1  35
BRANCH   6  36
ATOM     36  O   UNL     1      -4.726  12.436  21.921  0.00  0.00    +0.000 OA
ATOM     37  C   UNL     1      -5.725  12.809  20.982  0.00  0.00    +0.000 C 
ENDBRANCH   6  36
TORSDOF 4
ENDMDL
MODEL 6
REMARK VINA RESULT:      -7.5      1.052      1.210
REMARK  Name = 
REMARK  6 active torsions:
REMARK  status: ('A' for Active; 'I' for Inactive)
REMARK    1  A    between atoms: C_1  and  O_2
REMARK    2  A    between atoms: O_2  and  C_3
REMARK    3  A    between atoms: C_8  and  O_9
REMARK    4  A    between atoms: O_9  and  C_10
REMARK    5  A    between atoms: C_11  and  C_12
REMARK    6  A    between atoms: N_14  and  C_15
REMARK                            x       y       z     vdW  Elec       q    Type
REMARK                         _______ _______ _______ _____ _____    ______ ____
ROOT
ATOM      1  C   UNL     1      -5.511  12.921  23.244  0.00  0.00    +0.000 A 
ATOM      2  C   UNL     1      -4.307  13.568  23.553  0.00  0.00    +0.000 A 
ATOM      3  C   UNL     1      -3.324  13.797  22.575  0.00  0.00    +0.000 A 
ATOM      4  C   UNL     1      -3.508  13.330  21.271  0.00  0.00    +0.000 A 
ATOM      5  C   UNL     1      -4.723  12.697  20.958  0.00  0.00    +0.000 A 
ATOM      6  C   UNL     1      -5.730  12.501  21.921  0.00  0.00    +0.000 A 
ATOM      7  C   UNL     1      -2.435  13.509  20.211  0.00  0.00    +0.000 C 
ATOM      8  C   UNL     1      -1.522  14.708  20.536  0.00  0.00    +0.000 C 
ATOM      9  C   UNL     1      -0.225  14.975  19.787  0.00  0.00    +0.000 A 
ATOM     10  C   UNL     1       0.730  14.048  19.398  0.00  0.00    +0.000 A 
ATOM     11  C   UNL     1       1.887  14.449  18.726  0.00  0.00    +0.000 A 
ATOM     12  C   UNL     1       2.083  15.793  18.417  0.00  0.00    +0.000 A 
ATOM     13  C   UNL     1       1.240  16.748  18.970  0.00  0.00    +0.000 A 
ATOM     14  C   UNL     1       0.196  16.316  19.786  0.00  0.00    +0.000 A 
ATOM     15  C   UNL     1      -0.259  17.119  20.996  0.00  0.00    +0.000 C 
ATOM     16  C   UNL     1      -0.332  16.123  22.198  0.00  0.00    +0.000 C 
ATOM     17  N   UNL     1      -1.295  15.023  21.947  0.00  0.00    +0.000 N 
ATOM     18  C   UNL     1      -2.128  14.603  22.956  0.00  0.00    +0.000 C 
ATOM     19  O   UNL     1      -1.950  14.895  24.140  0.00  0.00    +0.000 OA
ENDROOT
BRANCH   7  20
ATOM     20  C   UNL     1      -1.721  12.221  19.829  0.00  0.00    +0.000 C 
ATOM     21  O   UNL     1      -1.931  11.710  18.728  0.00  0.00    +0.000 OA
ATOM     22  N   UNL     1      -0.851  11.699  20.767  0.00  0.00    +0.000 N 
ATOM     23  H   UNL     1      -1.058  11.897  21.739  0.00  0.00    +0.000 HD
BRANCH  22  24
ATOM     24  C   UNL     1      -0.060  10.556  20.513  0.00  0.00    +0.000 A 
ATOM     25  C   UNL     1       0.195   9.687  21.572  0.00  0.00    +0.000 A 
ATOM     26  C   UNL     1       0.932   8.517  21.354  0.00  0.00    +0.000 A 
ATOM     27  C   UNL     1       1.487   8.266  20.102  0.00  0.00    +0.000 A 
ATOM     28  C   UNL     1       1.321   9.183  19.072  0.00  0.00    +0.000 A 
ATOM     29  C   UNL     1       0.492  10.292  19.253  0.00  0.00    +0.000 A 
ATOM     30  O   UNL     1       1.935   9.065  17.845  0.00  0.00    +0.000 OA
ATOM     31  C   UNL     1       2.986   8.094  17.901  0.00  0.00    +0.000 C 
ATOM     32  C   UNL     1       2.481   6.832  18.580  0.00  0.00    +0.000 C 
ATOM     33  O   UNL     1       2.194   7.101  19.961  0.00  0.00    +0.000 OA
ENDBRANCH  22  24
ENDBRANCH   7  20
BRANCH   1  35
ATOM     34  C   UNL     1      -7.529  13.602  24.347  0.00  0.00    +0.000 C 
ATOM     35  O   UNL     1      -6.473  12.663  24.183  0.00  0.00    +0.000 OA
ENDBRANCH   1  35
BRANCH   6  36
ATOM     36  O   UNL     1      -6.841  11.899  21.390  0.00  0.00    +0.000 OA
ATOM     37  C   UNL     1      -6.716  11.153  20.187  0.00  0.00    +0.000 C 
ENDBRANCH   6  36
TORSDOF 4
ENDMDL
MODEL 7
REMARK VINA RESULT:      -7.5      2.608      7.031
REMARK  Name = 
REMARK  6 active torsions:
REMARK  status: ('A' for Active; 'I' for Inactive)
REMARK    1  A    between atoms: C_1  and  O_2
REMARK    2  A    between atoms: O_2  and  C_3
REMARK    3  A    between atoms: C_8  and  O_9
REMARK    4  A    between atoms: O_9  and  C_10
REMARK    5  A    between atoms: C_11  and  C_12
REMARK    6  A    between atoms: N_14  and  C_15
REMARK                            x       y       z     vdW  Elec       q    Type
REMARK                         _______ _______ _______ _____ _____    ______ ____
ROOT
ATOM      1  C   UNL     1       1.692   8.031  20.327  0.00  0.00    +0.000 A 
ATOM      2  C   UNL     1       1.126   8.754  21.386  0.00  0.00    +0.000 A 
ATOM      3  C   UNL     1       0.437   9.959  21.169  0.00  0.00    +0.000 A 
ATOM      4  C   UNL     1       0.347  10.494  19.881  0.00  0.00    +0.000 A 
ATOM      5  C   UNL     1       0.898   9.760  18.817  0.00  0.00    +0.000 A 
ATOM      6  C   UNL     1       1.554   8.532  19.022  0.00  0.00    +0.000 A 
ATOM      7  C   UNL     1      -0.338  11.825  19.627  0.00  0.00    +0.000 C 
ATOM      8  C   UNL     1      -1.374  12.140  20.725  0.00  0.00    +0.000 C 
ATOM      9  C   UNL     1      -2.032  13.505  20.861  0.00  0.00    +0.000 A 
ATOM     10  C   UNL     1      -1.428  14.747  20.743  0.00  0.00    +0.000 A 
ATOM     11  C   UNL     1      -2.165  15.922  20.913  0.00  0.00    +0.000 A 
ATOM     12  C   UNL     1      -3.530  15.856  21.182  0.00  0.00    +0.000 A 
ATOM     13  C   UNL     1      -4.102  14.631  21.499  0.00  0.00    +0.000 A 
ATOM     14  C   UNL     1      -3.288  13.499  21.492  0.00  0.00    +0.000 A 
ATOM     15  C   UNL     1      -3.488  12.364  22.486  0.00  0.00    +0.000 C 
ATOM     16  C   UNL     1      -2.087  12.053  23.105  0.00  0.00    +0.000 C 
ATOM     17  N   UNL     1      -1.107  11.637  22.073  0.00  0.00    +0.000 N 
ATOM     18  C   UNL     1      -0.243  10.600  22.332  0.00  0.00    +0.000 C 
ATOM     19  O   UNL     1      -0.043  10.159  23.465  0.00  0.00    +0.000 OA
ENDROOT
BRANCH   7  20
ATOM     20  C   UNL     1       0.617  12.957  19.279  0.00  0.00    +0.000 C 
ATOM     21  O   UNL     1       0.560  13.483  18.167  0.00  0.00    +0.000 OA
ATOM     22  N   UNL     1       1.506  13.337  20.267  0.00  0.00    +0.000 N 
ATOM     23  H   UNL     1       1.783  12.622  20.928  0.00  0.00    +0.000 HD
BRANCH  22  24
ATOM     24  C   UNL     1       2.391  14.428  20.110  0.00  0.00    +0.000 A 
ATOM     25  C   UNL     1       1.876  15.715  20.248  0.00  0.00    +0.000 A 
ATOM     26  C   UNL     1       2.726  16.823  20.151  0.00  0.00    +0.000 A 
ATOM     27  C   UNL     1       4.068  16.644  19.825  0.00  0.00    +0.000 A 
ATOM     28  C   UNL     1       4.561  15.368  19.586  0.00  0.00    +0.000 A 
ATOM     29  C   UNL     1       3.744  14.254  19.794  0.00  0.00    +0.000 A 
ATOM     30  O   UNL     1       5.842  15.119  19.146  0.00  0.00    +0.000 OA
ATOM     31  C   UNL     1       6.450  16.325  18.667  0.00  0.00    +0.000 C 
ATOM     32  C   UNL     1       6.237  17.441  19.674  0.00  0.00    +0.000 C 
ATOM     33  O   UNL     1       4.841  17.773  19.749  0.00  0.00    +0.000 OA
ENDBRANCH  22  24
ENDBRANCH   7  20
BRANCH   1  35
ATOM     34  C   UNL     1       1.670   5.643  20.542  0.00  0.00    +0.000 C 
ATOM     35  O   UNL     1       2.391   6.869  20.516  0.00  0.00    +0.000 OA
ENDBRANCH   1  35
BRANCH   6  36
ATOM     36  O   UNL     1       1.980   7.973  17.844  0.00  0.00    +0.000 OA
ATOM     37  C   UNL     1       3.373   7.803  17.623  0.00  0.00    +0.000 C 
ENDBRANCH   6  36
TORSDOF 4
ENDMDL
MODEL 8
REMARK VINA RESULT:      -7.5      1.289      1.421
REMARK  Name = 
REMARK  6 active torsions:
REMARK  status: ('A' for Active; 'I' for Inactive)
REMARK    1  A    between atoms: C_1  and  O_2
REMARK    2  A    between atoms: O_2  and  C_3
REMARK    3  A    between atoms: C_8  and  O_9
REMARK    4  A    between atoms: O_9  and  C_10
REMARK    5  A    between atoms: C_11  and  C_12
REMARK    6  A    between atoms: N_14  and  C_15
REMARK                            x       y       z     vdW  Elec       q    Type
REMARK                         _______ _______ _______ _____ _____    ______ ____
ROOT
ATOM      1  C   UNL     1      -4.020  13.828  21.642  0.00  0.00    +0.000 A 
ATOM      2  C   UNL     1      -2.921  14.669  21.860  0.00  0.00    +0.000 A 
ATOM      3  C   UNL     1      -1.760  14.580  21.072  0.00  0.00    +0.000 A 
ATOM      4  C   UNL     1      -1.659  13.602  20.079  0.00  0.00    +0.000 A 
ATOM      5  C   UNL     1      -2.768  12.772  19.849  0.00  0.00    +0.000 A 
ATOM      6  C   UNL     1      -3.950  12.882  20.605  0.00  0.00    +0.000 A 
ATOM      7  C   UNL     1      -0.392  13.444  19.255  0.00  0.00    +0.000 C 
ATOM      8  C   UNL     1       0.409  14.761  19.203  0.00  0.00    +0.000 C 
ATOM      9  C   UNL     1       1.828  14.833  18.658  0.00  0.00    +0.000 A 
ATOM     10  C   UNL     1       2.862  13.936  18.878  0.00  0.00    +0.000 A 
ATOM     11  C   UNL     1       4.125  14.147  18.321  0.00  0.00    +0.000 A 
ATOM     12  C   UNL     1       4.354  15.258  17.513  0.00  0.00    +0.000 A 
ATOM     13  C   UNL     1       3.395  16.260  17.448  0.00  0.00    +0.000 A 
ATOM     14  C   UNL     1       2.213  16.092  18.166  0.00  0.00    +0.000 A 
ATOM     15  C   UNL     1       1.499  17.268  18.819  0.00  0.00    +0.000 C 
ATOM     16  C   UNL     1       1.197  16.850  20.294  0.00  0.00    +0.000 C 
ATOM     17  N   UNL     1       0.330  15.649  20.363  0.00  0.00    +0.000 N 
ATOM     18  C   UNL     1      -0.686  15.593  21.286  0.00  0.00    +0.000 C 
ATOM     19  O   UNL     1      -0.766  16.362  22.246  0.00  0.00    +0.000 OA
ENDROOT
BRANCH   7  20
ATOM     20  C   UNL     1       0.412  12.197  19.590  0.00  0.00    +0.000 C 
ATOM     21  O   UNL     1       1.036  12.140  20.651  0.00  0.00    +0.000 OA
ATOM     22  N   UNL     1       0.381  11.176  18.659  0.00  0.00    +0.000 N 
ATOM     23  H   UNL     1       0.240  11.447  17.693  0.00  0.00    +0.000 HD
BRANCH  22  24
ATOM     24  C   UNL     1       1.013   9.932  18.879  0.00  0.00    +0.000 A 
ATOM     25  C   UNL     1       0.852   9.326  20.123  0.00  0.00    +0.000 A 
ATOM     26  C   UNL     1       1.418   8.069  20.368  0.00  0.00    +0.000 A 
ATOM     27  C   UNL     1       2.218   7.466  19.401  0.00  0.00    +0.000 A 
ATOM     28  C   UNL     1       2.464   8.115  18.198  0.00  0.00    +0.000 A 
ATOM     29  C   UNL     1       1.809   9.314  17.906  0.00  0.00    +0.000 A 
ATOM     30  O   UNL     1       3.335   7.640  17.243  0.00  0.00    +0.000 OA
ATOM     31  C   UNL     1       4.167   6.610  17.791  0.00  0.00    +0.000 C 
ATOM     32  C   UNL     1       3.310   5.610  18.548  0.00  0.00    +0.000 C 
ATOM     33  O   UNL     1       2.737   6.235  19.708  0.00  0.00    +0.000 OA
ENDBRANCH  22  24
ENDBRANCH   7  20
BRANCH   1  35
ATOM     34  C   UNL     1      -5.013  13.778  23.824  0.00  0.00    +0.000 C 
ATOM     35  O   UNL     1      -5.151  13.877  22.411  0.00  0.00    +0.000 OA
ENDBRANCH   1  35
BRANCH   6  36
ATOM     36  O   UNL     1      -4.913  12.001  20.187  0.00  0.00    +0.000 OA
ATOM     37  C   UNL     1      -5.186  11.883  18.797  0.00  0.00    +0.000 C 
ENDBRANCH   6  36
TORSDOF 4
ENDMDL
MODEL 9
REMARK VINA RESULT:      -7.5      2.201      3.170
REMARK  Name = 
REMARK  6 active torsions:
REMARK  status: ('A' for Active; 'I' for Inactive)
REMARK    1  A    between atoms: C_1  and  O_2
REMARK    2  A    between atoms: O_2  and  C_3
REMARK    3  A    between atoms: C_8  and  O_9
REMARK    4  A    between atoms: O_9  and  C_10
REMARK    5  A    between atoms: C_11  and  C_12
REMARK    6  A    between atoms: N_14  and  C_15
REMARK                            x       y       z     vdW  Elec       q    Type
REMARK                         _______ _______ _______ _____ _____    ______ ____
ROOT
ATOM      1  C   UNL     1      -4.733  11.223  17.987  0.00  0.00    +0.000 A 
ATOM      2  C   UNL     1      -4.296  12.055  19.026  0.00  0.00    +0.000 A 
ATOM      3  C   UNL     1      -2.939  12.385  19.184  0.00  0.00    +0.000 A 
ATOM      4  C   UNL     1      -1.980  11.837  18.328  0.00  0.00    +0.000 A 
ATOM      5  C   UNL     1      -2.420  11.016  17.276  0.00  0.00    +0.000 A 
ATOM      6  C   UNL     1      -3.781  10.716  17.086  0.00  0.00    +0.000 A 
ATOM      7  C   UNL     1      -0.501  12.127  18.514  0.00  0.00    +0.000 C 
ATOM      8  C   UNL     1      -0.281  13.462  19.254  0.00  0.00    +0.000 C 
ATOM      9  C   UNL     1       1.079  13.885  19.789  0.00  0.00    +0.000 A 
ATOM     10  C   UNL     1       2.010  13.095  20.446  0.00  0.00    +0.000 A 
ATOM     11  C   UNL     1       3.216  13.634  20.898  0.00  0.00    +0.000 A 
ATOM     12  C   UNL     1       3.509  14.977  20.671  0.00  0.00    +0.000 A 
ATOM     13  C   UNL     1       2.512  15.819  20.197  0.00  0.00    +0.000 A 
ATOM     14  C   UNL     1       1.259  15.273  19.924  0.00  0.00    +0.000 A 
ATOM     15  C   UNL     1      -0.025  16.053  20.171  0.00  0.00    +0.000 C 
ATOM     16  C   UNL     1      -0.977  15.112  20.977  0.00  0.00    +0.000 C 
ATOM     17  N   UNL     1      -1.292  13.871  20.229  0.00  0.00    +0.000 N 
ATOM     18  C   UNL     1      -2.574  13.377  20.236  0.00  0.00    +0.000 C 
ATOM     19  O   UNL     1      -3.432  13.745  21.041  0.00  0.00    +0.000 OA
ENDROOT
BRANCH   7  20
ATOM     20  C   UNL     1       0.301  10.944  19.038  0.00  0.00    +0.000 C 
ATOM     21  O   UNL     1       0.315  10.704  20.247  0.00  0.00    +0.000 OA
ATOM     22  N   UNL     1       0.972  10.189  18.095  0.00  0.00    +0.000 N 
ATOM     23  H   UNL     1       1.266  10.670  17.254  0.00  0.00    +0.000 HD
BRANCH  22  24
ATOM     24  C   UNL     1       1.684   9.016  18.432  0.00  0.00    +0.000 A 
ATOM     25  C   UNL     1       1.498   8.479  19.703  0.00  0.00    +0.000 A 
ATOM     26  C   UNL     1       2.145   7.290  20.062  0.00  0.00    +0.000 A 
ATOM     27  C   UNL     1       3.045   6.695  19.182  0.00  0.00    +0.000 A 
ATOM     28  C   UNL     1       3.310   7.285  17.953  0.00  0.00    +0.000 A 
ATOM     29  C   UNL     1       2.582   8.406  17.547  0.00  0.00    +0.000 A 
ATOM     30  O   UNL     1       4.271   6.824  17.081  0.00  0.00    +0.000 OA
ATOM     31  C   UNL     1       5.146   5.901  17.741  0.00  0.00    +0.000 C 
ATOM     32  C   UNL     1       4.327   4.885  18.517  0.00  0.00    +0.000 C 
ATOM     33  O   UNL     1       3.640   5.532  19.599  0.00  0.00    +0.000 OA
ENDBRANCH  22  24
ENDBRANCH   7  20
BRANCH   1  35
ATOM     34  C   UNL     1      -6.829  10.634  18.992  0.00  0.00    +0.000 C 
ATOM     35  O   UNL     1      -6.045  10.866  17.828  0.00  0.00    +0.000 OA
ENDBRANCH   1  35
BRANCH   6  36
ATOM     36  O   UNL     1      -3.986   9.932  15.980  0.00  0.00    +0.000 OA
ATOM     37  C   UNL     1      -3.361  10.287  14.755  0.00  0.00    +0.000 C 
ENDBRANCH   6  36
TORSDOF 4
ENDMDL
