MODEL 1
REMARK VINA RESULT:      -8.8      0.000      0.000
REMARK  Name = 
REMARK  12 active torsions:
REMARK  status: ('A' for Active; 'I' for Inactive)
REMARK    1  A    between atoms: C_1  and  C_2
REMARK    2  A    between atoms: C_2  and  C_3
REMARK    3  A    between atoms: C_2  and  N_4
REMARK    4  A    between atoms: N_4  and  C_5
REMARK    5  A    between atoms: C_7  and  N_8
REMARK    6  A    between atoms: C_20  and  C_21
REMARK    7  A    between atoms: N_23  and  C_24
REMARK    8  A    between atoms: C_24  and  C_25
REMARK    9  A    between atoms: C_25  and  C_27
REMARK   10  A    between atoms: C_27  and  C_28
REMARK   11  A    between atoms: C_27  and  C_29
REMARK   12  A    between atoms: C_27  and  O_30
REMARK                            x       y       z     vdW  Elec       q    Type
REMARK                         _______ _______ _______ _____ _____    ______ ____
ROOT
ATOM      1  C   UNL     1       2.281   6.419  20.314  0.00  0.00    +0.000 A 
ATOM      2  C   UNL     1       1.537   7.528  20.750  0.00  0.00    +0.000 A 
ATOM      3  C   UNL     1       1.338   8.642  19.924  0.00  0.00    +0.000 A 
ATOM      4  N   UNL     1       1.827   8.692  18.664  0.00  0.00    +0.000 NA
ATOM      5  C   UNL     1       2.551   7.629  18.243  0.00  0.00    +0.000 A 
ATOM      6  C   UNL     1       2.801   6.489  19.005  0.00  0.00    +0.000 A 
ENDROOT
BRANCH   3   7
ATOM      7  N   UNL     1       0.603   9.755  20.451  0.00  0.00    +0.000 N 
ATOM      8  N   UNL     1       0.722  10.108  21.777  0.00  0.00    +0.000 NA
ATOM      9  C   UNL     1      -0.063  11.180  21.907  0.00  0.00    +0.000 A 
ATOM     10  C   UNL     1      -0.707  11.527  20.712  0.00  0.00    +0.000 A 
ATOM     11  C   UNL     1      -1.601  12.490  20.271  0.00  0.00    +0.000 A 
ATOM     12  N   UNL     1      -2.002  12.479  18.980  0.00  0.00    +0.000 NA
ATOM     13  C   UNL     1      -1.504  11.543  18.157  0.00  0.00    +0.000 A 
ATOM     14  N   UNL     1      -1.960  11.563  16.855  0.00  0.00    +0.000 N 
ATOM     15  N   UNL     1      -0.655  10.568  18.487  0.00  0.00    +0.000 NA
ATOM     16  C   UNL     1      -0.273  10.601  19.779  0.00  0.00    +0.000 A 
ATOM     17  H   UNL     1      -2.865  12.009  16.819  0.00  0.00    +0.000 HD
ATOM     18  H   UNL     1      -1.877  10.638  16.457  0.00  0.00    +0.000 HD
ENDBRANCH   3   7
BRANCH   6  19
ATOM     19  C   UNL     1       3.651   5.454  18.362  0.00  0.00    +0.000 C 
ATOM     20  O   UNL     1       3.181   4.718  17.502  0.00  0.00    +0.000 OA
ATOM     21  N   UNL     1       4.958   5.360  18.783  0.00  0.00    +0.000 N 
ATOM     22  H   UNL     1       5.277   5.974  19.529  0.00  0.00    +0.000 HD
BRANCH  21  23
ATOM     23  C   UNL     1       5.885   4.408  18.188  0.00  0.00    +0.000 C 
BRANCH  23  24
ATOM     24  C   UNL     1       6.902   5.075  17.253  0.00  0.00    +0.000 C 
ATOM     25  F   UNL     1       8.083   4.375  17.358  0.00  0.00    +0.000 F 
BRANCH  24  26
ATOM     26  C   UNL     1       6.507   5.085  15.756  0.00  0.00    +0.000 C 
ATOM     27  C   UNL     1       5.970   3.731  15.283  0.00  0.00    +0.000 C 
ATOM     28  C   UNL     1       5.503   6.192  15.429  0.00  0.00    +0.000 C 
BRANCH  26  29
ATOM     29  O   UNL     1       7.684   5.365  14.976  0.00  0.00    +0.000 OA
ATOM     30  H   UNL     1       8.445   5.016  15.477  0.00  0.00    +0.000 HD
ENDBRANCH  26  29
ENDBRANCH  24  26
ENDBRANCH  23  24
ENDBRANCH  21  23
ENDBRANCH   6  19
BRANCH   1  31
ATOM     31  N   UNL     1       2.404   5.257  21.094  0.00  0.00    +0.000 N 
ATOM     32  H   UNL     1       2.052   5.397  22.045  0.00  0.00    +0.000 HD
BRANCH  31  34
ATOM     33  C   UNL     1       2.344   2.900  21.697  0.00  0.00    +0.000 C 
ATOM     34  C   UNL     1       2.099   3.914  20.580  0.00  0.00    +0.000 C 
ATOM     35  C   UNL     1       0.651   3.850  20.098  0.00  0.00    +0.000 C 
ENDBRANCH  31  34
ENDBRANCH   1  31
TORSDOF 8
ENDMDL
MODEL 2
REMARK VINA RESULT:      -8.8      1.274      1.821
REMARK  Name = 
REMARK  12 active torsions:
REMARK  status: ('A' for Active; 'I' for Inactive)
REMARK    1  A    between atoms: C_1  and  C_2
REMARK    2  A    between atoms: C_2  and  C_3
REMARK    3  A    between atoms: C_2  and  N_4
REMARK    4  A    between atoms: N_4  and  C_5
REMARK    5  A    between atoms: C_7  and  N_8
REMARK    6  A    between atoms: C_20  and  C_21
REMARK    7  A    between atoms: N_23  and  C_24
REMARK    8  A    between atoms: C_24  and  C_25
REMARK    9  A    between atoms: C_25  and  C_27
REMARK   10  A    between atoms: C_27  and  C_28
REMARK   11  A    between atoms: C_27  and  C_29
REMARK   12  A    between atoms: C_27  and  O_30
REMARK                            x       y       z     vdW  Elec       q    Type
REMARK                         _______ _______ _______ _____ _____    ______ ____
ROOT
ATOM      1  C   UNL     1       2.216   6.573  20.052  0.00  0.00    +0.000 A 
ATOM      2  C   UNL     1       1.441   7.395  20.887  0.00  0.00    +0.000 A 
ATOM      3  C   UNL     1       1.033   8.671  20.478  0.00  0.00    +0.000 A 
ATOM      4  N   UNL     1       1.342   9.161  19.257  0.00  0.00    +0.000 NA
ATOM      5  C   UNL     1       2.096   8.376  18.452  0.00  0.00    +0.000 A 
ATOM      6  C   UNL     1       2.548   7.101  18.787  0.00  0.00    +0.000 A 
ENDROOT
BRANCH   3   7
ATOM      7  N   UNL     1       0.278   9.469  21.399  0.00  0.00    +0.000 N 
ATOM      8  N   UNL     1       0.318   9.206  22.751  0.00  0.00    +0.000 NA
ATOM      9  C   UNL     1      -0.462  10.142  23.295  0.00  0.00    +0.000 A 
ATOM     10  C   UNL     1      -1.029  10.997  22.340  0.00  0.00    +0.000 A 
ATOM     11  C   UNL     1      -1.884  12.086  22.318  0.00  0.00    +0.000 A 
ATOM     12  N   UNL     1      -2.206  12.652  21.133  0.00  0.00    +0.000 NA
ATOM     13  C   UNL     1      -1.667  12.150  20.011  0.00  0.00    +0.000 A 
ATOM     14  N   UNL     1      -2.042  12.750  18.826  0.00  0.00    +0.000 N 
ATOM     15  N   UNL     1      -0.849  11.099  19.926  0.00  0.00    +0.000 NA
ATOM     16  C   UNL     1      -0.547  10.553  21.121  0.00  0.00    +0.000 A 
ATOM     17  H   UNL     1      -2.939  13.199  18.942  0.00  0.00    +0.000 HD
ATOM     18  H   UNL     1      -1.944  12.088  18.070  0.00  0.00    +0.000 HD
ENDBRANCH   3   7
BRANCH   6  19
ATOM     19  C   UNL     1       3.394   6.426  17.770  0.00  0.00    +0.000 C 
ATOM     20  O   UNL     1       3.176   5.259  17.463  0.00  0.00    +0.000 OA
ATOM     21  N   UNL     1       4.419   7.158  17.215  0.00  0.00    +0.000 N 
ATOM     22  H   UNL     1       4.573   8.109  17.542  0.00  0.00    +0.000 HD
BRANCH  21  23
ATOM     23  C   UNL     1       5.280   6.603  16.180  0.00  0.00    +0.000 C 
BRANCH  23  24
ATOM     24  C   UNL     1       6.628   6.116  16.727  0.00  0.00    +0.000 C 
ATOM     25  F   UNL     1       6.899   6.839  17.867  0.00  0.00    +0.000 F 
BRANCH  24  26
ATOM     26  C   UNL     1       6.675   4.617  17.114  0.00  0.00    +0.000 C 
ATOM     27  C   UNL     1       6.179   4.366  18.541  0.00  0.00    +0.000 C 
ATOM     28  C   UNL     1       5.904   3.740  16.127  0.00  0.00    +0.000 C 
BRANCH  26  29
ATOM     29  O   UNL     1       8.043   4.176  17.063  0.00  0.00    +0.000 OA
ATOM     30  H   UNL     1       8.281   3.882  17.963  0.00  0.00    +0.000 HD
ENDBRANCH  26  29
ENDBRANCH  24  26
ENDBRANCH  23  24
ENDBRANCH  21  23
ENDBRANCH   6  19
BRANCH   1  31
ATOM     31  N   UNL     1       2.548   5.255  20.410  0.00  0.00    +0.000 N 
ATOM     32  H   UNL     1       3.394   5.218  20.985  0.00  0.00    +0.000 HD
BRANCH  31  34
ATOM     33  C   UNL     1       0.953   3.615  19.582  0.00  0.00    +0.000 C 
ATOM     34  C   UNL     1       1.545   4.267  20.832  0.00  0.00    +0.000 C 
ATOM     35  C   UNL     1       2.186   3.218  21.737  0.00  0.00    +0.000 C 
ENDBRANCH  31  34
ENDBRANCH   1  31
TORSDOF 8
ENDMDL
MODEL 3
REMARK VINA RESULT:      -8.7      1.250      1.798
REMARK  Name = 
REMARK  12 active torsions:
REMARK  status: ('A' for Active; 'I' for Inactive)
REMARK    1  A    between atoms: C_1  and  C_2
REMARK    2  A    between atoms: C_2  and  C_3
REMARK    3  A    between atoms: C_2  and  N_4
REMARK    4  A    between atoms: N_4  and  C_5
REMARK    5  A    between atoms: C_7  and  N_8
REMARK    6  A    between atoms: C_20  and  C_21
REMARK    7  A    between atoms: N_23  and  C_24
REMARK    8  A    between atoms: C_24  and  C_25
REMARK    9  A    between atoms: C_25  and  C_27
REMARK   10  A    between atoms: C_27  and  C_28
REMARK   11  A    between atoms: C_27  and  C_29
REMARK   12  A    between atoms: C_27  and  O_30
REMARK                            x       y       z     vdW  Elec       q    Type
REMARK                         _______ _______ _______ _____ _____    ______ ____
ROOT
ATOM      1  C   UNL     1       2.295   6.906  19.888  0.00  0.00    +0.000 A 
ATOM      2  C   UNL     1       1.503   7.862  20.546  0.00  0.00    +0.000 A 
ATOM      3  C   UNL     1       1.109   9.045  19.908  0.00  0.00    +0.000 A 
ATOM      4  N   UNL     1       1.448   9.312  18.627  0.00  0.00    +0.000 NA
ATOM      5  C   UNL     1       2.218   8.398  17.992  0.00  0.00    +0.000 A 
ATOM      6  C   UNL     1       2.658   7.202  18.558  0.00  0.00    +0.000 A 
ENDROOT
BRANCH   3   7
ATOM      7  N   UNL     1       0.336   9.993  20.655  0.00  0.00    +0.000 N 
ATOM      8  N   UNL     1       0.576  10.192  21.997  0.00  0.00    +0.000 NA
ATOM      9  C   UNL     1      -0.290  11.143  22.354  0.00  0.00    +0.000 A 
ATOM     10  C   UNL     1      -1.104  11.559  21.291  0.00  0.00    +0.000 A 
ATOM     11  C   UNL     1      -2.135  12.461  21.081  0.00  0.00    +0.000 A 
ATOM     12  N   UNL     1      -2.684  12.564  19.850  0.00  0.00    +0.000 NA
ATOM     13  C   UNL     1      -2.197  11.800  18.860  0.00  0.00    +0.000 A 
ATOM     14  N   UNL     1      -2.805  11.928  17.628  0.00  0.00    +0.000 N 
ATOM     15  N   UNL     1      -1.222  10.895  18.964  0.00  0.00    +0.000 NA
ATOM     16  C   UNL     1      -0.694  10.811  20.201  0.00  0.00    +0.000 A 
ATOM     17  H   UNL     1      -3.747  12.269  17.748  0.00  0.00    +0.000 HD
ATOM     18  H   UNL     1      -2.679  11.075  17.102  0.00  0.00    +0.000 HD
ENDBRANCH   3   7
BRANCH   6  19
ATOM     19  C   UNL     1       3.525   6.359  17.696  0.00  0.00    +0.000 C 
ATOM     20  O   UNL     1       3.190   5.212  17.419  0.00  0.00    +0.000 OA
ATOM     21  N   UNL     1       4.702   6.915  17.249  0.00  0.00    +0.000 N 
ATOM     22  H   UNL     1       4.942   7.857  17.547  0.00  0.00    +0.000 HD
BRANCH  21  23
ATOM     23  C   UNL     1       5.602   6.187  16.366  0.00  0.00    +0.000 C 
BRANCH  23  24
ATOM     24  C   UNL     1       7.047   6.161  16.881  0.00  0.00    +0.000 C 
ATOM     25  F   UNL     1       7.309   7.391  17.443  0.00  0.00    +0.000 F 
BRANCH  24  26
ATOM     26  C   UNL     1       7.338   5.092  17.964  0.00  0.00    +0.000 C 
ATOM     27  C   UNL     1       7.980   5.691  19.219  0.00  0.00    +0.000 C 
ATOM     28  C   UNL     1       6.089   4.295  18.341  0.00  0.00    +0.000 C 
BRANCH  26  29
ATOM     29  O   UNL     1       8.275   4.143  17.426  0.00  0.00    +0.000 OA
ATOM     30  H   UNL     1       9.151   4.574  17.432  0.00  0.00    +0.000 HD
ENDBRANCH  26  29
ENDBRANCH  24  26
ENDBRANCH  23  24
ENDBRANCH  21  23
ENDBRANCH   6  19
BRANCH   1  31
ATOM     31  N   UNL     1       2.613   5.672  20.481  0.00  0.00    +0.000 N 
ATOM     32  H   UNL     1       3.323   5.773  21.211  0.00  0.00    +0.000 HD
BRANCH  31  34
ATOM     33  C   UNL     1       1.062   4.055  19.532  0.00  0.00    +0.000 C 
ATOM     34  C   UNL     1       1.597   4.668  20.826  0.00  0.00    +0.000 C 
ATOM     35  C   UNL     1       2.204   3.591  21.723  0.00  0.00    +0.000 C 
ENDBRANCH  31  34
ENDBRANCH   1  31
TORSDOF 8
ENDMDL
MODEL 4
REMARK VINA RESULT:      -8.6      1.242      1.625
REMARK  Name = 
REMARK  12 active torsions:
REMARK  status: ('A' for Active; 'I' for Inactive)
REMARK    1  A    between atoms: C_1  and  C_2
REMARK    2  A    between atoms: C_2  and  C_3
REMARK    3  A    between atoms: C_2  and  N_4
REMARK    4  A    between atoms: N_4  and  C_5
REMARK    5  A    between atoms: C_7  and  N_8
REMARK    6  A    between atoms: C_20  and  C_21
REMARK    7  A    between atoms: N_23  and  C_24
REMARK    8  A    between atoms: C_24  and  C_25
REMARK    9  A    between atoms: C_25  and  C_27
REMARK   10  A    between atoms: C_27  and  C_28
REMARK   11  A    between atoms: C_27  and  C_29
REMARK   12  A    between atoms: C_27  and  O_30
REMARK                            x       y       z     vdW  Elec       q    Type
REMARK                         _______ _______ _______ _____ _____    ______ ____
ROOT
ATOM      1  C   UNL     1       2.339   6.363  20.163  0.00  0.00    +0.000 A 
ATOM      2  C   UNL     1       1.536   7.487  20.417  0.00  0.00    +0.000 A 
ATOM      3  C   UNL     1       1.489   8.565  19.525  0.00  0.00    +0.000 A 
ATOM      4  N   UNL     1       2.190   8.567  18.369  0.00  0.00    +0.000 NA
ATOM      5  C   UNL     1       2.972   7.489  18.123  0.00  0.00    +0.000 A 
ATOM      6  C   UNL     1       3.081   6.382  18.963  0.00  0.00    +0.000 A 
ENDROOT
BRANCH   3   7
ATOM      7  N   UNL     1       0.678   9.696  19.870  0.00  0.00    +0.000 N 
ATOM      8  N   UNL     1       0.837  10.328  21.084  0.00  0.00    +0.000 NA
ATOM      9  C   UNL     1      -0.042  11.332  21.054  0.00  0.00    +0.000 A 
ATOM     10  C   UNL     1      -0.786  11.365  19.867  0.00  0.00    +0.000 A 
ATOM     11  C   UNL     1      -1.795  12.134  19.310  0.00  0.00    +0.000 A 
ATOM     12  N   UNL     1      -2.267  11.819  18.083  0.00  0.00    +0.000 NA
ATOM     13  C   UNL     1      -1.726  10.778  17.431  0.00  0.00    +0.000 A 
ATOM     14  N   UNL     1      -2.256  10.486  16.191  0.00  0.00    +0.000 N 
ATOM     15  N   UNL     1      -0.766   9.970  17.886  0.00  0.00    +0.000 NA
ATOM     16  C   UNL     1      -0.316  10.305  19.111  0.00  0.00    +0.000 A 
ATOM     17  H   UNL     1      -3.202  10.835  16.135  0.00  0.00    +0.000 HD
ATOM     18  H   UNL     1      -2.105   9.509  15.984  0.00  0.00    +0.000 HD
ENDBRANCH   3   7
BRANCH   6  19
ATOM     19  C   UNL     1       4.025   5.324  18.520  0.00  0.00    +0.000 C 
ATOM     20  O   UNL     1       4.879   4.898  19.291  0.00  0.00    +0.000 OA
ATOM     21  N   UNL     1       3.904   4.871  17.226  0.00  0.00    +0.000 N 
ATOM     22  H   UNL     1       3.201   5.294  16.624  0.00  0.00    +0.000 HD
BRANCH  21  23
ATOM     23  C   UNL     1       4.753   3.808  16.707  0.00  0.00    +0.000 C 
BRANCH  23  24
ATOM     24  C   UNL     1       5.691   4.290  15.593  0.00  0.00    +0.000 C 
ATOM     25  F   UNL     1       4.939   5.029  14.707  0.00  0.00    +0.000 F 
BRANCH  24  26
ATOM     26  C   UNL     1       6.860   5.190  16.063  0.00  0.00    +0.000 C 
ATOM     27  C   UNL     1       6.394   6.595  16.457  0.00  0.00    +0.000 C 
ATOM     28  C   UNL     1       7.653   4.559  17.208  0.00  0.00    +0.000 C 
BRANCH  26  29
ATOM     29  O   UNL     1       7.783   5.346  14.971  0.00  0.00    +0.000 OA
ATOM     30  H   UNL     1       7.334   5.890  14.296  0.00  0.00    +0.000 HD
ENDBRANCH  26  29
ENDBRANCH  24  26
ENDBRANCH  23  24
ENDBRANCH  21  23
ENDBRANCH   6  19
BRANCH   1  31
ATOM     31  N   UNL     1       2.320   5.233  20.998  0.00  0.00    +0.000 N 
ATOM     32  H   UNL     1       2.528   5.476  21.971  0.00  0.00    +0.000 HD
BRANCH  31  34
ATOM     33  C   UNL     1       1.118   3.829  19.417  0.00  0.00    +0.000 C 
ATOM     34  C   UNL     1       1.300   4.180  20.893  0.00  0.00    +0.000 C 
ATOM     35  C   UNL     1       1.726   2.951  21.693  0.00  0.00    +0.000 C 
ENDBRANCH  31  34
ENDBRANCH   1  31
TORSDOF 8
ENDMDL
MODEL 5
REMARK VINA RESULT:      -8.6      1.207      1.492
REMARK  Name = 
REMARK  12 active torsions:
REMARK  status: ('A' for Active; 'I' for Inactive)
REMARK    1  A    between atoms: C_1  and  C_2
REMARK    2  A    between atoms: C_2  and  C_3
REMARK    3  A    between atoms: C_2  and  N_4
REMARK    4  A    between atoms: N_4  and  C_5
REMARK    5  A    between atoms: C_7  and  N_8
REMARK    6  A    between atoms: C_20  and  C_21
REMARK    7  A    between atoms: N_23  and  C_24
REMARK    8  A    between atoms: C_24  and  C_25
REMARK    9  A    between atoms: C_25  and  C_27
REMARK   10  A    between atoms: C_27  and  C_28
REMARK   11  A    between atoms: C_27  and  C_29
REMARK   12  A    between atoms: C_27  and  O_30
REMARK                            x       y       z     vdW  Elec       q    Type
REMARK                         _______ _______ _______ _____ _____    ______ ____
ROOT
ATOM      1  C   UNL     1       2.222   6.500  20.566  0.00  0.00    +0.000 A 
ATOM      2  C   UNL     1       1.354   7.508  21.020  0.00  0.00    +0.000 A 
ATOM      3  C   UNL     1       1.121   8.663  20.264  0.00  0.00    +0.000 A 
ATOM      4  N   UNL     1       1.695   8.853  19.054  0.00  0.00    +0.000 NA
ATOM      5  C   UNL     1       2.538   7.888  18.617  0.00  0.00    +0.000 A 
ATOM      6  C   UNL     1       2.830   6.716  19.312  0.00  0.00    +0.000 A 
ENDROOT
BRANCH   3   7
ATOM      7  N   UNL     1       0.255   9.667  20.809  0.00  0.00    +0.000 N 
ATOM      8  N   UNL     1       0.131   9.821  22.172  0.00  0.00    +0.000 NA
ATOM      9  C   UNL     1      -0.715  10.844  22.316  0.00  0.00    +0.000 A 
ATOM     10  C   UNL     1      -1.165  11.350  21.090  0.00  0.00    +0.000 A 
ATOM     11  C   UNL     1      -2.018  12.347  20.643  0.00  0.00    +0.000 A 
ATOM     12  N   UNL     1      -2.196  12.519  19.314  0.00  0.00    +0.000 NA
ATOM     13  C   UNL     1      -1.521  11.729  18.464  0.00  0.00    +0.000 A 
ATOM     14  N   UNL     1      -1.753  11.933  17.119  0.00  0.00    +0.000 N 
ATOM     15  N   UNL     1      -0.693  10.736  18.794  0.00  0.00    +0.000 NA
ATOM     16  C   UNL     1      -0.536  10.584  20.124  0.00  0.00    +0.000 A 
ATOM     17  H   UNL     1      -2.659  12.358  16.991  0.00  0.00    +0.000 HD
ATOM     18  H   UNL     1      -1.560  11.080  16.614  0.00  0.00    +0.000 HD
ENDBRANCH   3   7
BRANCH   6  19
ATOM     19  C   UNL     1       3.812   5.808  18.666  0.00  0.00    +0.000 C 
ATOM     20  O   UNL     1       4.763   5.373  19.306  0.00  0.00    +0.000 OA
ATOM     21  N   UNL     1       3.609   5.499  17.340  0.00  0.00    +0.000 N 
ATOM     22  H   UNL     1       2.823   5.924  16.854  0.00  0.00    +0.000 HD
BRANCH  21  23
ATOM     23  C   UNL     1       4.490   4.586  16.626  0.00  0.00    +0.000 C 
BRANCH  23  24
ATOM     24  C   UNL     1       5.439   5.310  15.662  0.00  0.00    +0.000 C 
ATOM     25  F   UNL     1       4.867   6.523  15.348  0.00  0.00    +0.000 F 
BRANCH  24  26
ATOM     26  C   UNL     1       6.851   5.602  16.227  0.00  0.00    +0.000 C 
ATOM     27  C   UNL     1       6.900   6.902  17.035  0.00  0.00    +0.000 C 
ATOM     28  C   UNL     1       7.390   4.442  17.065  0.00  0.00    +0.000 C 
BRANCH  26  29
ATOM     29  O   UNL     1       7.760   5.759  15.123  0.00  0.00    +0.000 OA
ATOM     30  H   UNL     1       8.369   6.485  15.359  0.00  0.00    +0.000 HD
ENDBRANCH  26  29
ENDBRANCH  24  26
ENDBRANCH  23  24
ENDBRANCH  21  23
ENDBRANCH   6  19
BRANCH   1  31
ATOM     31  N   UNL     1       2.388   5.294  21.268  0.00  0.00    +0.000 N 
ATOM     32  H   UNL     1       2.089   5.377  22.243  0.00  0.00    +0.000 HD
BRANCH  31  34
ATOM     33  C   UNL     1       2.002   2.957  21.823  0.00  0.00    +0.000 C 
ATOM     34  C   UNL     1       2.053   3.984  20.692  0.00  0.00    +0.000 C 
ATOM     35  C   UNL     1       0.712   4.054  19.965  0.00  0.00    +0.000 C 
ENDBRANCH  31  34
ENDBRANCH   1  31
TORSDOF 8
ENDMDL
MODEL 6
REMARK VINA RESULT:      -8.6      1.222      1.874
REMARK  Name = 
REMARK  12 active torsions:
REMARK  status: ('A' for Active; 'I' for Inactive)
REMARK    1  A    between atoms: C_1  and  C_2
REMARK    2  A    between atoms: C_2  and  C_3
REMARK    3  A    between atoms: C_2  and  N_4
REMARK    4  A    between atoms: N_4  and  C_5
REMARK    5  A    between atoms: C_7  and  N_8
REMARK    6  A    between atoms: C_20  and  C_21
REMARK    7  A    between atoms: N_23  and  C_24
REMARK    8  A    between atoms: C_24  and  C_25
REMARK    9  A    between atoms: C_25  and  C_27
REMARK   10  A    between atoms: C_27  and  C_28
REMARK   11  A    between atoms: C_27  and  C_29
REMARK   12  A    between atoms: C_27  and  O_30
REMARK                            x       y       z     vdW  Elec       q    Type
REMARK                         _______ _______ _______ _____ _____    ______ ____
ROOT
ATOM      1  C   UNL     1       2.298   6.448  20.034  0.00  0.00    +0.000 A 
ATOM      2  C   UNL     1       1.535   7.319  20.830  0.00  0.00    +0.000 A 
ATOM      3  C   UNL     1       1.132   8.573  20.356  0.00  0.00    +0.000 A 
ATOM      4  N   UNL     1       1.433   8.996  19.107  0.00  0.00    +0.000 NA
ATOM      5  C   UNL     1       2.176   8.163  18.340  0.00  0.00    +0.000 A 
ATOM      6  C   UNL     1       2.623   6.905  18.739  0.00  0.00    +0.000 A 
ENDROOT
BRANCH   3   7
ATOM      7  N   UNL     1       0.390   9.425  21.239  0.00  0.00    +0.000 N 
ATOM      8  N   UNL     1       0.436   9.232  22.602  0.00  0.00    +0.000 NA
ATOM      9  C   UNL     1      -0.333  10.202  23.102  0.00  0.00    +0.000 A 
ATOM     10  C   UNL     1      -0.897  11.012  22.107  0.00  0.00    +0.000 A 
ATOM     11  C   UNL     1      -1.743  12.107  22.033  0.00  0.00    +0.000 A 
ATOM     12  N   UNL     1      -2.066  12.614  20.823  0.00  0.00    +0.000 NA
ATOM     13  C   UNL     1      -1.538  12.050  19.725  0.00  0.00    +0.000 A 
ATOM     14  N   UNL     1      -1.915  12.592  18.513  0.00  0.00    +0.000 N 
ATOM     15  N   UNL     1      -0.730  10.988  19.690  0.00  0.00    +0.000 NA
ATOM     16  C   UNL     1      -0.426  10.502  20.909  0.00  0.00    +0.000 A 
ATOM     17  H   UNL     1      -2.806  13.055  18.611  0.00  0.00    +0.000 HD
ATOM     18  H   UNL     1      -1.827  11.891  17.791  0.00  0.00    +0.000 HD
ENDBRANCH   3   7
BRANCH   6  19
ATOM     19  C   UNL     1       3.456   6.171  17.753  0.00  0.00    +0.000 C 
ATOM     20  O   UNL     1       3.182   5.013  17.456  0.00  0.00    +0.000 OA
ATOM     21  N   UNL     1       4.533   6.838  17.215  0.00  0.00    +0.000 N 
ATOM     22  H   UNL     1       4.730   7.784  17.533  0.00  0.00    +0.000 HD
BRANCH  21  23
ATOM     23  C   UNL     1       5.387   6.223  16.209  0.00  0.00    +0.000 C 
BRANCH  23  24
ATOM     24  C   UNL     1       6.069   4.944  16.712  0.00  0.00    +0.000 C 
ATOM     25  F   UNL     1       6.751   4.392  15.651  0.00  0.00    +0.000 F 
BRANCH  24  26
ATOM     26  C   UNL     1       7.093   5.152  17.855  0.00  0.00    +0.000 C 
ATOM     27  C   UNL     1       7.746   6.537  17.810  0.00  0.00    +0.000 C 
ATOM     28  C   UNL     1       6.480   4.905  19.234  0.00  0.00    +0.000 C 
BRANCH  26  29
ATOM     29  O   UNL     1       8.148   4.186  17.703  0.00  0.00    +0.000 OA
ATOM     30  H   UNL     1       8.941   4.675  17.413  0.00  0.00    +0.000 HD
ENDBRANCH  26  29
ENDBRANCH  24  26
ENDBRANCH  23  24
ENDBRANCH  21  23
ENDBRANCH   6  19
BRANCH   1  31
ATOM     31  N   UNL     1       2.624   5.149  20.459  0.00  0.00    +0.000 N 
ATOM     32  H   UNL     1       3.467   5.139  21.040  0.00  0.00    +0.000 HD
BRANCH  31  34
ATOM     33  C   UNL     1       0.878   3.632  19.703  0.00  0.00    +0.000 C 
ATOM     34  C   UNL     1       1.617   4.185  20.922  0.00  0.00    +0.000 C 
ATOM     35  C   UNL     1       2.286   3.057  21.706  0.00  0.00    +0.000 C 
ENDBRANCH  31  34
ENDBRANCH   1  31
TORSDOF 8
ENDMDL
MODEL 7
REMARK VINA RESULT:      -8.5      1.325      1.502
REMARK  Name = 
REMARK  12 active torsions:
REMARK  status: ('A' for Active; 'I' for Inactive)
REMARK    1  A    between atoms: C_1  and  C_2
REMARK    2  A    between atoms: C_2  and  C_3
REMARK    3  A    between atoms: C_2  and  N_4
REMARK    4  A    between atoms: N_4  and  C_5
REMARK    5  A    between atoms: C_7  and  N_8
REMARK    6  A    between atoms: C_20  and  C_21
REMARK    7  A    between atoms: N_23  and  C_24
REMARK    8  A    between atoms: C_24  and  C_25
REMARK    9  A    between atoms: C_25  and  C_27
REMARK   10  A    between atoms: C_27  and  C_28
REMARK   11  A    between atoms: C_27  and  C_29
REMARK   12  A    between atoms: C_27  and  O_30
REMARK                            x       y       z     vdW  Elec       q    Type
REMARK                         _______ _______ _______ _____ _____    ______ ____
ROOT
ATOM      1  C   UNL     1       2.369   6.462  20.220  0.00  0.00    +0.000 A 
ATOM      2  C   UNL     1       1.532   7.569  20.441  0.00  0.00    +0.000 A 
ATOM      3  C   UNL     1       1.459   8.622  19.521  0.00  0.00    +0.000 A 
ATOM      4  N   UNL     1       2.165   8.613  18.368  0.00  0.00    +0.000 NA
ATOM      5  C   UNL     1       2.979   7.553  18.155  0.00  0.00    +0.000 A 
ATOM      6  C   UNL     1       3.115   6.471  19.024  0.00  0.00    +0.000 A 
ENDROOT
BRANCH   3   7
ATOM      7  N   UNL     1       0.614   9.738  19.833  0.00  0.00    +0.000 N 
ATOM      8  N   UNL     1       0.737  10.394  21.037  0.00  0.00    +0.000 NA
ATOM      9  C   UNL     1      -0.167  11.375  20.976  0.00  0.00    +0.000 A 
ATOM     10  C   UNL     1      -0.891  11.368  19.776  0.00  0.00    +0.000 A 
ATOM     11  C   UNL     1      -1.910  12.101  19.190  0.00  0.00    +0.000 A 
ATOM     12  N   UNL     1      -2.354  11.753  17.961  0.00  0.00    +0.000 NA
ATOM     13  C   UNL     1      -1.776  10.715  17.336  0.00  0.00    +0.000 A 
ATOM     14  N   UNL     1      -2.278  10.388  16.093  0.00  0.00    +0.000 N 
ATOM     15  N   UNL     1      -0.804   9.940  17.821  0.00  0.00    +0.000 NA
ATOM     16  C   UNL     1      -0.382  10.308  19.047  0.00  0.00    +0.000 A 
ATOM     17  H   UNL     1      -3.231  10.711  16.016  0.00  0.00    +0.000 HD
ATOM     18  H   UNL     1      -2.099   9.411  15.906  0.00  0.00    +0.000 HD
ENDBRANCH   3   7
BRANCH   6  19
ATOM     19  C   UNL     1       4.092   5.430  18.613  0.00  0.00    +0.000 C 
ATOM     20  O   UNL     1       5.090   5.219  19.293  0.00  0.00    +0.000 OA
ATOM     21  N   UNL     1       3.831   4.743  17.449  0.00  0.00    +0.000 N 
ATOM     22  H   UNL     1       3.006   4.994  16.909  0.00  0.00    +0.000 HD
BRANCH  21  23
ATOM     23  C   UNL     1       4.703   3.676  16.981  0.00  0.00    +0.000 C 
BRANCH  23  24
ATOM     24  C   UNL     1       5.396   4.015  15.655  0.00  0.00    +0.000 C 
ATOM     25  F   UNL     1       4.474   4.653  14.855  0.00  0.00    +0.000 F 
BRANCH  24  26
ATOM     26  C   UNL     1       6.622   4.953  15.776  0.00  0.00    +0.000 C 
ATOM     27  C   UNL     1       7.523   4.588  16.961  0.00  0.00    +0.000 C 
ATOM     28  C   UNL     1       7.444   5.002  14.487  0.00  0.00    +0.000 C 
BRANCH  26  29
ATOM     29  O   UNL     1       6.151   6.292  16.006  0.00  0.00    +0.000 OA
ATOM     30  H   UNL     1       5.869   6.338  16.939  0.00  0.00    +0.000 HD
ENDBRANCH  26  29
ENDBRANCH  24  26
ENDBRANCH  23  24
ENDBRANCH  21  23
ENDBRANCH   6  19
BRANCH   1  31
ATOM     31  N   UNL     1       2.377   5.355  21.085  0.00  0.00    +0.000 N 
ATOM     32  H   UNL     1       1.923   5.566  21.978  0.00  0.00    +0.000 HD
BRANCH  31  34
ATOM     33  C   UNL     1       2.236   3.042  21.826  0.00  0.00    +0.000 C 
ATOM     34  C   UNL     1       2.103   3.985  20.630  0.00  0.00    +0.000 C 
ATOM     35  C   UNL     1       0.703   3.900  20.027  0.00  0.00    +0.000 C 
ENDBRANCH  31  34
ENDBRANCH   1  31
TORSDOF 8
ENDMDL
MODEL 8
REMARK VINA RESULT:      -8.4      0.729      1.076
REMARK  Name = 
REMARK  12 active torsions:
REMARK  status: ('A' for Active; 'I' for Inactive)
REMARK    1  A    between atoms: C_1  and  C_2
REMARK    2  A    between atoms: C_2  and  C_3
REMARK    3  A    between atoms: C_2  and  N_4
REMARK    4  A    between atoms: N_4  and  C_5
REMARK    5  A    between atoms: C_7  and  N_8
REMARK    6  A    between atoms: C_20  and  C_21
REMARK    7  A    between atoms: N_23  and  C_24
REMARK    8  A    between atoms: C_24  and  C_25
REMARK    9  A    between atoms: C_25  and  C_27
REMARK   10  A    between atoms: C_27  and  C_28
REMARK   11  A    between atoms: C_27  and  C_29
REMARK   12  A    between atoms: C_27  and  O_30
REMARK                            x       y       z     vdW  Elec       q    Type
REMARK                         _______ _______ _______ _____ _____    ______ ____
ROOT
ATOM      1  C   UNL     1       2.402   6.180  20.058  0.00  0.00    +0.000 A 
ATOM      2  C   UNL     1       1.646   7.283  20.487  0.00  0.00    +0.000 A 
ATOM      3  C   UNL     1       1.509   8.427  19.692  0.00  0.00    +0.000 A 
ATOM      4  N   UNL     1       2.074   8.516  18.467  0.00  0.00    +0.000 NA
ATOM      5  C   UNL     1       2.811   7.459  18.051  0.00  0.00    +0.000 A 
ATOM      6  C   UNL     1       3.003   6.290  18.786  0.00  0.00    +0.000 A 
ENDROOT
BRANCH   3   7
ATOM      7  N   UNL     1       0.755   9.530  20.213  0.00  0.00    +0.000 N 
ATOM      8  N   UNL     1       0.922   9.938  21.518  0.00  0.00    +0.000 NA
ATOM      9  C   UNL     1       0.102  10.983  21.647  0.00  0.00    +0.000 A 
ATOM     10  C   UNL     1      -0.612  11.259  20.473  0.00  0.00    +0.000 A 
ATOM     11  C   UNL     1      -1.565  12.168  20.042  0.00  0.00    +0.000 A 
ATOM     12  N   UNL     1      -2.026  12.092  18.774  0.00  0.00    +0.000 NA
ATOM     13  C   UNL     1      -1.530  11.146  17.961  0.00  0.00    +0.000 A 
ATOM     14  N   UNL     1      -2.048  11.098  16.683  0.00  0.00    +0.000 N 
ATOM     15  N   UNL     1      -0.627  10.218  18.285  0.00  0.00    +0.000 NA
ATOM     16  C   UNL     1      -0.185  10.315  19.555  0.00  0.00    +0.000 A 
ATOM     17  H   UNL     1      -2.971  11.506  16.676  0.00  0.00    +0.000 HD
ATOM     18  H   UNL     1      -1.947  10.162  16.316  0.00  0.00    +0.000 HD
ENDBRANCH   3   7
BRANCH   6  19
ATOM     19  C   UNL     1       3.879   5.268  18.158  0.00  0.00    +0.000 C 
ATOM     20  O   UNL     1       3.390   4.358  17.498  0.00  0.00    +0.000 OA
ATOM     21  N   UNL     1       5.235   5.386  18.365  0.00  0.00    +0.000 N 
ATOM     22  H   UNL     1       5.575   6.141  18.956  0.00  0.00    +0.000 HD
BRANCH  21  23
ATOM     23  C   UNL     1       6.182   4.461  17.761  0.00  0.00    +0.000 C 
BRANCH  23  24
ATOM     24  C   UNL     1       7.019   5.110  16.650  0.00  0.00    +0.000 C 
ATOM     25  F   UNL     1       8.181   4.382  16.526  0.00  0.00    +0.000 F 
BRANCH  24  26
ATOM     26  C   UNL     1       6.347   5.139  15.255  0.00  0.00    +0.000 C 
ATOM     27  C   UNL     1       7.362   5.294  14.119  0.00  0.00    +0.000 C 
ATOM     28  C   UNL     1       5.468   3.912  15.010  0.00  0.00    +0.000 C 
BRANCH  26  29
ATOM     29  O   UNL     1       5.472   6.280  15.194  0.00  0.00    +0.000 OA
ATOM     30  H   UNL     1       5.229   6.400  14.256  0.00  0.00    +0.000 HD
ENDBRANCH  26  29
ENDBRANCH  24  26
ENDBRANCH  23  24
ENDBRANCH  21  23
ENDBRANCH   6  19
BRANCH   1  31
ATOM     31  N   UNL     1       2.466   4.989  20.801  0.00  0.00    +0.000 N 
ATOM     32  H   UNL     1       2.976   5.116  21.679  0.00  0.00    +0.000 HD
BRANCH  31  34
ATOM     33  C   UNL     1       0.861   3.651  19.555  0.00  0.00    +0.000 C 
ATOM     34  C   UNL     1       1.322   4.079  20.948  0.00  0.00    +0.000 C 
ATOM     35  C   UNL     1       1.719   2.863  21.783  0.00  0.00    +0.000 C 
ENDBRANCH  31  34
ENDBRANCH   1  31
TORSDOF 8
ENDMDL
MODEL 9
REMARK VINA RESULT:      -8.4      1.498      2.523
REMARK  Name = 
REMARK  12 active torsions:
REMARK  status: ('A' for Active; 'I' for Inactive)
REMARK    1  A    between atoms: C_1  and  C_2
REMARK    2  A    between atoms: C_2  and  C_3
REMARK    3  A    between atoms: C_2  and  N_4
REMARK    4  A    between atoms: N_4  and  C_5
REMARK    5  A    between atoms: C_7  and  N_8
REMARK    6  A    between atoms: C_20  and  C_21
REMARK    7  A    between atoms: N_23  and  C_24
REMARK    8  A    between atoms: C_24  and  C_25
REMARK    9  A    between atoms: C_25  and  C_27
REMARK   10  A    between atoms: C_27  and  C_28
REMARK   11  A    between atoms: C_27  and  C_29
REMARK   12  A    between atoms: C_27  and  O_30
REMARK                            x       y       z     vdW  Elec       q    Type
REMARK                         _______ _______ _______ _____ _____    ______ ____
ROOT
ATOM      1  C   UNL     1       2.838   6.039  19.791  0.00  0.00    +0.000 A 
ATOM      2  C   UNL     1       1.957   7.129  19.898  0.00  0.00    +0.000 A 
ATOM      3  C   UNL     1       2.001   8.192  18.988  0.00  0.00    +0.000 A 
ATOM      4  N   UNL     1       2.869   8.210  17.951  0.00  0.00    +0.000 NA
ATOM      5  C   UNL     1       3.724   7.166  17.849  0.00  0.00    +0.000 A 
ATOM      6  C   UNL     1       3.751   6.076  18.717  0.00  0.00    +0.000 A 
ENDROOT
BRANCH   3   7
ATOM      7  N   UNL     1       1.099   9.290  19.183  0.00  0.00    +0.000 N 
ATOM      8  N   UNL     1       0.721  10.083  18.123  0.00  0.00    +0.000 NA
ATOM      9  C   UNL     1      -0.128  10.967  18.654  0.00  0.00    +0.000 A 
ATOM     10  C   UNL     1      -0.301  10.789  20.033  0.00  0.00    +0.000 A 
ATOM     11  C   UNL     1      -1.013  11.383  21.062  0.00  0.00    +0.000 A 
ATOM     12  N   UNL     1      -0.898  10.892  22.317  0.00  0.00    +0.000 NA
ATOM     13  C   UNL     1      -0.109   9.826  22.523  0.00  0.00    +0.000 A 
ATOM     14  N   UNL     1      -0.010   9.376  23.824  0.00  0.00    +0.000 N 
ATOM     15  N   UNL     1       0.627   9.196  21.606  0.00  0.00    +0.000 NA
ATOM     16  C   UNL     1       0.496   9.706  20.365  0.00  0.00    +0.000 A 
ATOM     17  H   UNL     1      -0.221  10.130  24.461  0.00  0.00    +0.000 HD
ATOM     18  H   UNL     1       0.869   8.893  23.945  0.00  0.00    +0.000 HD
ENDBRANCH   3   7
BRANCH   6  19
ATOM     19  C   UNL     1       4.797   5.057  18.444  0.00  0.00    +0.000 C 
ATOM     20  O   UNL     1       4.696   3.929  18.913  0.00  0.00    +0.000 OA
ATOM     21  N   UNL     1       5.865   5.442  17.666  0.00  0.00    +0.000 N 
ATOM     22  H   UNL     1       5.911   6.404  17.339  0.00  0.00    +0.000 HD
BRANCH  21  23
ATOM     23  C   UNL     1       6.922   4.508  17.305  0.00  0.00    +0.000 C 
BRANCH  23  24
ATOM     24  C   UNL     1       6.677   3.828  15.952  0.00  0.00    +0.000 C 
ATOM     25  F   UNL     1       5.473   3.164  16.033  0.00  0.00    +0.000 F 
BRANCH  24  26
ATOM     26  C   UNL     1       6.588   4.789  14.741  0.00  0.00    +0.000 C 
ATOM     27  C   UNL     1       6.642   4.050  13.401  0.00  0.00    +0.000 C 
ATOM     28  C   UNL     1       5.347   5.681  14.800  0.00  0.00    +0.000 C 
BRANCH  26  29
ATOM     29  O   UNL     1       7.723   5.674  14.777  0.00  0.00    +0.000 OA
ATOM     30  H   UNL     1       7.678   6.157  15.624  0.00  0.00    +0.000 HD
ENDBRANCH  26  29
ENDBRANCH  24  26
ENDBRANCH  23  24
ENDBRANCH  21  23
ENDBRANCH   6  19
BRANCH   1  31
ATOM     31  N   UNL     1       2.739   4.921  20.636  0.00  0.00    +0.000 N 
ATOM     32  H   UNL     1       3.171   5.094  21.548  0.00  0.00    +0.000 HD
BRANCH  31  34
ATOM     33  C   UNL     1       1.169   3.578  19.352  0.00  0.00    +0.000 C 
ATOM     34  C   UNL     1       1.522   4.106  20.742  0.00  0.00    +0.000 C 
ATOM     35  C   UNL     1       1.742   2.952  21.718  0.00  0.00    +0.000 C 
ENDBRANCH  31  34
ENDBRANCH   1  31
TORSDOF 8
ENDMDL
