MODEL 1
REMARK VINA RESULT:      -7.5      0.000      0.000
REMARK  Name = 
REMARK  12 active torsions:
REMARK  status: ('A' for Active; 'I' for Inactive)
REMARK    1  A    between atoms: C_1  and  C_2
REMARK    2  A    between atoms: C_4  and  C_5
REMARK    3  A    between atoms: C_5  and  C_6
REMARK    4  A    between atoms: C_6  and  C_7
REMARK    5  A    between atoms: C_7  and  C_8
REMARK    6  A    between atoms: C_8  and  C_9
REMARK    7  A    between atoms: C_9  and  O_10
REMARK    8  A    between atoms: O_10  and  C_11
REMARK    9  A    between atoms: C_14  and  C_15
REMARK   10  A    between atoms: C_21  and  C_22
REMARK   11  A    between atoms: C_22  and  C_23
REMARK   12  A    between atoms: C_22  and  C_24
REMARK                            x       y       z     vdW  Elec       q    Type
REMARK                         _______ _______ _______ _____ _____    ______ ____
ROOT
ATOM      1  C   UNL     1       2.650   5.018  19.093  0.00  0.00    +0.000 A 
ATOM      2  C   UNL     1       2.968   6.269  18.534  0.00  0.00    +0.000 A 
ATOM      3  C   UNL     1       2.484   7.461  19.070  0.00  0.00    +0.000 A 
ATOM      4  C   UNL     1       1.667   7.431  20.191  0.00  0.00    +0.000 A 
ATOM      5  C   UNL     1       1.357   6.202  20.775  0.00  0.00    +0.000 A 
ATOM      6  C   UNL     1       1.836   4.977  20.245  0.00  0.00    +0.000 A 
ENDROOT
BRANCH   4   7
ATOM      7  C   UNL     1       1.121   8.701  20.696  0.00  0.00    +0.000 C 
ATOM      8  N   UNL     1       0.692   9.682  19.972  0.00  0.00    +0.000 NA
ATOM      9  C   UNL     1       0.258  10.684  20.949  0.00  0.00    +0.000 C 
ATOM     10  C   UNL     1       0.464  10.048  22.305  0.00  0.00    +0.000 C 
ATOM     11  O   UNL     1       1.090   8.802  22.043  0.00  0.00    +0.000 OA
ENDBRANCH   4   7
BRANCH   6  12
ATOM     12  C   UNL     1       1.326   3.727  20.958  0.00  0.00    +0.000 C 
ATOM     13  C   UNL     1       0.615   2.802  19.966  0.00  0.00    +0.000 C 
ATOM     14  C   UNL     1       2.321   2.941  21.814  0.00  0.00    +0.000 C 
ENDBRANCH   6  12
BRANCH   1  15
ATOM     15  O   UNL     1       3.120   3.834  18.566  0.00  0.00    +0.000 OA
BRANCH  15  16
ATOM     16  C   UNL     1       4.354   3.915  17.838  0.00  0.00    +0.000 C 
BRANCH  16  17
ATOM     17  C   UNL     1       5.554   3.844  18.780  0.00  0.00    +0.000 C 
BRANCH  17  18
ATOM     18  C   UNL     1       6.539   4.994  18.515  0.00  0.00    +0.000 C 
BRANCH  18  19
ATOM     19  C   UNL     1       7.388   4.707  17.278  0.00  0.00    +0.000 C 
BRANCH  19  20
ATOM     20  C   UNL     1       7.166   5.721  16.152  0.00  0.00    +0.000 C 
BRANCH  20  24
ATOM     21  C   UNL     1       5.813   2.951  12.081  0.00  0.00    +0.000 C 
ATOM     22  C   UNL     1       6.427   3.872  13.062  0.00  0.00    +0.000 A 
ATOM     23  C   UNL     1       6.151   3.999  14.441  0.00  0.00    +0.000 A 
ATOM     24  C   UNL     1       6.970   5.018  14.860  0.00  0.00    +0.000 A 
ATOM     25  O   UNL     1       7.706   5.463  13.806  0.00  0.00    +0.000 OA
ATOM     26  N   UNL     1       7.367   4.744  12.673  0.00  0.00    +0.000 NA
ENDBRANCH  20  24
ENDBRANCH  19  20
ENDBRANCH  18  19
ENDBRANCH  17  18
ENDBRANCH  16  17
ENDBRANCH  15  16
ENDBRANCH   1  15
TORSDOF 9
ENDMDL
MODEL 2
REMARK VINA RESULT:      -7.3      2.182      7.752
REMARK  Name = 
REMARK  12 active torsions:
REMARK  status: ('A' for Active; 'I' for Inactive)
REMARK    1  A    between atoms: C_1  and  C_2
REMARK    2  A    between atoms: C_4  and  C_5
REMARK    3  A    between atoms: C_5  and  C_6
REMARK    4  A    between atoms: C_6  and  C_7
REMARK    5  A    between atoms: C_7  and  C_8
REMARK    6  A    between atoms: C_8  and  C_9
REMARK    7  A    between atoms: C_9  and  O_10
REMARK    8  A    between atoms: O_10  and  C_11
REMARK    9  A    between atoms: C_14  and  C_15
REMARK   10  A    between atoms: C_21  and  C_22
REMARK   11  A    between atoms: C_22  and  C_23
REMARK   12  A    between atoms: C_22  and  C_24
REMARK                            x       y       z     vdW  Elec       q    Type
REMARK                         _______ _______ _______ _____ _____    ______ ____
ROOT
ATOM      1  C   UNL     1       5.614   4.089  18.042  0.00  0.00    +0.000 A 
ATOM      2  C   UNL     1       5.125   3.341  16.955  0.00  0.00    +0.000 A 
ATOM      3  C   UNL     1       5.595   3.532  15.657  0.00  0.00    +0.000 A 
ATOM      4  C   UNL     1       6.577   4.480  15.412  0.00  0.00    +0.000 A 
ATOM      5  C   UNL     1       7.093   5.219  16.478  0.00  0.00    +0.000 A 
ATOM      6  C   UNL     1       6.628   5.043  17.807  0.00  0.00    +0.000 A 
ENDROOT
BRANCH   4   7
ATOM      7  C   UNL     1       7.007   4.703  14.023  0.00  0.00    +0.000 C 
ATOM      8  N   UNL     1       7.865   5.586  13.628  0.00  0.00    +0.000 NA
ATOM      9  C   UNL     1       7.939   5.391  12.178  0.00  0.00    +0.000 C 
ATOM     10  C   UNL     1       7.034   4.217  11.879  0.00  0.00    +0.000 C 
ATOM     11  O   UNL     1       6.424   3.888  13.117  0.00  0.00    +0.000 OA
ENDBRANCH   4   7
BRANCH   6  12
ATOM     12  C   UNL     1       7.241   5.994  18.831  0.00  0.00    +0.000 C 
ATOM     13  C   UNL     1       8.183   5.232  19.768  0.00  0.00    +0.000 C 
ATOM     14  C   UNL     1       7.910   7.267  18.309  0.00  0.00    +0.000 C 
ENDBRANCH   6  12
BRANCH   1  15
ATOM     15  O   UNL     1       5.153   3.910  19.328  0.00  0.00    +0.000 OA
BRANCH  15  16
ATOM     16  C   UNL     1       4.277   2.791  19.533  0.00  0.00    +0.000 C 
BRANCH  16  17
ATOM     17  C   UNL     1       4.087   2.508  21.020  0.00  0.00    +0.000 C 
BRANCH  17  18
ATOM     18  C   UNL     1       2.600   2.550  21.410  0.00  0.00    +0.000 C 
BRANCH  18  19
ATOM     19  C   UNL     1       1.716   2.635  20.167  0.00  0.00    +0.000 C 
BRANCH  19  20
ATOM     20  C   UNL     1       0.838   3.889  20.144  0.00  0.00    +0.000 C 
BRANCH  20  24
ATOM     21  C   UNL     1       3.405   7.498  17.601  0.00  0.00    +0.000 C 
ATOM     22  C   UNL     1       2.702   6.649  18.588  0.00  0.00    +0.000 A 
ATOM     23  C   UNL     1       2.189   5.345  18.418  0.00  0.00    +0.000 A 
ATOM     24  C   UNL     1       1.610   5.047  19.627  0.00  0.00    +0.000 A 
ATOM     25  O   UNL     1       1.781   6.095  20.476  0.00  0.00    +0.000 OA
ATOM     26  N   UNL     1       2.469   7.105  19.825  0.00  0.00    +0.000 NA
ENDBRANCH  20  24
ENDBRANCH  19  20
ENDBRANCH  18  19
ENDBRANCH  17  18
ENDBRANCH  16  17
ENDBRANCH  15  16
ENDBRANCH   1  15
TORSDOF 9
ENDMDL
MODEL 3
REMARK VINA RESULT:      -7.1      1.917      8.738
REMARK  Name = 
REMARK  12 active torsions:
REMARK  status: ('A' for Active; 'I' for Inactive)
REMARK    1  A    between atoms: C_1  and  C_2
REMARK    2  A    between atoms: C_4  and  C_5
REMARK    3  A    between atoms: C_5  and  C_6
REMARK    4  A    between atoms: C_6  and  C_7
REMARK    5  A    between atoms: C_7  and  C_8
REMARK    6  A    between atoms: C_8  and  C_9
REMARK    7  A    between atoms: C_9  and  O_10
REMARK    8  A    between atoms: O_10  and  C_11
REMARK    9  A    between atoms: C_14  and  C_15
REMARK   10  A    between atoms: C_21  and  C_22
REMARK   11  A    between atoms: C_22  and  C_23
REMARK   12  A    between atoms: C_22  and  C_24
REMARK                            x       y       z     vdW  Elec       q    Type
REMARK                         _______ _______ _______ _____ _____    ______ ____
ROOT
ATOM      1  C   UNL     1       5.088   4.914  18.031  0.00  0.00    +0.000 A 
ATOM      2  C   UNL     1       4.429   4.060  17.128  0.00  0.00    +0.000 A 
ATOM      3  C   UNL     1       4.889   3.865  15.827  0.00  0.00    +0.000 A 
ATOM      4  C   UNL     1       6.032   4.522  15.395  0.00  0.00    +0.000 A 
ATOM      5  C   UNL     1       6.715   5.357  16.281  0.00  0.00    +0.000 A 
ATOM      6  C   UNL     1       6.263   5.572  17.608  0.00  0.00    +0.000 A 
ENDROOT
BRANCH   4   7
ATOM      7  C   UNL     1       6.457   4.345  13.998  0.00  0.00    +0.000 C 
ATOM      8  N   UNL     1       6.028   3.436  13.185  0.00  0.00    +0.000 NA
ATOM      9  C   UNL     1       6.753   3.699  11.939  0.00  0.00    +0.000 C 
ATOM     10  C   UNL     1       7.582   4.936  12.203  0.00  0.00    +0.000 C 
ATOM     11  O   UNL     1       7.382   5.236  13.575  0.00  0.00    +0.000 OA
ENDBRANCH   4   7
BRANCH   6  12
ATOM     12  C   UNL     1       7.081   6.582  18.408  0.00  0.00    +0.000 C 
ATOM     13  C   UNL     1       8.100   5.859  19.294  0.00  0.00    +0.000 C 
ATOM     14  C   UNL     1       7.747   7.726  17.640  0.00  0.00    +0.000 C 
ENDBRANCH   6  12
BRANCH   1  15
ATOM     15  O   UNL     1       4.637   5.116  19.318  0.00  0.00    +0.000 OA
BRANCH  15  16
ATOM     16  C   UNL     1       3.483   5.958  19.455  0.00  0.00    +0.000 C 
BRANCH  16  17
ATOM     17  C   UNL     1       2.984   6.433  18.093  0.00  0.00    +0.000 C 
BRANCH  17  18
ATOM     18  C   UNL     1       3.095   7.960  17.960  0.00  0.00    +0.000 C 
BRANCH  18  19
ATOM     19  C   UNL     1       1.720   8.587  17.732  0.00  0.00    +0.000 C 
BRANCH  19  20
ATOM     20  C   UNL     1       1.553   9.933  18.441  0.00  0.00    +0.000 C 
BRANCH  20  24
ATOM     21  C   UNL     1      -0.664  10.064  23.039  0.00  0.00    +0.000 C 
ATOM     22  C   UNL     1       0.014   9.714  21.772  0.00  0.00    +0.000 A 
ATOM     23  C   UNL     1       0.453  10.576  20.743  0.00  0.00    +0.000 A 
ATOM     24  C   UNL     1       0.976   9.733  19.793  0.00  0.00    +0.000 A 
ATOM     25  O   UNL     1       0.876   8.449  20.231  0.00  0.00    +0.000 OA
ATOM     26  N   UNL     1       0.271   8.434  21.476  0.00  0.00    +0.000 NA
ENDBRANCH  20  24
ENDBRANCH  19  20
ENDBRANCH  18  19
ENDBRANCH  17  18
ENDBRANCH  16  17
ENDBRANCH  15  16
ENDBRANCH   1  15
TORSDOF 9
ENDMDL
MODEL 4
REMARK VINA RESULT:      -7.1      3.344      8.416
REMARK  Name = 
REMARK  12 active torsions:
REMARK  status: ('A' for Active; 'I' for Inactive)
REMARK    1  A    between atoms: C_1  and  C_2
REMARK    2  A    between atoms: C_4  and  C_5
REMARK    3  A    between atoms: C_5  and  C_6
REMARK    4  A    between atoms: C_6  and  C_7
REMARK    5  A    between atoms: C_7  and  C_8
REMARK    6  A    between atoms: C_8  and  C_9
REMARK    7  A    between atoms: C_9  and  O_10
REMARK    8  A    between atoms: O_10  and  C_11
REMARK    9  A    between atoms: C_14  and  C_15
REMARK   10  A    between atoms: C_21  and  C_22
REMARK   11  A    between atoms: C_22  and  C_23
REMARK   12  A    between atoms: C_22  and  C_24
REMARK                            x       y       z     vdW  Elec       q    Type
REMARK                         _______ _______ _______ _____ _____    ______ ____
ROOT
ATOM      1  C   UNL     1       2.088   6.325  19.875  0.00  0.00    +0.000 A 
ATOM      2  C   UNL     1       2.673   7.200  18.942  0.00  0.00    +0.000 A 
ATOM      3  C   UNL     1       3.502   6.742  17.920  0.00  0.00    +0.000 A 
ATOM      4  C   UNL     1       3.767   5.385  17.803  0.00  0.00    +0.000 A 
ATOM      5  C   UNL     1       3.179   4.496  18.704  0.00  0.00    +0.000 A 
ATOM      6  C   UNL     1       2.333   4.940  19.753  0.00  0.00    +0.000 A 
ENDROOT
BRANCH   4   7
ATOM      7  C   UNL     1       4.695   4.938  16.753  0.00  0.00    +0.000 C 
ATOM      8  N   UNL     1       5.099   3.724  16.566  0.00  0.00    +0.000 NA
ATOM      9  C   UNL     1       5.992   3.819  15.409  0.00  0.00    +0.000 C 
ATOM     10  C   UNL     1       5.943   5.266  14.972  0.00  0.00    +0.000 C 
ATOM     11  O   UNL     1       5.140   5.922  15.941  0.00  0.00    +0.000 OA
ENDBRANCH   4   7
BRANCH   6  12
ATOM     12  C   UNL     1       1.850   3.841  20.696  0.00  0.00    +0.000 C 
ATOM     13  C   UNL     1       0.662   3.096  20.079  0.00  0.00    +0.000 C 
ATOM     14  C   UNL     1       2.889   2.854  21.230  0.00  0.00    +0.000 C 
ENDBRANCH   6  12
BRANCH   1  15
ATOM     15  O   UNL     1       1.270   6.769  20.891  0.00  0.00    +0.000 OA
BRANCH  15  16
ATOM     16  C   UNL     1       1.542   8.089  21.387  0.00  0.00    +0.000 C 
BRANCH  16  17
ATOM     17  C   UNL     1       0.320   8.992  21.245  0.00  0.00    +0.000 C 
BRANCH  17  18
ATOM     18  C   UNL     1       0.400   9.842  19.967  0.00  0.00    +0.000 C 
BRANCH  18  19
ATOM     19  C   UNL     1      -0.997  10.121  19.413  0.00  0.00    +0.000 C 
BRANCH  19  20
ATOM     20  C   UNL     1      -0.986  10.497  17.928  0.00  0.00    +0.000 C 
BRANCH  20  24
ATOM     21  C   UNL     1      -5.722  12.235  17.135  0.00  0.00    +0.000 C 
ATOM     22  C   UNL     1      -4.381  11.612  17.069  0.00  0.00    +0.000 A 
ATOM     23  C   UNL     1      -3.412  11.503  18.089  0.00  0.00    +0.000 A 
ATOM     24  C   UNL     1      -2.350  10.875  17.485  0.00  0.00    +0.000 A 
ATOM     25  O   UNL     1      -2.668  10.605  16.190  0.00  0.00    +0.000 OA
ATOM     26  N   UNL     1      -3.946  11.067  15.925  0.00  0.00    +0.000 NA
ENDBRANCH  20  24
ENDBRANCH  19  20
ENDBRANCH  18  19
ENDBRANCH  17  18
ENDBRANCH  16  17
ENDBRANCH  15  16
ENDBRANCH   1  15
TORSDOF 9
ENDMDL
MODEL 5
REMARK VINA RESULT:      -7.1      3.099      9.944
REMARK  Name = 
REMARK  12 active torsions:
REMARK  status: ('A' for Active; 'I' for Inactive)
REMARK    1  A    between atoms: C_1  and  C_2
REMARK    2  A    between atoms: C_4  and  C_5
REMARK    3  A    between atoms: C_5  and  C_6
REMARK    4  A    between atoms: C_6  and  C_7
REMARK    5  A    between atoms: C_7  and  C_8
REMARK    6  A    between atoms: C_8  and  C_9
REMARK    7  A    between atoms: C_9  and  O_10
REMARK    8  A    between atoms: O_10  and  C_11
REMARK    9  A    between atoms: C_14  and  C_15
REMARK   10  A    between atoms: C_21  and  C_22
REMARK   11  A    between atoms: C_22  and  C_23
REMARK   12  A    between atoms: C_22  and  C_24
REMARK                            x       y       z     vdW  Elec       q    Type
REMARK                         _______ _______ _______ _____ _____    ______ ____
ROOT
ATOM      1  C   UNL     1       2.378   6.408  19.555  0.00  0.00    +0.000 A 
ATOM      2  C   UNL     1       2.882   7.337  18.626  0.00  0.00    +0.000 A 
ATOM      3  C   UNL     1       3.755   6.962  17.607  0.00  0.00    +0.000 A 
ATOM      4  C   UNL     1       4.148   5.637  17.489  0.00  0.00    +0.000 A 
ATOM      5  C   UNL     1       3.644   4.693  18.386  0.00  0.00    +0.000 A 
ATOM      6  C   UNL     1       2.755   5.053  19.432  0.00  0.00    +0.000 A 
ENDROOT
BRANCH   4   7
ATOM      7  C   UNL     1       5.120   5.283  16.443  0.00  0.00    +0.000 C 
ATOM      8  N   UNL     1       6.081   6.035  16.017  0.00  0.00    +0.000 NA
ATOM      9  C   UNL     1       6.746   5.222  14.996  0.00  0.00    +0.000 C 
ATOM     10  C   UNL     1       6.025   3.894  14.999  0.00  0.00    +0.000 C 
ATOM     11  O   UNL     1       4.949   4.053  15.911  0.00  0.00    +0.000 OA
ENDBRANCH   4   7
BRANCH   6  12
ATOM     12  C   UNL     1       2.374   3.911  20.370  0.00  0.00    +0.000 C 
ATOM     13  C   UNL     1       0.943   3.444  20.086  0.00  0.00    +0.000 C 
ATOM     14  C   UNL     1       3.325   2.716  20.459  0.00  0.00    +0.000 C 
ENDBRANCH   6  12
BRANCH   1  15
ATOM     15  O   UNL     1       1.517   6.770  20.568  0.00  0.00    +0.000 OA
BRANCH  15  16
ATOM     16  C   UNL     1       1.427   8.176  20.845  0.00  0.00    +0.000 C 
BRANCH  16  17
ATOM     17  C   UNL     1       0.151   8.503  21.616  0.00  0.00    +0.000 C 
BRANCH  17  18
ATOM     18  C   UNL     1      -0.214   9.991  21.485  0.00  0.00    +0.000 C 
BRANCH  18  19
ATOM     19  C   UNL     1      -0.857  10.507  22.771  0.00  0.00    +0.000 C 
BRANCH  19  20
ATOM     20  C   UNL     1      -1.054  12.026  22.772  0.00  0.00    +0.000 C 
BRANCH  20  24
ATOM     21  C   UNL     1      -5.891  13.437  21.940  0.00  0.00    +0.000 C 
ATOM     22  C   UNL     1      -4.606  12.917  22.458  0.00  0.00    +0.000 A 
ATOM     23  C   UNL     1      -3.315  13.053  21.903  0.00  0.00    +0.000 A 
ATOM     24  C   UNL     1      -2.501  12.356  22.761  0.00  0.00    +0.000 A 
ATOM     25  O   UNL     1      -3.249  11.852  23.778  0.00  0.00    +0.000 OA
ATOM     26  N   UNL     1      -4.575  12.203  23.591  0.00  0.00    +0.000 NA
ENDBRANCH  20  24
ENDBRANCH  19  20
ENDBRANCH  18  19
ENDBRANCH  17  18
ENDBRANCH  16  17
ENDBRANCH  15  16
ENDBRANCH   1  15
TORSDOF 9
ENDMDL
MODEL 6
REMARK VINA RESULT:      -7.0      1.571      8.784
REMARK  Name = 
REMARK  12 active torsions:
REMARK  status: ('A' for Active; 'I' for Inactive)
REMARK    1  A    between atoms: C_1  and  C_2
REMARK    2  A    between atoms: C_4  and  C_5
REMARK    3  A    between atoms: C_5  and  C_6
REMARK    4  A    between atoms: C_6  and  C_7
REMARK    5  A    between atoms: C_7  and  C_8
REMARK    6  A    between atoms: C_8  and  C_9
REMARK    7  A    between atoms: C_9  and  O_10
REMARK    8  A    between atoms: O_10  and  C_11
REMARK    9  A    between atoms: C_14  and  C_15
REMARK   10  A    between atoms: C_21  and  C_22
REMARK   11  A    between atoms: C_22  and  C_23
REMARK   12  A    between atoms: C_22  and  C_24
REMARK                            x       y       z     vdW  Elec       q    Type
REMARK                         _______ _______ _______ _____ _____    ______ ____
ROOT
ATOM      1  C   UNL     1       4.965   5.132  17.958  0.00  0.00    +0.000 A 
ATOM      2  C   UNL     1       4.274   4.359  17.007  0.00  0.00    +0.000 A 
ATOM      3  C   UNL     1       4.787   4.126  15.733  0.00  0.00    +0.000 A 
ATOM      4  C   UNL     1       6.016   4.662  15.375  0.00  0.00    +0.000 A 
ATOM      5  C   UNL     1       6.729   5.414  16.310  0.00  0.00    +0.000 A 
ATOM      6  C   UNL     1       6.226   5.666  17.612  0.00  0.00    +0.000 A 
ENDROOT
BRANCH   4   7
ATOM      7  C   UNL     1       6.501   4.451  14.003  0.00  0.00    +0.000 C 
ATOM      8  N   UNL     1       6.090   3.537  13.186  0.00  0.00    +0.000 NA
ATOM      9  C   UNL     1       6.877   3.762  11.971  0.00  0.00    +0.000 C 
ATOM     10  C   UNL     1       7.722   4.985  12.253  0.00  0.00    +0.000 C 
ATOM     11  O   UNL     1       7.464   5.313  13.609  0.00  0.00    +0.000 OA
ENDBRANCH   4   7
BRANCH   6  12
ATOM     12  C   UNL     1       7.097   6.579  18.471  0.00  0.00    +0.000 C 
ATOM     13  C   UNL     1       8.069   5.747  19.314  0.00  0.00    +0.000 C 
ATOM     14  C   UNL     1       7.831   7.725  17.772  0.00  0.00    +0.000 C 
ENDBRANCH   6  12
BRANCH   1  15
ATOM     15  O   UNL     1       4.464   5.372  19.219  0.00  0.00    +0.000 OA
BRANCH  15  16
ATOM     16  C   UNL     1       3.480   4.440  19.693  0.00  0.00    +0.000 C 
BRANCH  16  17
ATOM     17  C   UNL     1       2.077   5.037  19.617  0.00  0.00    +0.000 C 
BRANCH  17  18
ATOM     18  C   UNL     1       1.809   5.985  20.798  0.00  0.00    +0.000 C 
BRANCH  18  19
ATOM     19  C   UNL     1       1.669   7.427  20.315  0.00  0.00    +0.000 C 
BRANCH  19  20
ATOM     20  C   UNL     1       0.900   8.314  21.298  0.00  0.00    +0.000 C 
BRANCH  20  24
ATOM     21  C   UNL     1       0.842  12.871  18.992  0.00  0.00    +0.000 C 
ATOM     22  C   UNL     1       0.904  11.725  19.926  0.00  0.00    +0.000 A 
ATOM     23  C   UNL     1       0.908  10.345  19.625  0.00  0.00    +0.000 A 
ATOM     24  C   UNL     1       0.940   9.729  20.851  0.00  0.00    +0.000 A 
ATOM     25  O   UNL     1       0.974  10.676  21.827  0.00  0.00    +0.000 OA
ATOM     26  N   UNL     1       0.952  11.933  21.248  0.00  0.00    +0.000 NA
ENDBRANCH  20  24
ENDBRANCH  19  20
ENDBRANCH  18  19
ENDBRANCH  17  18
ENDBRANCH  16  17
ENDBRANCH  15  16
ENDBRANCH   1  15
TORSDOF 9
ENDMDL
MODEL 7
REMARK VINA RESULT:      -7.0      1.831      8.775
REMARK  Name = 
REMARK  12 active torsions:
REMARK  status: ('A' for Active; 'I' for Inactive)
REMARK    1  A    between atoms: C_1  and  C_2
REMARK    2  A    between atoms: C_4  and  C_5
REMARK    3  A    between atoms: C_5  and  C_6
REMARK    4  A    between atoms: C_6  and  C_7
REMARK    5  A    between atoms: C_7  and  C_8
REMARK    6  A    between atoms: C_8  and  C_9
REMARK    7  A    between atoms: C_9  and  O_10
REMARK    8  A    between atoms: O_10  and  C_11
REMARK    9  A    between atoms: C_14  and  C_15
REMARK   10  A    between atoms: C_21  and  C_22
REMARK   11  A    between atoms: C_22  and  C_23
REMARK   12  A    between atoms: C_22  and  C_24
REMARK                            x       y       z     vdW  Elec       q    Type
REMARK                         _______ _______ _______ _____ _____    ______ ____
ROOT
ATOM      1  C   UNL     1       4.314   5.478  18.041  0.00  0.00    +0.000 A 
ATOM      2  C   UNL     1       4.976   6.508  17.347  0.00  0.00    +0.000 A 
ATOM      3  C   UNL     1       5.617   6.284  16.130  0.00  0.00    +0.000 A 
ATOM      4  C   UNL     1       5.611   5.014  15.571  0.00  0.00    +0.000 A 
ATOM      5  C   UNL     1       4.941   3.982  16.231  0.00  0.00    +0.000 A 
ATOM      6  C   UNL     1       4.283   4.187  17.471  0.00  0.00    +0.000 A 
ENDROOT
BRANCH   4   7
ATOM      7  C   UNL     1       6.350   4.795  14.318  0.00  0.00    +0.000 C 
ATOM      8  N   UNL     1       7.460   5.367  13.984  0.00  0.00    +0.000 NA
ATOM      9  C   UNL     1       7.769   4.805  12.667  0.00  0.00    +0.000 C 
ATOM     10  C   UNL     1       6.680   3.794  12.388  0.00  0.00    +0.000 C 
ATOM     11  O   UNL     1       5.774   3.910  13.474  0.00  0.00    +0.000 OA
ENDBRANCH   4   7
BRANCH   6  12
ATOM     12  C   UNL     1       3.681   2.930  18.092  0.00  0.00    +0.000 C 
ATOM     13  C   UNL     1       4.226   2.722  19.508  0.00  0.00    +0.000 C 
ATOM     14  C   UNL     1       2.158   2.787  18.073  0.00  0.00    +0.000 C 
ENDBRANCH   6  12
BRANCH   1  15
ATOM     15  O   UNL     1       3.681   5.689  19.246  0.00  0.00    +0.000 OA
BRANCH  15  16
ATOM     16  C   UNL     1       2.324   6.151  19.172  0.00  0.00    +0.000 C 
BRANCH  16  17
ATOM     17  C   UNL     1       2.249   7.666  19.344  0.00  0.00    +0.000 C 
BRANCH  17  18
ATOM     18  C   UNL     1       1.930   8.364  18.012  0.00  0.00    +0.000 C 
BRANCH  18  19
ATOM     19  C   UNL     1       1.535   9.821  18.244  0.00  0.00    +0.000 C 
BRANCH  19  20
ATOM     20  C   UNL     1       0.030  10.005  18.461  0.00  0.00    +0.000 C 
BRANCH  20  24
ATOM     21  C   UNL     1      -1.175  12.250  22.887  0.00  0.00    +0.000 C 
ATOM     22  C   UNL     1      -0.759  11.347  21.791  0.00  0.00    +0.000 A 
ATOM     23  C   UNL     1      -0.596  11.646  20.421  0.00  0.00    +0.000 A 
ATOM     24  C   UNL     1      -0.237  10.448  19.852  0.00  0.00    +0.000 A 
ATOM     25  O   UNL     1      -0.168   9.496  20.821  0.00  0.00    +0.000 OA
ATOM     26  N   UNL     1      -0.496  10.058  22.042  0.00  0.00    +0.000 NA
ENDBRANCH  20  24
ENDBRANCH  19  20
ENDBRANCH  18  19
ENDBRANCH  17  18
ENDBRANCH  16  17
ENDBRANCH  15  16
ENDBRANCH   1  15
TORSDOF 9
ENDMDL
MODEL 8
REMARK VINA RESULT:      -7.0      1.678      9.246
REMARK  Name = 
REMARK  12 active torsions:
REMARK  status: ('A' for Active; 'I' for Inactive)
REMARK    1  A    between atoms: C_1  and  C_2
REMARK    2  A    between atoms: C_4  and  C_5
REMARK    3  A    between atoms: C_5  and  C_6
REMARK    4  A    between atoms: C_6  and  C_7
REMARK    5  A    between atoms: C_7  and  C_8
REMARK    6  A    between atoms: C_8  and  C_9
REMARK    7  A    between atoms: C_9  and  O_10
REMARK    8  A    between atoms: O_10  and  C_11
REMARK    9  A    between atoms: C_14  and  C_15
REMARK   10  A    between atoms: C_21  and  C_22
REMARK   11  A    between atoms: C_22  and  C_23
REMARK   12  A    between atoms: C_22  and  C_24
REMARK                            x       y       z     vdW  Elec       q    Type
REMARK                         _______ _______ _______ _____ _____    ______ ____
ROOT
ATOM      1  C   UNL     1       5.126   4.732  17.964  0.00  0.00    +0.000 A 
ATOM      2  C   UNL     1       4.523   3.906  16.998  0.00  0.00    +0.000 A 
ATOM      3  C   UNL     1       5.016   3.810  15.698  0.00  0.00    +0.000 A 
ATOM      4  C   UNL     1       6.137   4.541  15.330  0.00  0.00    +0.000 A 
ATOM      5  C   UNL     1       6.765   5.350  16.279  0.00  0.00    +0.000 A 
ATOM      6  C   UNL     1       6.279   5.464  17.607  0.00  0.00    +0.000 A 
ENDROOT
BRANCH   4   7
ATOM      7  C   UNL     1       6.596   4.468  13.935  0.00  0.00    +0.000 C 
ATOM      8  N   UNL     1       7.431   5.276  13.369  0.00  0.00    +0.000 NA
ATOM      9  C   UNL     1       7.551   4.767  12.001  0.00  0.00    +0.000 C 
ATOM     10  C   UNL     1       6.698   3.520  11.953  0.00  0.00    +0.000 C 
ATOM     11  O   UNL     1       6.067   3.449  13.222  0.00  0.00    +0.000 OA
ENDBRANCH   4   7
BRANCH   6  12
ATOM     12  C   UNL     1       7.036   6.459  18.483  0.00  0.00    +0.000 C 
ATOM     13  C   UNL     1       7.968   5.717  19.446  0.00  0.00    +0.000 C 
ATOM     14  C   UNL     1       7.777   7.601  17.785  0.00  0.00    +0.000 C 
ENDBRANCH   6  12
BRANCH   1  15
ATOM     15  O   UNL     1       4.643   4.836  19.251  0.00  0.00    +0.000 OA
BRANCH  15  16
ATOM     16  C   UNL     1       3.215   4.792  19.392  0.00  0.00    +0.000 C 
BRANCH  16  17
ATOM     17  C   UNL     1       2.697   6.027  20.125  0.00  0.00    +0.000 C 
BRANCH  17  18
ATOM     18  C   UNL     1       2.532   7.216  19.165  0.00  0.00    +0.000 C 
BRANCH  18  19
ATOM     19  C   UNL     1       1.522   8.222  19.714  0.00  0.00    +0.000 C 
BRANCH  19  20
ATOM     20  C   UNL     1       1.418   8.189  21.242  0.00  0.00    +0.000 C 
BRANCH  20  24
ATOM     21  C   UNL     1      -1.236  12.467  22.100  0.00  0.00    +0.000 C 
ATOM     22  C   UNL     1      -0.484  11.195  22.170  0.00  0.00    +0.000 A 
ATOM     23  C   UNL     1       0.183  10.510  21.130  0.00  0.00    +0.000 A 
ATOM     24  C   UNL     1       0.677   9.378  21.731  0.00  0.00    +0.000 A 
ATOM     25  O   UNL     1       0.347   9.392  23.051  0.00  0.00    +0.000 OA
ATOM     26  N   UNL     1      -0.383  10.534  23.330  0.00  0.00    +0.000 NA
ENDBRANCH  20  24
ENDBRANCH  19  20
ENDBRANCH  18  19
ENDBRANCH  17  18
ENDBRANCH  16  17
ENDBRANCH  15  16
ENDBRANCH   1  15
TORSDOF 9
ENDMDL
MODEL 9
REMARK VINA RESULT:      -7.0      2.109      3.256
REMARK  Name = 
REMARK  12 active torsions:
REMARK  status: ('A' for Active; 'I' for Inactive)
REMARK    1  A    between atoms: C_1  and  C_2
REMARK    2  A    between atoms: C_4  and  C_5
REMARK    3  A    between atoms: C_5  and  C_6
REMARK    4  A    between atoms: C_6  and  C_7
REMARK    5  A    between atoms: C_7  and  C_8
REMARK    6  A    between atoms: C_8  and  C_9
REMARK    7  A    between atoms: C_9  and  O_10
REMARK    8  A    between atoms: O_10  and  C_11
REMARK    9  A    between atoms: C_14  and  C_15
REMARK   10  A    between atoms: C_21  and  C_22
REMARK   11  A    between atoms: C_22  and  C_23
REMARK   12  A    between atoms: C_22  and  C_24
REMARK                            x       y       z     vdW  Elec       q    Type
REMARK                         _______ _______ _______ _____ _____    ______ ____
ROOT
ATOM      1  C   UNL     1       2.749   5.429  18.540  0.00  0.00    +0.000 A 
ATOM      2  C   UNL     1       2.745   6.743  18.037  0.00  0.00    +0.000 A 
ATOM      3  C   UNL     1       2.254   7.816  18.779  0.00  0.00    +0.000 A 
ATOM      4  C   UNL     1       1.753   7.600  20.054  0.00  0.00    +0.000 A 
ATOM      5  C   UNL     1       1.767   6.308  20.582  0.00  0.00    +0.000 A 
ATOM      6  C   UNL     1       2.260   5.201  19.844  0.00  0.00    +0.000 A 
ENDROOT
BRANCH   4   7
ATOM      7  C   UNL     1       1.184   8.741  20.788  0.00  0.00    +0.000 C 
ATOM      8  N   UNL     1       0.918   9.904  20.290  0.00  0.00    +0.000 NA
ATOM      9  C   UNL     1       0.372  10.660  21.420  0.00  0.00    +0.000 C 
ATOM     10  C   UNL     1       0.329   9.689  22.578  0.00  0.00    +0.000 C 
ATOM     11  O   UNL     1       0.938   8.502  22.095  0.00  0.00    +0.000 OA
ENDBRANCH   4   7
BRANCH   6  12
ATOM     12  C   UNL     1       2.117   3.851  20.542  0.00  0.00    +0.000 C 
ATOM     13  C   UNL     1       0.820   3.162  20.106  0.00  0.00    +0.000 C 
ATOM     14  C   UNL     1       3.297   2.881  20.463  0.00  0.00    +0.000 C 
ENDBRANCH   6  12
BRANCH   1  15
ATOM     15  O   UNL     1       3.228   4.362  17.812  0.00  0.00    +0.000 OA
BRANCH  15  16
ATOM     16  C   UNL     1       4.171   4.679  16.777  0.00  0.00    +0.000 C 
BRANCH  16  17
ATOM     17  C   UNL     1       5.175   3.545  16.584  0.00  0.00    +0.000 C 
BRANCH  17  18
ATOM     18  C   UNL     1       6.150   3.854  15.435  0.00  0.00    +0.000 C 
BRANCH  18  19
ATOM     19  C   UNL     1       7.178   4.899  15.863  0.00  0.00    +0.000 C 
BRANCH  19  20
ATOM     20  C   UNL     1       7.182   5.150  17.373  0.00  0.00    +0.000 C 
BRANCH  20  24
ATOM     21  C   UNL     1       8.927   9.721  18.837  0.00  0.00    +0.000 C 
ATOM     22  C   UNL     1       8.226   8.570  18.227  0.00  0.00    +0.000 A 
ATOM     23  C   UNL     1       8.345   7.199  18.544  0.00  0.00    +0.000 A 
ATOM     24  C   UNL     1       7.507   6.570  17.657  0.00  0.00    +0.000 A 
ATOM     25  O   UNL     1       6.907   7.503  16.870  0.00  0.00    +0.000 OA
ATOM     26  N   UNL     1       7.357   8.763  17.226  0.00  0.00    +0.000 NA
ENDBRANCH  20  24
ENDBRANCH  19  20
ENDBRANCH  18  19
ENDBRANCH  17  18
ENDBRANCH  16  17
ENDBRANCH  15  16
ENDBRANCH   1  15
TORSDOF 9
ENDMDL
