MODEL 1
REMARK VINA RESULT:      -8.6      0.000      0.000
REMARK  Name = 
REMARK  6 active torsions:
REMARK  status: ('A' for Active; 'I' for Inactive)
REMARK    1  A    between atoms: C_1  and  N_2
REMARK    2  A    between atoms: C_3  and  C_4
REMARK    3  A    between atoms: C_7  and  S_8
REMARK    4  A    between atoms: S_8  and  C_9
REMARK    5  A    between atoms: C_15  and  S_16
REMARK    6  A    between atoms: S_16  and  C_17
REMARK                            x       y       z     vdW  Elec       q    Type
REMARK                         _______ _______ _______ _____ _____    ______ ____
ROOT
ATOM      1  C   UNL     1       0.861   4.541  20.491  0.00  0.00    +0.000 C 
ATOM      2  N   UNL     1       1.926   4.787  19.550  0.00  0.00    +0.000 N 
ATOM      3  C   UNL     1       2.378   5.987  19.029  0.00  0.00    +0.000 A 
ATOM      4  N   UNL     1       3.278   5.755  18.080  0.00  0.00    +0.000 NA
ATOM      5  C   UNL     1       3.470   4.387  18.047  0.00  0.00    +0.000 A 
ATOM      6  C   UNL     1       4.289   3.529  17.305  0.00  0.00    +0.000 A 
ATOM      7  N   UNL     1       4.244   2.190  17.531  0.00  0.00    +0.000 NA
ATOM      8  C   UNL     1       3.396   1.743  18.480  0.00  0.00    +0.000 A 
ATOM      9  N   UNL     1       2.554   2.461  19.245  0.00  0.00    +0.000 NA
ATOM     10  C   UNL     1       2.647   3.774  18.972  0.00  0.00    +0.000 A 
ENDROOT
BRANCH   3  11
ATOM     11  C   UNL     1       1.933   7.332  19.426  0.00  0.00    +0.000 A 
ATOM     12  C   UNL     1       1.604   7.647  20.752  0.00  0.00    +0.000 A 
ATOM     13  C   UNL     1       1.147   8.923  21.098  0.00  0.00    +0.000 A 
ATOM     14  C   UNL     1       1.055   9.924  20.128  0.00  0.00    +0.000 A 
ATOM     15  C   UNL     1       1.426   9.638  18.812  0.00  0.00    +0.000 A 
ATOM     16  C   UNL     1       1.864   8.353  18.466  0.00  0.00    +0.000 A 
BRANCH  14  17
ATOM     17  S   UNL     1       0.444  11.557  20.599  0.00  0.00    +0.000 S 
ATOM     18  C   UNL     1      -0.442  11.041  22.093  0.00  0.00    +0.000 C 
ATOM     19  O   UNL     1       1.687  12.400  21.060  0.00  0.00    +0.000 OA
ENDBRANCH  14  17
ENDBRANCH   3  11
BRANCH   6  20
ATOM     20  S   UNL     1       5.310   4.155  16.008  0.00  0.00    +0.000 S 
BRANCH  20  21
ATOM     21  C   UNL     1       6.404   5.244  16.896  0.00  0.00    +0.000 A 
ATOM     22  C   UNL     1       6.450   6.605  16.560  0.00  0.00    +0.000 A 
ATOM     23  C   UNL     1       7.246   7.488  17.296  0.00  0.00    +0.000 A 
ATOM     24  C   UNL     1       7.992   7.009  18.366  0.00  0.00    +0.000 A 
ATOM     25  F   UNL     1       8.745   7.855  19.080  0.00  0.00    +0.000 F 
ATOM     26  C   UNL     1       7.956   5.661  18.713  0.00  0.00    +0.000 A 
ATOM     27  C   UNL     1       7.157   4.780  17.982  0.00  0.00    +0.000 A 
ENDBRANCH  20  21
ENDBRANCH   6  20
TORSDOF 4
ENDMDL
MODEL 2
REMARK VINA RESULT:      -8.4      0.479      1.043
REMARK  Name = 
REMARK  6 active torsions:
REMARK  status: ('A' for Active; 'I' for Inactive)
REMARK    1  A    between atoms: C_1  and  N_2
REMARK    2  A    between atoms: C_3  and  C_4
REMARK    3  A    between atoms: C_7  and  S_8
REMARK    4  A    between atoms: S_8  and  C_9
REMARK    5  A    between atoms: C_15  and  S_16
REMARK    6  A    between atoms: S_16  and  C_17
REMARK                            x       y       z     vdW  Elec       q    Type
REMARK                         _______ _______ _______ _____ _____    ______ ____
ROOT
ATOM      1  C   UNL     1       0.858   4.714  20.386  0.00  0.00    +0.000 C 
ATOM      2  N   UNL     1       1.960   4.879  19.469  0.00  0.00    +0.000 N 
ATOM      3  C   UNL     1       2.439   6.031  18.869  0.00  0.00    +0.000 A 
ATOM      4  N   UNL     1       3.373   5.718  17.979  0.00  0.00    +0.000 NA
ATOM      5  C   UNL     1       3.557   4.351  18.065  0.00  0.00    +0.000 A 
ATOM      6  C   UNL     1       4.399   3.433  17.428  0.00  0.00    +0.000 A 
ATOM      7  N   UNL     1       4.338   2.117  17.761  0.00  0.00    +0.000 NA
ATOM      8  C   UNL     1       3.451   1.752  18.710  0.00  0.00    +0.000 A 
ATOM      9  N   UNL     1       2.584   2.533  19.380  0.00  0.00    +0.000 NA
ATOM     10  C   UNL     1       2.696   3.819  19.005  0.00  0.00    +0.000 A 
ENDROOT
BRANCH   3  11
ATOM     11  C   UNL     1       1.988   7.404  19.137  0.00  0.00    +0.000 A 
ATOM     12  C   UNL     1       1.885   8.366  18.122  0.00  0.00    +0.000 A 
ATOM     13  C   UNL     1       1.490   9.677  18.408  0.00  0.00    +0.000 A 
ATOM     14  C   UNL     1       1.145  10.040  19.712  0.00  0.00    +0.000 A 
ATOM     15  C   UNL     1       1.197   9.079  20.725  0.00  0.00    +0.000 A 
ATOM     16  C   UNL     1       1.613   7.772  20.438  0.00  0.00    +0.000 A 
BRANCH  14  17
ATOM     17  S   UNL     1       0.657  11.744  20.056  0.00  0.00    +0.000 S 
ATOM     18  C   UNL     1      -1.116  11.431  20.259  0.00  0.00    +0.000 C 
ATOM     19  O   UNL     1       1.232  12.114  21.470  0.00  0.00    +0.000 OA
ENDBRANCH  14  17
ENDBRANCH   3  11
BRANCH   6  20
ATOM     20  S   UNL     1       5.473   3.947  16.124  0.00  0.00    +0.000 S 
BRANCH  20  21
ATOM     21  C   UNL     1       6.509   5.136  16.951  0.00  0.00    +0.000 A 
ATOM     22  C   UNL     1       6.550   6.460  16.490  0.00  0.00    +0.000 A 
ATOM     23  C   UNL     1       7.298   7.423  17.172  0.00  0.00    +0.000 A 
ATOM     24  C   UNL     1       8.003   7.062  18.313  0.00  0.00    +0.000 A 
ATOM     25  F   UNL     1       8.711   7.986  18.975  0.00  0.00    +0.000 F 
ATOM     26  C   UNL     1       7.973   5.752  18.785  0.00  0.00    +0.000 A 
ATOM     27  C   UNL     1       7.221   4.790  18.107  0.00  0.00    +0.000 A 
ENDBRANCH  20  21
ENDBRANCH   6  20
TORSDOF 4
ENDMDL
MODEL 3
REMARK VINA RESULT:      -8.3      0.178      1.325
REMARK  Name = 
REMARK  6 active torsions:
REMARK  status: ('A' for Active; 'I' for Inactive)
REMARK    1  A    between atoms: C_1  and  N_2
REMARK    2  A    between atoms: C_3  and  C_4
REMARK    3  A    between atoms: C_7  and  S_8
REMARK    4  A    between atoms: S_8  and  C_9
REMARK    5  A    between atoms: C_15  and  S_16
REMARK    6  A    between atoms: S_16  and  C_17
REMARK                            x       y       z     vdW  Elec       q    Type
REMARK                         _______ _______ _______ _____ _____    ______ ____
ROOT
ATOM      1  C   UNL     1       0.816   4.628  20.456  0.00  0.00    +0.000 C 
ATOM      2  N   UNL     1       1.924   4.871  19.563  0.00  0.00    +0.000 N 
ATOM      3  C   UNL     1       2.392   6.067  19.049  0.00  0.00    +0.000 A 
ATOM      4  N   UNL     1       3.337   5.829  18.147  0.00  0.00    +0.000 NA
ATOM      5  C   UNL     1       3.540   4.463  18.141  0.00  0.00    +0.000 A 
ATOM      6  C   UNL     1       4.401   3.602  17.451  0.00  0.00    +0.000 A 
ATOM      7  N   UNL     1       4.355   2.265  17.693  0.00  0.00    +0.000 NA
ATOM      8  C   UNL     1       3.465   1.824  18.606  0.00  0.00    +0.000 A 
ATOM      9  N   UNL     1       2.582   2.545  19.320  0.00  0.00    +0.000 NA
ATOM     10  C   UNL     1       2.678   3.856  19.035  0.00  0.00    +0.000 A 
ENDROOT
BRANCH   3  11
ATOM     11  C   UNL     1       1.919   7.413  19.406  0.00  0.00    +0.000 A 
ATOM     12  C   UNL     1       1.746   8.421  18.446  0.00  0.00    +0.000 A 
ATOM     13  C   UNL     1       1.332   9.705  18.816  0.00  0.00    +0.000 A 
ATOM     14  C   UNL     1       1.038   9.993  20.151  0.00  0.00    +0.000 A 
ATOM     15  C   UNL     1       1.159   8.984  21.110  0.00  0.00    +0.000 A 
ATOM     16  C   UNL     1       1.593   7.705  20.739  0.00  0.00    +0.000 A 
BRANCH  14  17
ATOM     17  S   UNL     1       0.522  11.664  20.602  0.00  0.00    +0.000 S 
ATOM     18  C   UNL     1      -0.473  11.208  22.046  0.00  0.00    +0.000 C 
ATOM     19  O   UNL     1       1.797  12.414  21.130  0.00  0.00    +0.000 OA
ENDBRANCH  14  17
ENDBRANCH   3  11
BRANCH   6  20
ATOM     20  S   UNL     1       5.478   4.218  16.196  0.00  0.00    +0.000 S 
BRANCH  20  21
ATOM     21  C   UNL     1       6.445   5.412  17.098  0.00  0.00    +0.000 A 
ATOM     22  C   UNL     1       7.196   5.001  18.208  0.00  0.00    +0.000 A 
ATOM     23  C   UNL     1       8.019   5.908  18.881  0.00  0.00    +0.000 A 
ATOM     24  C   UNL     1       8.090   7.224  18.441  0.00  0.00    +0.000 A 
ATOM     25  F   UNL     1       8.887   8.093  19.076  0.00  0.00    +0.000 F 
ATOM     26  C   UNL     1       7.351   7.649  17.340  0.00  0.00    +0.000 A 
ATOM     27  C   UNL     1       6.533   6.742  16.664  0.00  0.00    +0.000 A 
ENDBRANCH  20  21
ENDBRANCH   6  20
TORSDOF 4
ENDMDL
MODEL 4
REMARK VINA RESULT:      -8.3      0.799      1.311
REMARK  Name = 
REMARK  6 active torsions:
REMARK  status: ('A' for Active; 'I' for Inactive)
REMARK    1  A    between atoms: C_1  and  N_2
REMARK    2  A    between atoms: C_3  and  C_4
REMARK    3  A    between atoms: C_7  and  S_8
REMARK    4  A    between atoms: S_8  and  C_9
REMARK    5  A    between atoms: C_15  and  S_16
REMARK    6  A    between atoms: S_16  and  C_17
REMARK                            x       y       z     vdW  Elec       q    Type
REMARK                         _______ _______ _______ _____ _____    ______ ____
ROOT
ATOM      1  C   UNL     1       0.784   4.582  20.402  0.00  0.00    +0.000 C 
ATOM      2  N   UNL     1       1.897   4.801  19.511  0.00  0.00    +0.000 N 
ATOM      3  C   UNL     1       2.394   5.987  19.001  0.00  0.00    +0.000 A 
ATOM      4  N   UNL     1       3.334   5.729  18.100  0.00  0.00    +0.000 NA
ATOM      5  C   UNL     1       3.504   4.358  18.089  0.00  0.00    +0.000 A 
ATOM      6  C   UNL     1       4.343   3.479  17.396  0.00  0.00    +0.000 A 
ATOM      7  N   UNL     1       4.265   2.143  17.633  0.00  0.00    +0.000 NA
ATOM      8  C   UNL     1       3.364   1.721  18.544  0.00  0.00    +0.000 A 
ATOM      9  N   UNL     1       2.498   2.461  19.260  0.00  0.00    +0.000 NA
ATOM     10  C   UNL     1       2.627   3.769  18.980  0.00  0.00    +0.000 A 
ENDROOT
BRANCH   3  11
ATOM     11  C   UNL     1       1.955   7.343  19.362  0.00  0.00    +0.000 A 
ATOM     12  C   UNL     1       1.635   7.696  20.681  0.00  0.00    +0.000 A 
ATOM     13  C   UNL     1       1.182   8.982  20.993  0.00  0.00    +0.000 A 
ATOM     14  C   UNL     1       1.084   9.956  19.996  0.00  0.00    +0.000 A 
ATOM     15  C   UNL     1       1.447   9.632  18.687  0.00  0.00    +0.000 A 
ATOM     16  C   UNL     1       1.881   8.336  18.374  0.00  0.00    +0.000 A 
BRANCH  14  17
ATOM     17  S   UNL     1       0.480  11.603  20.425  0.00  0.00    +0.000 S 
ATOM     18  C   UNL     1       1.685  12.543  19.453  0.00  0.00    +0.000 C 
ATOM     19  O   UNL     1      -0.919  11.777  19.732  0.00  0.00    +0.000 OA
ENDBRANCH  14  17
ENDBRANCH   3  11
BRANCH   6  20
ATOM     20  S   UNL     1       5.436   4.073  16.144  0.00  0.00    +0.000 S 
BRANCH  20  21
ATOM     21  C   UNL     1       6.384   5.291  17.033  0.00  0.00    +0.000 A 
ATOM     22  C   UNL     1       7.143   4.901  18.146  0.00  0.00    +0.000 A 
ATOM     23  C   UNL     1       7.952   5.828  18.810  0.00  0.00    +0.000 A 
ATOM     24  C   UNL     1       8.002   7.141  18.358  0.00  0.00    +0.000 A 
ATOM     25  F   UNL     1       8.786   8.028  18.984  0.00  0.00    +0.000 F 
ATOM     26  C   UNL     1       7.256   7.544  17.253  0.00  0.00    +0.000 A 
ATOM     27  C   UNL     1       6.452   6.617  16.587  0.00  0.00    +0.000 A 
ENDBRANCH  20  21
ENDBRANCH   6  20
TORSDOF 4
ENDMDL
MODEL 5
REMARK VINA RESULT:      -8.0      2.433      2.877
REMARK  Name = 
REMARK  6 active torsions:
REMARK  status: ('A' for Active; 'I' for Inactive)
REMARK    1  A    between atoms: C_1  and  N_2
REMARK    2  A    between atoms: C_3  and  C_4
REMARK    3  A    between atoms: C_7  and  S_8
REMARK    4  A    between atoms: S_8  and  C_9
REMARK    5  A    between atoms: C_15  and  S_16
REMARK    6  A    between atoms: S_16  and  C_17
REMARK                            x       y       z     vdW  Elec       q    Type
REMARK                         _______ _______ _______ _____ _____    ______ ____
ROOT
ATOM      1  C   UNL     1       0.784   4.921  20.409  0.00  0.00    +0.000 C 
ATOM      2  N   UNL     1       2.117   5.286  19.995  0.00  0.00    +0.000 N 
ATOM      3  C   UNL     1       2.608   6.519  19.602  0.00  0.00    +0.000 A 
ATOM      4  N   UNL     1       3.852   6.386  19.157  0.00  0.00    +0.000 NA
ATOM      5  C   UNL     1       4.197   5.061  19.343  0.00  0.00    +0.000 A 
ATOM      6  C   UNL     1       5.352   4.306  19.110  0.00  0.00    +0.000 A 
ATOM      7  N   UNL     1       5.369   2.985  19.426  0.00  0.00    +0.000 NA
ATOM      8  C   UNL     1       4.250   2.454  19.960  0.00  0.00    +0.000 A 
ATOM      9  N   UNL     1       3.081   3.068  20.217  0.00  0.00    +0.000 NA
ATOM     10  C   UNL     1       3.130   4.369  19.883  0.00  0.00    +0.000 A 
ENDROOT
BRANCH   3  11
ATOM     11  C   UNL     1       1.881   7.797  19.636  0.00  0.00    +0.000 A 
ATOM     12  C   UNL     1       1.302   8.293  20.812  0.00  0.00    +0.000 A 
ATOM     13  C   UNL     1       0.583   9.493  20.812  0.00  0.00    +0.000 A 
ATOM     14  C   UNL     1       0.469  10.246  19.640  0.00  0.00    +0.000 A 
ATOM     15  C   UNL     1       1.084   9.787  18.472  0.00  0.00    +0.000 A 
ATOM     16  C   UNL     1       1.786   8.575  18.472  0.00  0.00    +0.000 A 
BRANCH  14  17
ATOM     17  S   UNL     1      -0.480  11.782  19.664  0.00  0.00    +0.000 S 
ATOM     18  C   UNL     1       0.697  12.785  18.720  0.00  0.00    +0.000 C 
ATOM     19  O   UNL     1      -1.741  11.560  18.755  0.00  0.00    +0.000 OA
ENDBRANCH  14  17
ENDBRANCH   3  11
BRANCH   6  20
ATOM     20  S   UNL     1       6.756   5.026  18.320  0.00  0.00    +0.000 S 
BRANCH  20  21
ATOM     21  C   UNL     1       6.411   4.710  16.601  0.00  0.00    +0.000 A 
ATOM     22  C   UNL     1       7.350   5.076  15.626  0.00  0.00    +0.000 A 
ATOM     23  C   UNL     1       7.130   4.768  14.281  0.00  0.00    +0.000 A 
ATOM     24  C   UNL     1       5.972   4.093  13.914  0.00  0.00    +0.000 A 
ATOM     25  F   UNL     1       5.765   3.785  12.627  0.00  0.00    +0.000 F 
ATOM     26  C   UNL     1       5.031   3.721  14.869  0.00  0.00    +0.000 A 
ATOM     27  C   UNL     1       5.252   4.024  16.214  0.00  0.00    +0.000 A 
ENDBRANCH  20  21
ENDBRANCH   6  20
TORSDOF 4
ENDMDL
MODEL 6
REMARK VINA RESULT:      -8.0      2.387      2.854
REMARK  Name = 
REMARK  6 active torsions:
REMARK  status: ('A' for Active; 'I' for Inactive)
REMARK    1  A    between atoms: C_1  and  N_2
REMARK    2  A    between atoms: C_3  and  C_4
REMARK    3  A    between atoms: C_7  and  S_8
REMARK    4  A    between atoms: S_8  and  C_9
REMARK    5  A    between atoms: C_15  and  S_16
REMARK    6  A    between atoms: S_16  and  C_17
REMARK                            x       y       z     vdW  Elec       q    Type
REMARK                         _______ _______ _______ _____ _____    ______ ____
ROOT
ATOM      1  C   UNL     1       0.766   4.935  20.352  0.00  0.00    +0.000 C 
ATOM      2  N   UNL     1       2.102   5.308  19.955  0.00  0.00    +0.000 N 
ATOM      3  C   UNL     1       2.590   6.544  19.567  0.00  0.00    +0.000 A 
ATOM      4  N   UNL     1       3.840   6.418  19.139  0.00  0.00    +0.000 NA
ATOM      5  C   UNL     1       4.191   5.096  19.331  0.00  0.00    +0.000 A 
ATOM      6  C   UNL     1       5.354   4.348  19.116  0.00  0.00    +0.000 A 
ATOM      7  N   UNL     1       5.375   3.027  19.433  0.00  0.00    +0.000 NA
ATOM      8  C   UNL     1       4.252   2.489  19.952  0.00  0.00    +0.000 A 
ATOM      9  N   UNL     1       3.076   3.096  20.193  0.00  0.00    +0.000 NA
ATOM     10  C   UNL     1       3.122   4.397  19.858  0.00  0.00    +0.000 A 
ENDROOT
BRANCH   3  11
ATOM     11  C   UNL     1       1.855   7.817  19.591  0.00  0.00    +0.000 A 
ATOM     12  C   UNL     1       1.294   8.332  20.768  0.00  0.00    +0.000 A 
ATOM     13  C   UNL     1       0.567   9.527  20.757  0.00  0.00    +0.000 A 
ATOM     14  C   UNL     1       0.426  10.255  19.573  0.00  0.00    +0.000 A 
ATOM     15  C   UNL     1       1.021   9.778  18.402  0.00  0.00    +0.000 A 
ATOM     16  C   UNL     1       1.732   8.570  18.413  0.00  0.00    +0.000 A 
BRANCH  14  17
ATOM     17  S   UNL     1      -0.534  11.785  19.584  0.00  0.00    +0.000 S 
ATOM     18  C   UNL     1      -1.744  11.299  18.327  0.00  0.00    +0.000 C 
ATOM     19  O   UNL     1      -1.288  11.847  20.960  0.00  0.00    +0.000 OA
ENDBRANCH  14  17
ENDBRANCH   3  11
BRANCH   6  20
ATOM     20  S   UNL     1       6.764   5.076  18.343  0.00  0.00    +0.000 S 
BRANCH  20  21
ATOM     21  C   UNL     1       6.507   4.647  16.633  0.00  0.00    +0.000 A 
ATOM     22  C   UNL     1       5.345   3.958  16.258  0.00  0.00    +0.000 A 
ATOM     23  C   UNL     1       5.091   3.681  14.912  0.00  0.00    +0.000 A 
ATOM     24  C   UNL     1       5.998   4.095  13.945  0.00  0.00    +0.000 A 
ATOM     25  F   UNL     1       5.750   3.842  12.653  0.00  0.00    +0.000 F 
ATOM     26  C   UNL     1       7.156   4.781  14.300  0.00  0.00    +0.000 A 
ATOM     27  C   UNL     1       7.408   5.063  15.644  0.00  0.00    +0.000 A 
ENDBRANCH  20  21
ENDBRANCH   6  20
TORSDOF 4
ENDMDL
MODEL 7
REMARK VINA RESULT:      -7.9      2.259      2.835
REMARK  Name = 
REMARK  6 active torsions:
REMARK  status: ('A' for Active; 'I' for Inactive)
REMARK    1  A    between atoms: C_1  and  N_2
REMARK    2  A    between atoms: C_3  and  C_4
REMARK    3  A    between atoms: C_7  and  S_8
REMARK    4  A    between atoms: S_8  and  C_9
REMARK    5  A    between atoms: C_15  and  S_16
REMARK    6  A    between atoms: S_16  and  C_17
REMARK                            x       y       z     vdW  Elec       q    Type
REMARK                         _______ _______ _______ _____ _____    ______ ____
ROOT
ATOM      1  C   UNL     1       0.769   5.000  20.338  0.00  0.00    +0.000 C 
ATOM      2  N   UNL     1       2.114   5.332  19.935  0.00  0.00    +0.000 N 
ATOM      3  C   UNL     1       2.631   6.547  19.520  0.00  0.00    +0.000 A 
ATOM      4  N   UNL     1       3.879   6.382  19.098  0.00  0.00    +0.000 NA
ATOM      5  C   UNL     1       4.199   5.057  19.322  0.00  0.00    +0.000 A 
ATOM      6  C   UNL     1       5.345   4.278  19.126  0.00  0.00    +0.000 A 
ATOM      7  N   UNL     1       5.335   2.965  19.475  0.00  0.00    +0.000 NA
ATOM      8  C   UNL     1       4.199   2.465  20.004  0.00  0.00    +0.000 A 
ATOM      9  N   UNL     1       3.037   3.105  20.227  0.00  0.00    +0.000 NA
ATOM     10  C   UNL     1       3.113   4.396  19.862  0.00  0.00    +0.000 A 
ENDROOT
BRANCH   3  11
ATOM     11  C   UNL     1       1.926   7.837  19.512  0.00  0.00    +0.000 A 
ATOM     12  C   UNL     1       1.757   8.587  18.339  0.00  0.00    +0.000 A 
ATOM     13  C   UNL     1       1.116   9.830  18.363  0.00  0.00    +0.000 A 
ATOM     14  C   UNL     1       0.589  10.327  19.558  0.00  0.00    +0.000 A 
ATOM     15  C   UNL     1       0.707   9.568  20.725  0.00  0.00    +0.000 A 
ATOM     16  C   UNL     1       1.368   8.332  20.700  0.00  0.00    +0.000 A 
BRANCH  14  17
ATOM     17  S   UNL     1      -0.218  11.942  19.564  0.00  0.00    +0.000 S 
ATOM     18  C   UNL     1      -1.094  11.748  21.137  0.00  0.00    +0.000 C 
ATOM     19  O   UNL     1       0.905  13.019  19.782  0.00  0.00    +0.000 OA
ENDBRANCH  14  17
ENDBRANCH   3  11
BRANCH   6  20
ATOM     20  S   UNL     1       6.773   4.955  18.340  0.00  0.00    +0.000 S 
BRANCH  20  21
ATOM     21  C   UNL     1       6.421   4.655  16.620  0.00  0.00    +0.000 A 
ATOM     22  C   UNL     1       7.325   5.091  15.641  0.00  0.00    +0.000 A 
ATOM     23  C   UNL     1       7.103   4.799  14.293  0.00  0.00    +0.000 A 
ATOM     24  C   UNL     1       5.979   4.069  13.927  0.00  0.00    +0.000 A 
ATOM     25  F   UNL     1       5.770   3.776  12.637  0.00  0.00    +0.000 F 
ATOM     26  C   UNL     1       5.072   3.627  14.886  0.00  0.00    +0.000 A 
ATOM     27  C   UNL     1       5.296   3.915  16.234  0.00  0.00    +0.000 A 
ENDBRANCH  20  21
ENDBRANCH   6  20
TORSDOF 4
ENDMDL
MODEL 8
REMARK VINA RESULT:      -7.8      4.499      8.481
REMARK  Name = 
REMARK  6 active torsions:
REMARK  status: ('A' for Active; 'I' for Inactive)
REMARK    1  A    between atoms: C_1  and  N_2
REMARK    2  A    between atoms: C_3  and  C_4
REMARK    3  A    between atoms: C_7  and  S_8
REMARK    4  A    between atoms: S_8  and  C_9
REMARK    5  A    between atoms: C_15  and  S_16
REMARK    6  A    between atoms: S_16  and  C_17
REMARK                            x       y       z     vdW  Elec       q    Type
REMARK                         _______ _______ _______ _____ _____    ______ ____
ROOT
ATOM      1  C   UNL     1       2.774   5.485  20.636  0.00  0.00    +0.000 C 
ATOM      2  N   UNL     1       2.348   6.651  19.900  0.00  0.00    +0.000 N 
ATOM      3  C   UNL     1       2.764   7.107  18.661  0.00  0.00    +0.000 A 
ATOM      4  N   UNL     1       2.229   8.298  18.419  0.00  0.00    +0.000 NA
ATOM      5  C   UNL     1       1.392   8.577  19.482  0.00  0.00    +0.000 A 
ATOM      6  C   UNL     1       0.538   9.637  19.806  0.00  0.00    +0.000 A 
ATOM      7  N   UNL     1      -0.179   9.597  20.960  0.00  0.00    +0.000 NA
ATOM      8  C   UNL     1      -0.031   8.516  21.752  0.00  0.00    +0.000 A 
ATOM      9  N   UNL     1       0.762   7.447  21.558  0.00  0.00    +0.000 NA
ATOM     10  C   UNL     1       1.442   7.548  20.403  0.00  0.00    +0.000 A 
ENDROOT
BRANCH   3  11
ATOM     11  C   UNL     1       3.675   6.414  17.738  0.00  0.00    +0.000 A 
ATOM     12  C   UNL     1       3.565   5.042  17.472  0.00  0.00    +0.000 A 
ATOM     13  C   UNL     1       4.468   4.398  16.619  0.00  0.00    +0.000 A 
ATOM     14  C   UNL     1       5.474   5.127  15.979  0.00  0.00    +0.000 A 
ATOM     15  C   UNL     1       5.565   6.504  16.197  0.00  0.00    +0.000 A 
ATOM     16  C   UNL     1       4.670   7.142  17.067  0.00  0.00    +0.000 A 
BRANCH  14  17
ATOM     17  S   UNL     1       6.637   4.267  14.898  0.00  0.00    +0.000 S 
ATOM     18  C   UNL     1       5.477   3.924  13.549  0.00  0.00    +0.000 C 
ATOM     19  O   UNL     1       7.660   5.337  14.375  0.00  0.00    +0.000 OA
ENDBRANCH  14  17
ENDBRANCH   3  11
BRANCH   6  20
ATOM     20  S   UNL     1       0.455  11.073  18.783  0.00  0.00    +0.000 S 
BRANCH  20  21
ATOM     21  C   UNL     1      -1.249  11.055  18.264  0.00  0.00    +0.000 A 
ATOM     22  C   UNL     1      -1.678  10.105  17.326  0.00  0.00    +0.000 A 
ATOM     23  C   UNL     1      -3.026  10.027  16.964  0.00  0.00    +0.000 A 
ATOM     24  C   UNL     1      -3.942  10.897  17.543  0.00  0.00    +0.000 A 
ATOM     25  F   UNL     1      -5.236  10.816  17.207  0.00  0.00    +0.000 F 
ATOM     26  C   UNL     1      -3.533  11.844  18.477  0.00  0.00    +0.000 A 
ATOM     27  C   UNL     1      -2.188  11.920  18.843  0.00  0.00    +0.000 A 
ENDBRANCH  20  21
ENDBRANCH   6  20
TORSDOF 4
ENDMDL
MODEL 9
REMARK VINA RESULT:      -7.6      4.484      8.425
REMARK  Name = 
REMARK  6 active torsions:
REMARK  status: ('A' for Active; 'I' for Inactive)
REMARK    1  A    between atoms: C_1  and  N_2
REMARK    2  A    between atoms: C_3  and  C_4
REMARK    3  A    between atoms: C_7  and  S_8
REMARK    4  A    between atoms: S_8  and  C_9
REMARK    5  A    between atoms: C_15  and  S_16
REMARK    6  A    between atoms: S_16  and  C_17
REMARK                            x       y       z     vdW  Elec       q    Type
REMARK                         _______ _______ _______ _____ _____    ______ ____
ROOT
ATOM      1  C   UNL     1       3.188   5.237  20.257  0.00  0.00    +0.000 C 
ATOM      2  N   UNL     1       2.701   6.410  19.573  0.00  0.00    +0.000 N 
ATOM      3  C   UNL     1       3.025   6.892  18.316  0.00  0.00    +0.000 A 
ATOM      4  N   UNL     1       2.464   8.082  18.134  0.00  0.00    +0.000 NA
ATOM      5  C   UNL     1       1.700   8.334  19.257  0.00  0.00    +0.000 A 
ATOM      6  C   UNL     1       0.861   9.379  19.658  0.00  0.00    +0.000 A 
ATOM      7  N   UNL     1       0.227   9.312  20.858  0.00  0.00    +0.000 NA
ATOM      8  C   UNL     1       0.439   8.219  21.619  0.00  0.00    +0.000 A 
ATOM      9  N   UNL     1       1.227   7.162  21.351  0.00  0.00    +0.000 NA
ATOM     10  C   UNL     1       1.824   7.290  20.153  0.00  0.00    +0.000 A 
ENDROOT
BRANCH   3  11
ATOM     11  C   UNL     1       3.877   6.225  17.320  0.00  0.00    +0.000 A 
ATOM     12  C   UNL     1       3.919   4.830  17.191  0.00  0.00    +0.000 A 
ATOM     13  C   UNL     1       4.766   4.217  16.261  0.00  0.00    +0.000 A 
ATOM     14  C   UNL     1       5.555   4.993  15.409  0.00  0.00    +0.000 A 
ATOM     15  C   UNL     1       5.486   6.386  15.494  0.00  0.00    +0.000 A 
ATOM     16  C   UNL     1       4.651   6.996  16.440  0.00  0.00    +0.000 A 
BRANCH  14  17
ATOM     17  S   UNL     1       6.653   4.176  14.231  0.00  0.00    +0.000 S 
ATOM     18  C   UNL     1       5.382   3.714  13.026  0.00  0.00    +0.000 C 
ATOM     19  O   UNL     1       7.538   5.292  13.572  0.00  0.00    +0.000 OA
ENDBRANCH  14  17
ENDBRANCH   3  11
BRANCH   6  20
ATOM     20  S   UNL     1       0.694  10.832  18.670  0.00  0.00    +0.000 S 
BRANCH  20  21
ATOM     21  C   UNL     1      -1.039  10.798  18.260  0.00  0.00    +0.000 A 
ATOM     22  C   UNL     1      -1.913  11.713  18.865  0.00  0.00    +0.000 A 
ATOM     23  C   UNL     1      -3.261  11.751  18.500  0.00  0.00    +0.000 A 
ATOM     24  C   UNL     1      -3.732  10.875  17.529  0.00  0.00    +0.000 A 
ATOM     25  F   UNL     1      -5.022  10.918  17.168  0.00  0.00    +0.000 F 
ATOM     26  C   UNL     1      -2.878   9.962  16.917  0.00  0.00    +0.000 A 
ATOM     27  C   UNL     1      -1.530   9.927  17.279  0.00  0.00    +0.000 A 
ENDBRANCH  20  21
ENDBRANCH   6  20
TORSDOF 4
ENDMDL
